MODEL        1
REMARK 921   NORMALIZED FREE ENERGY PREDICTED BY IDOCK:   -8.05 KCAL/MOL
REMARK 922        TOTAL FREE ENERGY PREDICTED BY IDOCK:  -12.61 KCAL/MOL
REMARK 923 INTER-LIGAND FREE ENERGY PREDICTED BY IDOCK:  -11.34 KCAL/MOL
REMARK 924 INTRA-LIGAND FREE ENERGY PREDICTED BY IDOCK:   -1.27 KCAL/MOL
REMARK 927      BINDING AFFINITY PREDICTED BY RF-SCORE:    0.00 PKD
ROOT
HETATM    1  C   UNK A   0      -8.382  15.169  68.148  1.00  0.00    -0.147 C  
HETATM    2  N   UNK A   0      -9.089  16.190  67.529  1.00  0.00    -0.201 N  
HETATM    3  O   UNK A   0      -8.744  14.004  68.282  1.00  0.00    -0.171 OA 
HETATM    4  C   UNK A   0     -10.451  15.950  66.924  1.00  0.00    -0.309 C  
HETATM    5  C   UNK A   0     -10.520  16.663  65.553  1.00  0.00    -0.267 C  
HETATM    6  C   UNK A   0      -7.671  20.103  67.164  1.00  0.00    -0.308 C  
HETATM    7  H   UNK A   0      -6.138  19.579  68.422  1.00  0.00     0.000 HD 
HETATM    8  N   UNK A   0     -10.176  18.060  65.750  1.00  0.00    -0.597 NA 
HETATM    9  H   UNK A   0     -10.710  18.781  65.265  1.00  0.00     0.000 HD 
HETATM   10  H2  UNK A   0      -6.417  21.690  67.642  1.00  0.00     0.000 HD 
HETATM   11  C   UNK A   0      -9.134  18.430  66.585  1.00  0.00    -0.297 C  
HETATM   12  O   UNK A   0      -7.037  17.426  69.271  1.00  0.00    -0.232 OA 
HETATM   13  C   UNK A   0      -8.603  17.519  67.445  1.00  0.00    -0.220 C  
HETATM   14  H1  UNK A   0      -7.711  22.003  66.459  1.00  0.00     0.000 HD 
HETATM   15  C   UNK A   0      -7.490  18.030  68.303  1.00  0.00    -0.266 C  
HETATM   16  N   UNK A   0      -8.686  19.722  66.465  1.00  0.00    -0.345 NA 
HETATM   17  N   UNK A   0      -7.216  21.375  67.092  1.00  0.00    -0.826 NA 
HETATM   18  N   UNK A   0      -7.014  19.269  68.003  1.00  0.00    -0.246 N  
ENDROOT
BRANCH   4  19
HETATM   19  C   UNK A   0     -10.898  14.480  66.776  1.00  0.00    -0.305 C  
BRANCH  19  20
HETATM   20  N   UNK A   0     -12.134  14.202  67.527  1.00  0.00    -0.548 NA 
HETATM   21  H   UNK A   0     -12.999  14.707  67.333  1.00  0.00     0.000 HD 
BRANCH  20  22
HETATM   22  C   UNK A   0     -12.071  13.217  68.519  1.00  0.00    -0.221 A  
HETATM   23  C   UNK A   0     -12.509  12.602  70.836  1.00  0.00    -0.368 A  
HETATM   24  C   UNK A   0     -12.257  11.261  70.529  1.00  0.00    -0.474 A  
HETATM   25  C   UNK A   0     -11.704  11.890  68.265  1.00  0.00    -0.385 A  
HETATM   26  C   UNK A   0     -12.404  13.573  69.832  1.00  0.00    -0.287 A  
HETATM   27  C   UNK A   0     -11.801  10.915  69.255  1.00  0.00    -0.395 A  
BRANCH  24  28
HETATM   28  C   UNK A   0     -12.476  10.213  71.554  1.00  0.00    -0.427 C  
ATOM     29  H   GLU A   1     -10.664   9.285  71.046  1.00  0.00     0.000 HD 
ATOM     30  N   GLU A   1     -11.508   9.218  71.616  1.00  0.00    -0.378 N  
HETATM   31  O   UNK A   0     -13.471  10.226  72.266  1.00  0.00    -0.377 OA 
BRANCH  30  32
ATOM     32  CA  GLU A   1     -11.709   8.062  72.511  1.00  0.00    -0.387 C  
ATOM     33  C   GLU A   1     -10.372   7.697  73.181  1.00  0.00    -0.352 C  
ATOM     34  O   GLU A   1      -9.291   8.098  72.466  1.00  0.00    -0.206 OA 
ATOM     35  OXT GLU A   1     -10.269   6.983  74.169  1.00  0.00    -0.345 OA 
BRANCH  32  36
ATOM     36  CB  GLU A   1     -12.243   6.861  71.716  1.00  0.00    -0.396 C  
BRANCH  36  37
ATOM     37  CG  GLU A   1     -11.967   6.967  70.212  1.00  0.00    -0.197 C  
ATOM     38  CD  GLU A   1     -10.902   6.006  69.751  1.00  0.00    -0.363 C  
ATOM     39  OE2 GLU A   1     -10.298   5.227  70.471  1.00  0.00    -0.252 OA 
ATOM     40  OE1 GLU A   1     -10.685   6.087  68.418  1.00  0.00    -0.240 OA 
ENDBRANCH  36  37
ENDBRANCH  32  36
ENDBRANCH  30  32
ENDBRANCH  24  28
ENDBRANCH  20  22
ENDBRANCH  19  20
ENDBRANCH   4  19
TORSDOF 7
ENDMDL
MODEL        2
REMARK 921   NORMALIZED FREE ENERGY PREDICTED BY IDOCK:   -7.82 KCAL/MOL
REMARK 922        TOTAL FREE ENERGY PREDICTED BY IDOCK:  -12.29 KCAL/MOL
REMARK 923 INTER-LIGAND FREE ENERGY PREDICTED BY IDOCK:  -11.33 KCAL/MOL
REMARK 924 INTRA-LIGAND FREE ENERGY PREDICTED BY IDOCK:   -0.97 KCAL/MOL
REMARK 927      BINDING AFFINITY PREDICTED BY RF-SCORE:    0.00 PKD
ROOT
HETATM    1  C   UNK A   0     -11.871  14.658  66.297  1.00  0.00    -0.291 C  
HETATM    2  N   UNK A   0     -11.353  15.362  67.375  1.00  0.00    -0.290 N  
HETATM    3  O   UNK A   0     -12.254  13.492  66.300  1.00  0.00    -0.417 OA 
HETATM    4  C   UNK A   0     -11.203  14.724  68.734  1.00  0.00    -0.270 C  
HETATM    5  C   UNK A   0     -11.672  15.729  69.812  1.00  0.00    -0.348 C  
HETATM    6  C   UNK A   0     -10.112  19.346  67.160  1.00  0.00    -0.384 C  
HETATM    7  H   UNK A   0     -10.346  19.226  65.126  1.00  0.00     0.000 HD 
HETATM    8  N   UNK A   0     -10.932  16.966  69.632  1.00  0.00    -0.365 NA 
HETATM    9  H   UNK A   0     -10.579  17.463  70.450  1.00  0.00     0.000 HD 
HETATM   10  H2  UNK A   0      -9.537  21.074  66.160  1.00  0.00     0.000 HD 
HETATM   11  C   UNK A   0     -10.697  17.483  68.368  1.00  0.00    -0.280 C  
HETATM   12  O   UNK A   0     -10.542  16.761  64.893  1.00  0.00    -0.702 OA 
HETATM   13  C   UNK A   0     -10.907  16.704  67.271  1.00  0.00    -0.158 C  
HETATM   14  H1  UNK A   0      -9.492  21.112  67.940  1.00  0.00     0.000 HD 
HETATM   15  C   UNK A   0     -10.613  17.362  65.961  1.00  0.00    -0.210 C  
HETATM   16  N   UNK A   0     -10.276  18.788  68.312  1.00  0.00    -0.377 NA 
HETATM   17  N   UNK A   0      -9.675  20.623  67.064  1.00  0.00    -0.632 NA 
HETATM   18  N   UNK A   0     -10.356  18.698  65.999  1.00  0.00    -0.428 N  
ENDROOT
BRANCH   4  19
HETATM   19  C   UNK A   0     -11.899  13.362  68.945  1.00  0.00    -0.334 C  
BRANCH  19  20
HETATM   20  N   UNK A   0     -11.860  12.936  70.354  1.00  0.00    -0.546 NA 
HETATM   21  H   UNK A   0     -11.678  13.600  71.106  1.00  0.00     0.000 HD 
BRANCH  20  22
HETATM   22  C   UNK A   0     -12.082  11.579  70.616  1.00  0.00    -0.353 A  
HETATM   23  C   UNK A   0     -11.394   9.272  70.237  1.00  0.00    -0.238 A  
HETATM   24  C   UNK A   0     -12.240   8.849  71.268  1.00  0.00    -0.351 A  
HETATM   25  C   UNK A   0     -13.011  11.119  71.558  1.00  0.00    -0.542 A  
HETATM   26  C   UNK A   0     -11.328  10.633  69.911  1.00  0.00    -0.386 A  
HETATM   27  C   UNK A   0     -13.088   9.768  71.890  1.00  0.00    -0.544 A  
BRANCH  24  28
HETATM   28  C   UNK A   0     -12.232   7.430  71.697  1.00  0.00    -0.330 C  
ATOM     29  H   GLU A   1     -10.177   7.527  72.105  1.00  0.00     0.000 HD 
ATOM     30  N   GLU A   1     -10.993   6.916  72.056  1.00  0.00    -0.229 N  
HETATM   31  O   UNK A   0     -13.259   6.766  71.695  1.00  0.00    -0.314 OA 
BRANCH  30  32
ATOM     32  CA  GLU A   1     -10.864   5.480  72.368  1.00  0.00    -0.248 C  
ATOM     33  C   GLU A   1     -10.641   5.303  73.881  1.00  0.00    -0.292 C  
ATOM     34  O   GLU A   1     -10.100   6.398  74.471  1.00  0.00    -0.332 OA 
ATOM     35  OXT GLU A   1     -10.779   4.244  74.479  1.00  0.00    -0.228 OA 
BRANCH  32  36
ATOM     36  CB  GLU A   1      -9.687   4.871  71.590  1.00  0.00    -0.231 C  
BRANCH  36  37
ATOM     37  CG  GLU A   1      -9.964   4.742  70.088  1.00  0.00    -0.321 C  
ATOM     38  CD  GLU A   1      -9.202   5.754  69.271  1.00  0.00    -0.117 C  
ATOM     39  OE2 GLU A   1      -8.453   6.604  69.726  1.00  0.00    -0.129 OA 
ATOM     40  OE1 GLU A   1      -9.432   5.615  67.945  1.00  0.00    -0.110 OA 
ENDBRANCH  36  37
ENDBRANCH  32  36
ENDBRANCH  30  32
ENDBRANCH  24  28
ENDBRANCH  20  22
ENDBRANCH  19  20
ENDBRANCH   4  19
TORSDOF 7
ENDMDL
MODEL        3
REMARK 921   NORMALIZED FREE ENERGY PREDICTED BY IDOCK:   -7.69 KCAL/MOL
REMARK 922        TOTAL FREE ENERGY PREDICTED BY IDOCK:  -12.11 KCAL/MOL
REMARK 923 INTER-LIGAND FREE ENERGY PREDICTED BY IDOCK:  -11.17 KCAL/MOL
REMARK 924 INTRA-LIGAND FREE ENERGY PREDICTED BY IDOCK:   -0.94 KCAL/MOL
REMARK 927      BINDING AFFINITY PREDICTED BY RF-SCORE:    0.00 PKD
ROOT
HETATM    1  C   UNK A   0     -13.196  11.544  71.851  1.00  0.00    -0.374 C  
HETATM    2  N   UNK A   0     -12.308  11.084  70.888  1.00  0.00    -0.381 N  
HETATM    3  O   UNK A   0     -13.510  12.712  72.058  1.00  0.00    -0.498 OA 
HETATM    4  C   UNK A   0     -11.604  12.032  69.949  1.00  0.00    -0.238 C  
HETATM    5  C   UNK A   0     -11.629  11.432  68.524  1.00  0.00    -0.318 C  
HETATM    6  C   UNK A   0     -11.375   7.050  70.334  1.00  0.00    -0.310 C  
HETATM    7  H   UNK A   0     -12.405   6.656  72.064  1.00  0.00     0.000 HD 
HETATM    8  N   UNK A   0     -11.060  10.097  68.584  1.00  0.00    -0.370 NA 
HETATM    9  H   UNK A   0     -10.423   9.789  67.849  1.00  0.00     0.000 HD 
HETATM   10  H2  UNK A   0     -11.303   5.052  70.901  1.00  0.00     0.000 HD 
HETATM   11  C   UNK A   0     -11.369   9.233  69.622  1.00  0.00     0.049 C  
HETATM   12  O   UNK A   0     -12.606   8.970  72.942  1.00  0.00    -0.234 OA 
HETATM   13  C   UNK A   0     -11.981   9.713  70.739  1.00  0.00    -0.277 C  
HETATM   14  H1  UNK A   0     -10.546   5.484  69.348  1.00  0.00     0.000 HD 
HETATM   15  C   UNK A   0     -12.259   8.693  71.798  1.00  0.00    -0.343 C  
HETATM   16  N   UNK A   0     -11.046   7.912  69.433  1.00  0.00    -0.439 NA 
HETATM   17  N   UNK A   0     -11.052   5.743  70.195  1.00  0.00    -0.313 NA 
HETATM   18  N   UNK A   0     -12.047   7.393  71.456  1.00  0.00    -0.311 N  
ENDROOT
BRANCH   4  19
HETATM   19  C   UNK A   0     -12.116  13.489  69.915  1.00  0.00    -0.341 C  
BRANCH  19  20
HETATM   20  N   UNK A   0     -12.259  13.991  68.539  1.00  0.00    -0.537 NA 
HETATM   21  H   UNK A   0     -12.892  13.547  67.873  1.00  0.00     0.000 HD 
BRANCH  20  22
HETATM   22  C   UNK A   0     -11.490  15.104  68.182  1.00  0.00    -0.342 A  
HETATM   23  C   UNK A   0     -10.395  16.364  66.406  1.00  0.00    -0.319 A  
HETATM   24  C   UNK A   0     -10.186  17.428  67.288  1.00  0.00    -0.324 A  
HETATM   25  C   UNK A   0     -11.158  16.130  69.076  1.00  0.00    -0.336 A  
HETATM   26  C   UNK A   0     -11.036  15.204  66.861  1.00  0.00    -0.314 A  
HETATM   27  C   UNK A   0     -10.520  17.287  68.637  1.00  0.00    -0.356 A  
BRANCH  24  28
HETATM   28  C   UNK A   0      -9.613  18.701  66.789  1.00  0.00    -0.318 C  
ATOM     29  H   GLU A   1      -7.705  18.150  67.464  1.00  0.00     0.000 HD 
ATOM     30  N   GLU A   1      -8.262  18.896  67.044  1.00  0.00    -0.264 N  
HETATM   31  O   UNK A   0     -10.314  19.527  66.220  1.00  0.00    -0.427 OA 
BRANCH  30  32
ATOM     32  CA  GLU A   1      -7.636  20.188  66.706  1.00  0.00    -0.290 C  
ATOM     33  C   GLU A   1      -6.944  20.077  65.334  1.00  0.00    -0.302 C  
ATOM     34  O   GLU A   1      -6.600  18.804  65.014  1.00  0.00    -0.496 OA 
ATOM     35  OXT GLU A   1      -6.589  21.035  64.662  1.00  0.00    -0.219 OA 
BRANCH  32  36
ATOM     36  CB  GLU A   1      -6.610  20.580  67.780  1.00  0.00    -0.343 C  
BRANCH  36  37
ATOM     37  CG  GLU A   1      -6.043  19.373  68.535  1.00  0.00    -0.257 C  
ATOM     38  CD  GLU A   1      -5.837  19.653  70.002  1.00  0.00    -0.274 C  
ATOM     39  OE2 GLU A   1      -6.072  20.717  70.554  1.00  0.00    -0.516 OA 
ATOM     40  OE1 GLU A   1      -5.363  18.574  70.665  1.00  0.00    -0.237 OA 
ENDBRANCH  36  37
ENDBRANCH  32  36
ENDBRANCH  30  32
ENDBRANCH  24  28
ENDBRANCH  20  22
ENDBRANCH  19  20
ENDBRANCH   4  19
TORSDOF 7
ENDMDL
MODEL        4
REMARK 921   NORMALIZED FREE ENERGY PREDICTED BY IDOCK:   -7.65 KCAL/MOL
REMARK 922        TOTAL FREE ENERGY PREDICTED BY IDOCK:  -12.04 KCAL/MOL
REMARK 923 INTER-LIGAND FREE ENERGY PREDICTED BY IDOCK:  -11.01 KCAL/MOL
REMARK 924 INTRA-LIGAND FREE ENERGY PREDICTED BY IDOCK:   -1.03 KCAL/MOL
REMARK 927      BINDING AFFINITY PREDICTED BY RF-SCORE:    0.00 PKD
ROOT
HETATM    1  C   UNK A   0      -9.576   9.386  69.933  1.00  0.00    -0.212 C  
HETATM    2  N   UNK A   0     -10.759   8.955  70.517  1.00  0.00    -0.220 N  
HETATM    3  O   UNK A   0      -9.419  10.401  69.262  1.00  0.00    -0.201 OA 
HETATM    4  C   UNK A   0     -12.040   9.740  70.375  1.00  0.00    -0.106 C  
HETATM    5  C   UNK A   0     -12.753   9.784  71.746  1.00  0.00    -0.426 C  
HETATM    6  C   UNK A   0     -11.087   5.460  72.783  1.00  0.00    -0.294 C  
HETATM    7  H   UNK A   0      -9.184   4.987  72.181  1.00  0.00     0.000 HD 
HETATM    8  N   UNK A   0     -12.922   8.419  72.213  1.00  0.00    -0.499 NA 
HETATM    9  H   UNK A   0     -13.802   8.143  72.651  1.00  0.00     0.000 HD 
HETATM   10  H2  UNK A   0     -10.446   3.602  73.459  1.00  0.00     0.000 HD 
HETATM   11  C   UNK A   0     -11.909   7.484  72.075  1.00  0.00    -0.294 C  
HETATM   12  O   UNK A   0      -8.927   6.633  70.341  1.00  0.00    -0.150 OA 
HETATM   13  C   UNK A   0     -10.855   7.748  71.255  1.00  0.00    -0.231 C  
HETATM   14  H1  UNK A   0     -12.037   4.168  74.024  1.00  0.00     0.000 HD 
HETATM   15  C   UNK A   0      -9.826   6.666  71.176  1.00  0.00    -0.181 C  
HETATM   16  N   UNK A   0     -12.035   6.334  72.814  1.00  0.00    -0.500 NA 
HETATM   17  N   UNK A   0     -11.186   4.304  73.478  1.00  0.00    -0.288 NA 
HETATM   18  N   UNK A   0      -9.958   5.639  72.060  1.00  0.00    -0.174 N  
ENDROOT
BRANCH   4  19
HETATM   19  C   UNK A   0     -11.921  11.167  69.798  1.00  0.00    -0.357 C  
BRANCH  19  20
HETATM   20  N   UNK A   0     -12.219  11.205  68.356  1.00  0.00    -0.726 NA 
HETATM   21  H   UNK A   0     -12.639  10.407  67.879  1.00  0.00     0.000 HD 
BRANCH  20  22
HETATM   22  C   UNK A   0     -11.900  12.381  67.669  1.00  0.00    -0.295 A  
HETATM   23  C   UNK A   0     -11.419  14.767  67.790  1.00  0.00    -0.363 A  
HETATM   24  C   UNK A   0     -10.997  14.752  66.457  1.00  0.00    -0.325 A  
HETATM   25  C   UNK A   0     -11.592  12.417  66.303  1.00  0.00    -0.449 A  
HETATM   26  C   UNK A   0     -11.877  13.585  68.385  1.00  0.00    -0.408 A  
HETATM   27  C   UNK A   0     -11.136  13.587  65.699  1.00  0.00    -0.299 A  
BRANCH  24  28
HETATM   28  C   UNK A   0     -10.404  15.969  65.854  1.00  0.00    -0.368 C  
ATOM     29  H   GLU A   1      -9.300  16.340  67.598  1.00  0.00     0.000 HD 
ATOM     30  N   GLU A   1      -9.555  16.697  66.677  1.00  0.00    -0.250 N  
HETATM   31  O   UNK A   0     -10.685  16.307  64.712  1.00  0.00    -0.680 OA 
BRANCH  30  32
ATOM     32  CA  GLU A   1      -9.025  17.993  66.211  1.00  0.00    -0.172 C  
ATOM     33  C   GLU A   1      -7.535  17.835  65.852  1.00  0.00    -0.165 C  
ATOM     34  O   GLU A   1      -6.938  16.805  66.501  1.00  0.00    -0.223 OA 
ATOM     35  OXT GLU A   1      -6.899  18.638  65.182  1.00  0.00    -0.522 OA 
BRANCH  32  36
ATOM     36  CB  GLU A   1      -9.191  19.060  67.304  1.00  0.00    -0.321 C  
BRANCH  36  37
ATOM     37  CG  GLU A   1      -8.337  18.784  68.545  1.00  0.00    -0.379 C  
ATOM     38  CD  GLU A   1      -7.202  19.765  68.696  1.00  0.00    -0.323 C  
ATOM     39  OE2 GLU A   1      -6.956  20.678  67.925  1.00  0.00    -0.300 OA 
ATOM     40  OE1 GLU A   1      -6.471  19.531  69.809  1.00  0.00    -0.309 OA 
ENDBRANCH  36  37
ENDBRANCH  32  36
ENDBRANCH  30  32
ENDBRANCH  24  28
ENDBRANCH  20  22
ENDBRANCH  19  20
ENDBRANCH   4  19
TORSDOF 7
ENDMDL
MODEL        5
REMARK 921   NORMALIZED FREE ENERGY PREDICTED BY IDOCK:   -7.64 KCAL/MOL
REMARK 922        TOTAL FREE ENERGY PREDICTED BY IDOCK:  -12.04 KCAL/MOL
REMARK 923 INTER-LIGAND FREE ENERGY PREDICTED BY IDOCK:  -11.28 KCAL/MOL
REMARK 924 INTRA-LIGAND FREE ENERGY PREDICTED BY IDOCK:   -0.76 KCAL/MOL
REMARK 927      BINDING AFFINITY PREDICTED BY RF-SCORE:    0.00 PKD
ROOT
HETATM    1  C   UNK A   0      -9.262   7.994  69.396  1.00  0.00    -0.152 C  
HETATM    2  N   UNK A   0     -10.449   8.709  69.312  1.00  0.00    -0.222 N  
HETATM    3  O   UNK A   0      -8.395   7.911  68.530  1.00  0.00    -0.126 OA 
HETATM    4  C   UNK A   0     -10.807   9.501  68.078  1.00  0.00    -0.168 C  
HETATM    5  C   UNK A   0     -11.383  10.868  68.513  1.00  0.00    -0.299 C  
HETATM    6  C   UNK A   0     -13.276   8.874  72.384  1.00  0.00    -0.430 C  
HETATM    7  H   UNK A   0     -12.204   7.411  73.341  1.00  0.00     0.000 HD 
HETATM    8  N   UNK A   0     -12.487  10.627  69.426  1.00  0.00    -0.690 NA 
HETATM    9  H   UNK A   0     -13.338  11.183  69.343  1.00  0.00     0.000 HD 
HETATM   10  H2  UNK A   0     -14.159   8.226  74.150  1.00  0.00     0.000 HD 
HETATM   11  C   UNK A   0     -12.404   9.653  70.408  1.00  0.00     0.053 C  
HETATM   12  O   UNK A   0     -10.744   6.695  71.465  1.00  0.00    -0.223 OA 
HETATM   13  C   UNK A   0     -11.410   8.725  70.355  1.00  0.00    -0.192 C  
HETATM   14  H1  UNK A   0     -14.941   9.581  73.300  1.00  0.00     0.000 HD 
HETATM   15  C   UNK A   0     -11.422   7.718  71.461  1.00  0.00    -0.264 C  
HETATM   16  N   UNK A   0     -13.347   9.710  71.404  1.00  0.00    -0.383 NA 
HETATM   17  N   UNK A   0     -14.201   8.883  73.372  1.00  0.00    -1.142 NA 
HETATM   18  N   UNK A   0     -12.294   7.950  72.480  1.00  0.00    -0.565 N  
ENDROOT
BRANCH   4  19
HETATM   19  C   UNK A   0      -9.688   9.708  67.035  1.00  0.00    -0.181 C  
BRANCH  19  20
HETATM   20  N   UNK A   0     -10.211  10.233  65.763  1.00  0.00    -0.246 NA 
HETATM   21  H   UNK A   0     -10.602   9.613  65.053  1.00  0.00     0.000 HD 
BRANCH  20  22
HETATM   22  C   UNK A   0     -10.150  11.617  65.569  1.00  0.00    -0.246 A  
HETATM   23  C   UNK A   0     -11.050  13.576  64.432  1.00  0.00    -0.397 A  
HETATM   24  C   UNK A   0     -10.322  14.409  65.288  1.00  0.00    -0.427 A  
HETATM   25  C   UNK A   0      -9.337  12.467  66.330  1.00  0.00    -0.219 A  
HETATM   26  C   UNK A   0     -10.952  12.186  64.571  1.00  0.00    -0.361 A  
HETATM   27  C   UNK A   0      -9.424  13.851  66.201  1.00  0.00    -0.194 A  
BRANCH  24  28
HETATM   28  C   UNK A   0     -10.506  15.879  65.225  1.00  0.00    -0.377 C  
ATOM     29  H   GLU A   1      -9.124  16.156  66.777  1.00  0.00     0.000 HD 
ATOM     30  N   GLU A   1      -9.796  16.617  66.163  1.00  0.00    -0.309 N  
HETATM   31  O   UNK A   0     -11.268  16.383  64.411  1.00  0.00    -0.807 OA 
BRANCH  30  32
ATOM     32  CA  GLU A   1     -10.019  18.071  66.264  1.00  0.00    -0.337 C  
ATOM     33  C   GLU A   1      -8.676  18.807  66.095  1.00  0.00    -0.139 C  
ATOM     34  O   GLU A   1      -7.605  18.041  66.420  1.00  0.00    -0.228 OA 
ATOM     35  OXT GLU A   1      -8.572  20.001  65.850  1.00  0.00    -0.310 OA 
BRANCH  32  36
ATOM     36  CB  GLU A   1     -10.640  18.420  67.626  1.00  0.00    -0.437 C  
BRANCH  36  37
ATOM     37  CG  GLU A   1     -10.034  17.619  68.783  1.00  0.00    -0.358 C  
ATOM     38  CD  GLU A   1     -10.907  16.465  69.207  1.00  0.00    -0.327 C  
ATOM     39  OE2 GLU A   1     -11.987  16.183  68.713  1.00  0.00    -0.286 OA 
ATOM     40  OE1 GLU A   1     -10.351  15.748  70.210  1.00  0.00    -0.286 OA 
ENDBRANCH  36  37
ENDBRANCH  32  36
ENDBRANCH  30  32
ENDBRANCH  24  28
ENDBRANCH  20  22
ENDBRANCH  19  20
ENDBRANCH   4  19
TORSDOF 7
ENDMDL
MODEL        6
REMARK 921   NORMALIZED FREE ENERGY PREDICTED BY IDOCK:   -7.58 KCAL/MOL
REMARK 922        TOTAL FREE ENERGY PREDICTED BY IDOCK:  -11.95 KCAL/MOL
REMARK 923 INTER-LIGAND FREE ENERGY PREDICTED BY IDOCK:  -10.43 KCAL/MOL
REMARK 924 INTRA-LIGAND FREE ENERGY PREDICTED BY IDOCK:   -1.52 KCAL/MOL
REMARK 927      BINDING AFFINITY PREDICTED BY RF-SCORE:    0.00 PKD
ROOT
HETATM    1  C   UNK A   0     -11.823  13.224  67.651  1.00  0.00    -0.357 C  
HETATM    2  N   UNK A   0     -11.436  14.333  66.913  1.00  0.00    -0.346 N  
HETATM    3  O   UNK A   0     -12.132  12.121  67.208  1.00  0.00    -0.565 OA 
HETATM    4  C   UNK A   0     -11.352  14.288  65.407  1.00  0.00    -0.329 C  
HETATM    5  C   UNK A   0     -10.056  15.003  64.958  1.00  0.00    -0.253 C  
HETATM    6  C   UNK A   0     -10.411  18.007  68.618  1.00  0.00    -0.319 C  
HETATM    7  H   UNK A   0     -11.085  17.273  70.411  1.00  0.00     0.000 HD 
HETATM    8  N   UNK A   0     -10.052  16.338  65.531  1.00  0.00    -0.536 NA 
HETATM    9  H   UNK A   0      -9.747  17.127  64.962  1.00  0.00     0.000 HD 
HETATM   10  H2  UNK A   0     -10.346  19.402  70.158  1.00  0.00     0.000 HD 
HETATM   11  C   UNK A   0     -10.456  16.558  66.838  1.00  0.00    -0.282 C  
HETATM   12  O   UNK A   0     -12.298  15.269  69.589  1.00  0.00    -0.286 OA 
HETATM   13  C   UNK A   0     -11.124  15.581  67.511  1.00  0.00    -0.305 C  
HETATM   14  H1  UNK A   0      -9.669  19.894  68.586  1.00  0.00     0.000 HD 
HETATM   15  C   UNK A   0     -11.518  15.931  68.911  1.00  0.00    -0.386 C  
HETATM   16  N   UNK A   0     -10.125  17.774  67.382  1.00  0.00    -0.324 NA 
HETATM   17  N   UNK A   0     -10.122  19.202  69.183  1.00  0.00    -0.539 NA 
HETATM   18  N   UNK A   0     -11.011  17.090  69.410  1.00  0.00    -0.321 N  
ENDROOT
BRANCH   4  19
HETATM   19  C   UNK A   0     -11.441  12.896  64.746  1.00  0.00    -0.321 C  
BRANCH  19  20
HETATM   20  N   UNK A   0     -10.112  12.299  64.538  1.00  0.00    -0.407 NA 
HETATM   21  H   UNK A   0      -9.504  12.604  63.778  1.00  0.00     0.000 HD 
BRANCH  20  22
HETATM   22  C   UNK A   0      -9.716  11.294  65.428  1.00  0.00    -0.231 A  
HETATM   23  C   UNK A   0      -8.560  10.716  67.495  1.00  0.00    -0.122 A  
HETATM   24  C   UNK A   0      -9.093   9.425  67.434  1.00  0.00    -0.141 A  
HETATM   25  C   UNK A   0     -10.136   9.962  65.323  1.00  0.00    -0.227 A  
HETATM   26  C   UNK A   0      -8.866  11.640  66.486  1.00  0.00    -0.188 A  
HETATM   27  C   UNK A   0      -9.837   9.034  66.318  1.00  0.00    -0.361 A  
BRANCH  24  28
HETATM   28  C   UNK A   0      -8.869   8.478  68.552  1.00  0.00    -0.139 C  
ATOM     29  H   GLU A   1     -10.809   8.815  69.274  1.00  0.00     0.000 HD 
ATOM     30  N   GLU A   1      -9.919   8.349  69.452  1.00  0.00    -0.186 N  
HETATM   31  O   UNK A   0      -7.806   7.884  68.671  1.00  0.00    -0.114 OA 
BRANCH  30  32
ATOM     32  CA  GLU A   1      -9.737   7.534  70.669  1.00  0.00    -0.175 C  
ATOM     33  C   GLU A   1     -10.468   6.189  70.496  1.00  0.00    -0.234 C  
ATOM     34  O   GLU A   1     -11.486   6.248  69.601  1.00  0.00    -0.432 OA 
ATOM     35  OXT GLU A   1     -10.273   5.205  71.196  1.00  0.00    -0.210 OA 
BRANCH  32  36
ATOM     36  CB  GLU A   1     -10.290   8.277  71.894  1.00  0.00    -0.324 C  
BRANCH  36  37
ATOM     37  CG  GLU A   1     -11.206   9.448  71.522  1.00  0.00    -0.457 C  
ATOM     38  CD  GLU A   1     -12.667   9.082  71.584  1.00  0.00    -0.358 C  
ATOM     39  OE2 GLU A   1     -13.103   7.981  71.879  1.00  0.00    -0.324 OA 
ATOM     40  OE1 GLU A   1     -13.467  10.129  71.280  1.00  0.00    -0.334 OA 
ENDBRANCH  36  37
ENDBRANCH  32  36
ENDBRANCH  30  32
ENDBRANCH  24  28
ENDBRANCH  20  22
ENDBRANCH  19  20
ENDBRANCH   4  19
TORSDOF 7
ENDMDL
MODEL        7
REMARK 921   NORMALIZED FREE ENERGY PREDICTED BY IDOCK:   -7.58 KCAL/MOL
REMARK 922        TOTAL FREE ENERGY PREDICTED BY IDOCK:  -11.94 KCAL/MOL
REMARK 923 INTER-LIGAND FREE ENERGY PREDICTED BY IDOCK:  -10.84 KCAL/MOL
REMARK 924 INTRA-LIGAND FREE ENERGY PREDICTED BY IDOCK:   -1.10 KCAL/MOL
REMARK 927      BINDING AFFINITY PREDICTED BY RF-SCORE:    0.00 PKD
ROOT
HETATM    1  C   UNK A   0     -10.330   9.638  68.460  1.00  0.00    -0.205 C  
HETATM    2  N   UNK A   0     -11.284   9.607  69.467  1.00  0.00    -0.404 N  
HETATM    3  O   UNK A   0     -10.175  10.525  67.625  1.00  0.00    -0.181 OA 
HETATM    4  C   UNK A   0     -12.281  10.727  69.643  1.00  0.00    -0.254 C  
HETATM    5  C   UNK A   0     -12.404  11.051  71.150  1.00  0.00    -0.359 C  
HETATM    6  C   UNK A   0     -11.642   6.490  72.226  1.00  0.00    -0.292 C  
HETATM    7  H   UNK A   0     -10.282   5.445  71.101  1.00  0.00     0.000 HD 
HETATM    8  N   UNK A   0     -12.734   9.824  71.854  1.00  0.00    -0.404 NA 
HETATM    9  H   UNK A   0     -13.430   9.844  72.599  1.00  0.00     0.000 HD 
HETATM   10  H2  UNK A   0     -11.296   4.564  72.928  1.00  0.00     0.000 HD 
HETATM   11  C   UNK A   0     -12.118   8.626  71.530  1.00  0.00    -0.316 C  
HETATM   12  O   UNK A   0     -10.305   6.842  69.049  1.00  0.00    -0.177 OA 
HETATM   13  C   UNK A   0     -11.409   8.523  70.373  1.00  0.00    -0.182 C  
HETATM   14  H1  UNK A   0     -12.367   5.604  73.900  1.00  0.00     0.000 HD 
HETATM   15  C   UNK A   0     -10.794   7.183  70.122  1.00  0.00    -0.257 C  
HETATM   16  N   UNK A   0     -12.254   7.605  72.438  1.00  0.00    -0.513 NA 
HETATM   17  N   UNK A   0     -11.771   5.453  73.085  1.00  0.00    -0.538 NA 
HETATM   18  N   UNK A   0     -10.851   6.290  71.147  1.00  0.00    -0.254 N  
ENDROOT
BRANCH   4  19
HETATM   19  C   UNK A   0     -12.020  12.022  68.845  1.00  0.00    -0.246 C  
BRANCH  19  20
HETATM   20  N   UNK A   0     -11.204  12.983  69.606  1.00  0.00    -0.477 NA 
HETATM   21  H   UNK A   0     -10.766  12.726  70.490  1.00  0.00     0.000 HD 
BRANCH  20  22
HETATM   22  C   UNK A   0     -11.053  14.264  69.063  1.00  0.00    -0.259 A  
HETATM   23  C   UNK A   0     -10.608  16.627  69.461  1.00  0.00    -0.308 A  
HETATM   24  C   UNK A   0     -10.460  16.832  68.085  1.00  0.00    -0.332 A  
HETATM   25  C   UNK A   0     -11.023  14.519  67.686  1.00  0.00    -0.293 A  
HETATM   26  C   UNK A   0     -10.914  15.346  69.940  1.00  0.00    -0.305 A  
HETATM   27  C   UNK A   0     -10.722  15.787  67.196  1.00  0.00    -0.312 A  
BRANCH  24  28
HETATM   28  C   UNK A   0     -10.024  18.154  67.577  1.00  0.00    -0.332 C  
ATOM     29  H   GLU A   1      -8.009  17.593  67.735  1.00  0.00     0.000 HD 
ATOM     30  N   GLU A   1      -8.651  18.357  67.524  1.00  0.00    -0.256 N  
HETATM   31  O   UNK A   0     -10.841  19.009  67.262  1.00  0.00    -0.472 OA 
BRANCH  30  32
ATOM     32  CA  GLU A   1      -8.126  19.687  67.160  1.00  0.00    -0.282 C  
ATOM     33  C   GLU A   1      -7.440  19.607  65.783  1.00  0.00    -0.290 C  
ATOM     34  O   GLU A   1      -7.006  18.359  65.478  1.00  0.00    -0.485 OA 
ATOM     35  OXT GLU A   1      -7.163  20.579  65.094  1.00  0.00    -0.182 OA 
BRANCH  32  36
ATOM     36  CB  GLU A   1      -7.122  20.170  68.218  1.00  0.00    -0.304 C  
BRANCH  36  37
ATOM     37  CG  GLU A   1      -6.458  19.020  68.983  1.00  0.00    -0.305 C  
ATOM     38  CD  GLU A   1      -5.896  19.458  70.312  1.00  0.00    -0.242 C  
ATOM     39  OE2 GLU A   1      -5.935  20.597  70.750  1.00  0.00    -0.555 OA 
ATOM     40  OE1 GLU A   1      -5.338  18.431  70.992  1.00  0.00    -0.270 OA 
ENDBRANCH  36  37
ENDBRANCH  32  36
ENDBRANCH  30  32
ENDBRANCH  24  28
ENDBRANCH  20  22
ENDBRANCH  19  20
ENDBRANCH   4  19
TORSDOF 7
ENDMDL
MODEL        8
REMARK 921   NORMALIZED FREE ENERGY PREDICTED BY IDOCK:   -7.58 KCAL/MOL
REMARK 922        TOTAL FREE ENERGY PREDICTED BY IDOCK:  -11.94 KCAL/MOL
REMARK 923 INTER-LIGAND FREE ENERGY PREDICTED BY IDOCK:  -10.93 KCAL/MOL
REMARK 924 INTRA-LIGAND FREE ENERGY PREDICTED BY IDOCK:   -1.01 KCAL/MOL
REMARK 927      BINDING AFFINITY PREDICTED BY RF-SCORE:    0.00 PKD
ROOT
HETATM    1  C   UNK A   0      -9.576   7.107  68.824  1.00  0.00    -0.144 C  
HETATM    2  N   UNK A   0     -10.347   7.429  69.932  1.00  0.00    -0.212 N  
HETATM    3  O   UNK A   0      -9.430   7.786  67.811  1.00  0.00    -0.141 OA 
HETATM    4  C   UNK A   0     -11.125   8.720  70.003  1.00  0.00    -0.162 C  
HETATM    5  C   UNK A   0     -10.951   9.330  71.413  1.00  0.00    -0.359 C  
HETATM    6  C   UNK A   0     -10.706   4.977  73.296  1.00  0.00    -0.258 C  
HETATM    7  H   UNK A   0      -9.718   3.522  72.242  1.00  0.00     0.000 HD 
HETATM    8  N   UNK A   0     -11.339   8.328  72.391  1.00  0.00    -0.374 NA 
HETATM    9  H   UNK A   0     -11.894   8.606  73.201  1.00  0.00     0.000 HD 
HETATM   10  H2  UNK A   0     -10.540   3.181  74.327  1.00  0.00     0.000 HD 
HETATM   11  C   UNK A   0     -10.968   7.001  72.244  1.00  0.00    -0.245 C  
HETATM   12  O   UNK A   0      -9.869   4.505  69.967  1.00  0.00    -0.201 OA 
HETATM   13  C   UNK A   0     -10.481   6.566  71.050  1.00  0.00    -0.222 C  
HETATM   14  H1  UNK A   0     -11.271   4.553  75.196  1.00  0.00     0.000 HD 
HETATM   15  C   UNK A   0     -10.121   5.116  71.002  1.00  0.00    -0.227 C  
HETATM   16  N   UNK A   0     -11.104   6.203  73.352  1.00  0.00    -0.458 NA 
HETATM   17  N   UNK A   0     -10.846   4.153  74.360  1.00  0.00    -0.213 NA 
HETATM   18  N   UNK A   0     -10.141   4.448  72.187  1.00  0.00    -0.191 N  
ENDROOT
BRANCH   4  19
HETATM   19  C   UNK A   0     -10.809   9.783  68.928  1.00  0.00    -0.192 C  
BRANCH  19  20
HETATM   20  N   UNK A   0     -12.012  10.530  68.523  1.00  0.00    -0.786 NA 
HETATM   21  H   UNK A   0     -12.890  10.053  68.316  1.00  0.00     0.000 HD 
BRANCH  20  22
HETATM   22  C   UNK A   0     -11.900  11.921  68.434  1.00  0.00    -0.289 A  
HETATM   23  C   UNK A   0     -11.564  14.036  69.600  1.00  0.00    -0.348 A  
HETATM   24  C   UNK A   0     -11.385  14.685  68.374  1.00  0.00    -0.312 A  
HETATM   25  C   UNK A   0     -11.841  12.614  67.218  1.00  0.00    -0.395 A  
HETATM   26  C   UNK A   0     -11.831  12.660  69.622  1.00  0.00    -0.379 A  
HETATM   27  C   UNK A   0     -11.578  13.982  67.182  1.00  0.00    -0.397 A  
BRANCH  24  28
HETATM   28  C   UNK A   0     -10.990  16.113  68.343  1.00  0.00    -0.341 C  
ATOM     29  H   GLU A   1     -10.660  16.016  66.274  1.00  0.00     0.000 HD 
ATOM     30  N   GLU A   1     -10.586  16.601  67.107  1.00  0.00    -0.299 N  
HETATM   31  O   UNK A   0     -10.997  16.790  69.362  1.00  0.00    -0.293 OA 
BRANCH  30  32
ATOM     32  CA  GLU A   1     -10.048  17.971  67.006  1.00  0.00    -0.346 C  
ATOM     33  C   GLU A   1     -10.653  18.668  65.773  1.00  0.00    -0.249 C  
ATOM     34  O   GLU A   1     -11.067  17.797  64.820  1.00  0.00    -0.852 OA 
ATOM     35  OXT GLU A   1     -10.626  19.876  65.583  1.00  0.00    -0.495 OA 
BRANCH  32  36
ATOM     36  CB  GLU A   1      -8.516  17.933  66.888  1.00  0.00    -0.260 C  
BRANCH  36  37
ATOM     37  CG  GLU A   1      -7.806  18.237  68.212  1.00  0.00    -0.310 C  
ATOM     38  CD  GLU A   1      -7.467  19.698  68.363  1.00  0.00    -0.324 C  
ATOM     39  OE2 GLU A   1      -7.704  20.564  67.536  1.00  0.00    -0.319 OA 
ATOM     40  OE1 GLU A   1      -6.865  19.961  69.546  1.00  0.00    -0.336 OA 
ENDBRANCH  36  37
ENDBRANCH  32  36
ENDBRANCH  30  32
ENDBRANCH  24  28
ENDBRANCH  20  22
ENDBRANCH  19  20
ENDBRANCH   4  19
TORSDOF 7
ENDMDL
MODEL        9
REMARK 921   NORMALIZED FREE ENERGY PREDICTED BY IDOCK:   -7.57 KCAL/MOL
REMARK 922        TOTAL FREE ENERGY PREDICTED BY IDOCK:  -11.93 KCAL/MOL
REMARK 923 INTER-LIGAND FREE ENERGY PREDICTED BY IDOCK:  -10.66 KCAL/MOL
REMARK 924 INTRA-LIGAND FREE ENERGY PREDICTED BY IDOCK:   -1.27 KCAL/MOL
REMARK 927      BINDING AFFINITY PREDICTED BY RF-SCORE:    0.00 PKD
ROOT
HETATM    1  C   UNK A   0      -7.837  16.206  68.965  1.00  0.00    -0.227 C  
HETATM    2  N   UNK A   0      -8.616  17.218  68.421  1.00  0.00    -0.245 N  
HETATM    3  O   UNK A   0      -8.193  15.374  69.795  1.00  0.00    -0.209 OA 
HETATM    4  C   UNK A   0     -10.059  17.404  68.822  1.00  0.00    -0.346 C  
HETATM    5  C   UNK A   0     -10.897  17.684  67.553  1.00  0.00    -0.199 C  
HETATM    6  C   UNK A   0      -7.216  19.951  65.588  1.00  0.00    -0.309 C  
HETATM    7  H   UNK A   0      -5.333  19.205  65.917  1.00  0.00     0.000 HD 
HETATM    8  N   UNK A   0     -10.305  18.814  66.858  1.00  0.00    -0.382 NA 
HETATM    9  H   UNK A   0     -10.911  19.531  66.459  1.00  0.00     0.000 HD 
HETATM   10  H2  UNK A   0      -5.735  20.950  64.525  1.00  0.00     0.000 HD 
HETATM   11  C   UNK A   0      -8.930  18.935  66.729  1.00  0.00    -0.313 C  
HETATM   12  O   UNK A   0      -5.770  17.925  67.999  1.00  0.00    -0.154 OA 
HETATM   13  C   UNK A   0      -8.111  18.155  67.485  1.00  0.00    -0.238 C  
HETATM   14  H1  UNK A   0      -7.422  21.434  64.221  1.00  0.00     0.000 HD 
HETATM   15  C   UNK A   0      -6.647  18.377  67.268  1.00  0.00    -0.194 C  
HETATM   16  N   UNK A   0      -8.483  19.846  65.804  1.00  0.00    -0.494 NA 
HETATM   17  N   UNK A   0      -6.735  20.854  64.703  1.00  0.00    -0.531 NA 
HETATM   18  N   UNK A   0      -6.305  19.181  66.226  1.00  0.00    -0.177 N  
ENDROOT
BRANCH   4  19
HETATM   19  C   UNK A   0     -10.707  16.265  69.640  1.00  0.00    -0.338 C  
BRANCH  19  20
HETATM   20  N   UNK A   0     -11.152  15.155  68.781  1.00  0.00    -0.253 NA 
HETATM   21  H   UNK A   0     -11.101  15.216  67.764  1.00  0.00     0.000 HD 
BRANCH  20  22
HETATM   22  C   UNK A   0     -11.648  14.013  69.420  1.00  0.00    -0.297 A  
HETATM   23  C   UNK A   0     -11.649  11.581  69.574  1.00  0.00    -0.400 A  
HETATM   24  C   UNK A   0     -12.348  11.657  70.784  1.00  0.00    -0.454 A  
HETATM   25  C   UNK A   0     -12.453  14.059  70.565  1.00  0.00    -0.429 A  
HETATM   26  C   UNK A   0     -11.313  12.759  68.895  1.00  0.00    -0.344 A  
HETATM   27  C   UNK A   0     -12.796  12.895  71.249  1.00  0.00    -0.361 A  
BRANCH  24  28
HETATM   28  C   UNK A   0     -12.607  10.425  71.567  1.00  0.00    -0.439 C  
ATOM     29  H   GLU A   1     -10.731   9.650  71.041  1.00  0.00     0.000 HD 
ATOM     30  N   GLU A   1     -11.613   9.457  71.516  1.00  0.00    -0.373 N  
HETATM   31  O   UNK A   0     -13.654  10.281  72.185  1.00  0.00    -0.345 OA 
BRANCH  30  32
ATOM     32  CA  GLU A   1     -11.841   8.146  72.152  1.00  0.00    -0.359 C  
ATOM     33  C   GLU A   1     -10.615   7.773  73.008  1.00  0.00    -0.379 C  
ATOM     34  O   GLU A   1      -9.475   8.382  72.597  1.00  0.00    -0.269 OA 
ATOM     35  OXT GLU A   1     -10.614   6.902  73.867  1.00  0.00    -0.369 OA 
BRANCH  32  36
ATOM     36  CB  GLU A   1     -12.081   7.070  71.082  1.00  0.00    -0.412 C  
BRANCH  36  37
ATOM     37  CG  GLU A   1     -11.148   7.207  69.875  1.00  0.00    -0.264 C  
ATOM     38  CD  GLU A   1     -10.203   6.040  69.740  1.00  0.00    -0.205 C  
ATOM     39  OE2 GLU A   1     -10.152   5.086  70.499  1.00  0.00    -0.224 OA 
ATOM     40  OE1 GLU A   1      -9.402   6.157  68.656  1.00  0.00    -0.122 OA 
ENDBRANCH  36  37
ENDBRANCH  32  36
ENDBRANCH  30  32
ENDBRANCH  24  28
ENDBRANCH  20  22
ENDBRANCH  19  20
ENDBRANCH   4  19
TORSDOF 7
ENDMDL
MODEL       10
REMARK 921   NORMALIZED FREE ENERGY PREDICTED BY IDOCK:   -7.56 KCAL/MOL
REMARK 922        TOTAL FREE ENERGY PREDICTED BY IDOCK:  -11.92 KCAL/MOL
REMARK 923 INTER-LIGAND FREE ENERGY PREDICTED BY IDOCK:  -10.59 KCAL/MOL
REMARK 924 INTRA-LIGAND FREE ENERGY PREDICTED BY IDOCK:   -1.32 KCAL/MOL
REMARK 927      BINDING AFFINITY PREDICTED BY RF-SCORE:    0.00 PKD
ROOT
HETATM    1  C   UNK A   0     -11.050  10.699  68.586  1.00  0.00    -0.263 C  
HETATM    2  N   UNK A   0     -11.052  11.604  67.534  1.00  0.00    -0.257 N  
HETATM    3  O   UNK A   0     -11.336  10.937  69.757  1.00  0.00    -0.256 OA 
HETATM    4  C   UNK A   0     -11.429  13.051  67.740  1.00  0.00    -0.316 C  
HETATM    5  C   UNK A   0     -12.349  13.496  66.580  1.00  0.00    -0.327 C  
HETATM    6  C   UNK A   0     -10.053  10.593  63.606  1.00  0.00    -0.245 C  
HETATM    7  H   UNK A   0      -9.438   8.770  64.316  1.00  0.00     0.000 HD 
HETATM    8  N   UNK A   0     -11.670  13.214  65.327  1.00  0.00    -0.329 NA 
HETATM    9  H   UNK A   0     -11.706  13.897  64.571  1.00  0.00     0.000 HD 
HETATM   10  H2  UNK A   0      -9.220   9.375  62.142  1.00  0.00     0.000 HD 
HETATM   11  C   UNK A   0     -10.972  12.031  65.142  1.00  0.00    -0.310 C  
HETATM   12  O   UNK A   0      -9.385   9.286  66.744  1.00  0.00    -0.143 OA 
HETATM   13  C   UNK A   0     -10.677  11.246  66.214  1.00  0.00    -0.257 C  
HETATM   14  H1  UNK A   0      -9.901  10.933  61.613  1.00  0.00     0.000 HD 
HETATM   15  C   UNK A   0      -9.916   9.999  65.898  1.00  0.00    -0.269 C  
HETATM   16  N   UNK A   0     -10.638  11.716  63.848  1.00  0.00    -0.351 NA 
HETATM   17  N   UNK A   0      -9.687  10.258  62.347  1.00  0.00    -0.700 NA 
HETATM   18  N   UNK A   0      -9.770   9.698  64.579  1.00  0.00    -0.393 N  
ENDROOT
BRANCH   4  19
HETATM   19  C   UNK A   0     -12.074  13.417  69.094  1.00  0.00    -0.261 C  
BRANCH  19  20
HETATM   20  N   UNK A   0     -11.172  14.221  69.935  1.00  0.00    -0.427 NA 
HETATM   21  H   UNK A   0     -11.016  13.993  70.917  1.00  0.00     0.000 HD 
BRANCH  20  22
HETATM   22  C   UNK A   0     -10.536  15.310  69.329  1.00  0.00    -0.258 A  
HETATM   23  C   UNK A   0     -10.759  17.499  68.280  1.00  0.00    -0.309 A  
HETATM   24  C   UNK A   0      -9.373  17.672  68.345  1.00  0.00    -0.289 A  
HETATM   25  C   UNK A   0      -9.144  15.454  69.269  1.00  0.00    -0.260 A  
HETATM   26  C   UNK A   0     -11.331  16.314  68.763  1.00  0.00    -0.329 A  
HETATM   27  C   UNK A   0      -8.562  16.625  68.790  1.00  0.00    -0.261 A  
BRANCH  24  28
HETATM   28  C   UNK A   0      -8.769  18.965  67.943  1.00  0.00    -0.298 C  
ATOM     29  H   GLU A   1      -7.314  17.975  66.803  1.00  0.00     0.000 HD 
ATOM     30  N   GLU A   1      -7.632  18.880  67.150  1.00  0.00    -0.228 N  
HETATM   31  O   UNK A   0      -9.242  20.027  68.326  1.00  0.00    -0.289 OA 
BRANCH  30  32
ATOM     32  CA  GLU A   1      -6.886  20.108  66.814  1.00  0.00    -0.230 C  
ATOM     33  C   GLU A   1      -6.610  20.138  65.299  1.00  0.00    -0.295 C  
ATOM     34  O   GLU A   1      -6.606  18.905  64.734  1.00  0.00    -0.501 OA 
ATOM     35  OXT GLU A   1      -6.270  21.138  64.681  1.00  0.00    -0.260 OA 
BRANCH  32  36
ATOM     36  CB  GLU A   1      -5.561  20.154  67.589  1.00  0.00    -0.203 C  
BRANCH  36  37
ATOM     37  CG  GLU A   1      -5.639  21.010  68.858  1.00  0.00    -0.363 C  
ATOM     38  CD  GLU A   1      -5.687  20.178  70.114  1.00  0.00    -0.317 C  
ATOM     39  OE2 GLU A   1      -5.681  18.958  70.150  1.00  0.00    -0.241 OA 
ATOM     40  OE1 GLU A   1      -5.727  20.943  71.230  1.00  0.00    -0.558 OA 
ENDBRANCH  36  37
ENDBRANCH  32  36
ENDBRANCH  30  32
ENDBRANCH  24  28
ENDBRANCH  20  22
ENDBRANCH  19  20
ENDBRANCH   4  19
TORSDOF 7
ENDMDL
MODEL       11
REMARK 921   NORMALIZED FREE ENERGY PREDICTED BY IDOCK:   -7.54 KCAL/MOL
REMARK 922        TOTAL FREE ENERGY PREDICTED BY IDOCK:  -11.90 KCAL/MOL
REMARK 923 INTER-LIGAND FREE ENERGY PREDICTED BY IDOCK:  -10.98 KCAL/MOL
REMARK 924 INTRA-LIGAND FREE ENERGY PREDICTED BY IDOCK:   -0.92 KCAL/MOL
REMARK 927      BINDING AFFINITY PREDICTED BY RF-SCORE:    0.00 PKD
ROOT
HETATM    1  C   UNK A   0     -10.320   9.418  67.324  1.00  0.00    -0.260 C  
HETATM    2  N   UNK A   0     -11.063   9.934  68.377  1.00  0.00    -0.461 N  
HETATM    3  O   UNK A   0     -10.167   9.927  66.218  1.00  0.00    -0.243 OA 
HETATM    4  C   UNK A   0     -11.795  11.248  68.255  1.00  0.00    -0.229 C  
HETATM    5  C   UNK A   0     -11.579  12.061  69.553  1.00  0.00    -0.321 C  
HETATM    6  C   UNK A   0     -11.454   8.046  72.083  1.00  0.00    -0.335 C  
HETATM    7  H   UNK A   0     -10.532   6.410  71.257  1.00  0.00     0.000 HD 
HETATM    8  N   UNK A   0     -11.986  11.237  70.678  1.00  0.00    -0.356 NA 
HETATM    9  H   UNK A   0     -12.519  11.657  71.440  1.00  0.00     0.000 HD 
HETATM   10  H2  UNK A   0     -11.333   6.425  73.378  1.00  0.00     0.000 HD 
HETATM   11  C   UNK A   0     -11.663   9.891  70.733  1.00  0.00    -0.341 C  
HETATM   12  O   UNK A   0     -10.685   7.036  68.859  1.00  0.00    -0.216 OA 
HETATM   13  C   UNK A   0     -11.209   9.260  69.616  1.00  0.00    -0.041 C  
HETATM   14  H1  UNK A   0     -12.004   7.940  74.032  1.00  0.00     0.000 HD 
HETATM   15  C   UNK A   0     -10.899   7.807  69.790  1.00  0.00    -0.209 C  
HETATM   16  N   UNK A   0     -11.809   9.279  71.953  1.00  0.00    -0.370 NA 
HETATM   17  N   UNK A   0     -11.605   7.401  73.263  1.00  0.00    -0.572 NA 
HETATM   18  N   UNK A   0     -10.924   7.332  71.064  1.00  0.00    -0.247 N  
ENDROOT
BRANCH   4  19
HETATM   19  C   UNK A   0     -11.460  12.120  67.025  1.00  0.00    -0.350 C  
BRANCH  19  20
HETATM   20  N   UNK A   0     -12.249  13.363  67.001  1.00  0.00    -0.321 NA 
HETATM   21  H   UNK A   0     -13.268  13.347  67.036  1.00  0.00     0.000 HD 
BRANCH  20  22
HETATM   22  C   UNK A   0     -11.541  14.568  66.928  1.00  0.00    -0.385 A  
HETATM   23  C   UNK A   0     -10.385  16.192  65.525  1.00  0.00    -0.391 A  
HETATM   24  C   UNK A   0     -10.347  17.092  66.596  1.00  0.00    -0.299 A  
HETATM   25  C   UNK A   0     -11.380  15.434  68.016  1.00  0.00    -0.345 A  
HETATM   26  C   UNK A   0     -10.973  14.932  65.701  1.00  0.00    -0.347 A  
HETATM   27  C   UNK A   0     -10.797  16.689  67.856  1.00  0.00    -0.321 A  
BRANCH  24  28
HETATM   28  C   UNK A   0      -9.833  18.466  66.390  1.00  0.00    -0.360 C  
ATOM     29  H   GLU A   1      -7.854  17.785  66.521  1.00  0.00     0.000 HD 
ATOM     30  N   GLU A   1      -8.452  18.608  66.442  1.00  0.00    -0.289 N  
HETATM   31  O   UNK A   0     -10.598  19.406  66.219  1.00  0.00    -0.454 OA 
BRANCH  30  32
ATOM     32  CA  GLU A   1      -7.856  19.956  66.382  1.00  0.00    -0.316 C  
ATOM     33  C   GLU A   1      -6.814  20.005  65.249  1.00  0.00    -0.295 C  
ATOM     34  O   GLU A   1      -6.303  18.786  64.945  1.00  0.00    -0.447 OA 
ATOM     35  OXT GLU A   1      -6.364  21.037  64.772  1.00  0.00    -0.258 OA 
BRANCH  32  36
ATOM     36  CB  GLU A   1      -7.191  20.303  67.723  1.00  0.00    -0.336 C  
BRANCH  36  37
ATOM     37  CG  GLU A   1      -6.696  19.068  68.483  1.00  0.00    -0.293 C  
ATOM     38  CD  GLU A   1      -6.180  19.404  69.859  1.00  0.00    -0.268 C  
ATOM     39  OE2 GLU A   1      -6.133  20.526  70.337  1.00  0.00    -0.484 OA 
ATOM     40  OE1 GLU A   1      -5.771  18.304  70.532  1.00  0.00    -0.220 OA 
ENDBRANCH  36  37
ENDBRANCH  32  36
ENDBRANCH  30  32
ENDBRANCH  24  28
ENDBRANCH  20  22
ENDBRANCH  19  20
ENDBRANCH   4  19
TORSDOF 7
ENDMDL
MODEL       12
REMARK 921   NORMALIZED FREE ENERGY PREDICTED BY IDOCK:   -7.54 KCAL/MOL
REMARK 922        TOTAL FREE ENERGY PREDICTED BY IDOCK:  -11.89 KCAL/MOL
REMARK 923 INTER-LIGAND FREE ENERGY PREDICTED BY IDOCK:  -10.70 KCAL/MOL
REMARK 924 INTRA-LIGAND FREE ENERGY PREDICTED BY IDOCK:   -1.20 KCAL/MOL
REMARK 927      BINDING AFFINITY PREDICTED BY RF-SCORE:    0.00 PKD
ROOT
HETATM    1  C   UNK A   0     -10.935  16.946  69.340  1.00  0.00    -0.081 C  
HETATM    2  N   UNK A   0     -10.425  16.922  68.049  1.00  0.00    -0.332 N  
HETATM    3  O   UNK A   0     -11.698  16.125  69.841  1.00  0.00    -0.300 OA 
HETATM    4  C   UNK A   0     -10.779  15.819  67.082  1.00  0.00    -0.312 C  
HETATM    5  C   UNK A   0      -9.497  15.379  66.338  1.00  0.00    -0.296 C  
HETATM    6  C   UNK A   0      -7.824  19.819  66.531  1.00  0.00    -0.299 C  
HETATM    7  H   UNK A   0      -8.181  20.913  68.229  1.00  0.00     0.000 HD 
HETATM    8  N   UNK A   0      -8.898  16.555  65.730  1.00  0.00    -0.450 NA 
HETATM    9  H   UNK A   0      -8.521  16.494  64.785  1.00  0.00     0.000 HD 
HETATM   10  H2  UNK A   0      -6.885  21.672  66.530  1.00  0.00     0.000 HD 
HETATM   11  C   UNK A   0      -8.831  17.758  66.414  1.00  0.00    -0.231 C  
HETATM   12  O   UNK A   0     -10.160  19.685  69.087  1.00  0.00    -0.438 OA 
HETATM   13  C   UNK A   0      -9.570  17.934  67.544  1.00  0.00    -0.269 C  
HETATM   14  H1  UNK A   0      -6.545  20.587  65.159  1.00  0.00     0.000 HD 
HETATM   15  C   UNK A   0      -9.425  19.273  68.194  1.00  0.00    -0.346 C  
HETATM   16  N   UNK A   0      -7.984  18.707  65.898  1.00  0.00    -0.490 NA 
HETATM   17  N   UNK A   0      -7.017  20.787  66.042  1.00  0.00    -0.485 NA 
HETATM   18  N   UNK A   0      -8.449  20.083  67.701  1.00  0.00    -0.327 N  
ENDROOT
BRANCH   4  19
HETATM   19  C   UNK A   0     -11.498  14.584  67.668  1.00  0.00    -0.353 C  
BRANCH  19  20
HETATM   20  N   UNK A   0     -10.575  13.709  68.409  1.00  0.00    -0.245 NA 
HETATM   21  H   UNK A   0      -9.565  13.853  68.377  1.00  0.00     0.000 HD 
BRANCH  20  22
HETATM   22  C   UNK A   0     -11.141  12.673  69.159  1.00  0.00    -0.195 A  
HETATM   23  C   UNK A   0     -11.189  10.289  69.665  1.00  0.00    -0.322 A  
HETATM   24  C   UNK A   0     -11.992  10.541  70.782  1.00  0.00    -0.472 A  
HETATM   25  C   UNK A   0     -12.045  12.885  70.208  1.00  0.00    -0.377 A  
HETATM   26  C   UNK A   0     -10.777  11.355  68.854  1.00  0.00    -0.248 A  
HETATM   27  C   UNK A   0     -12.463  11.834  71.020  1.00  0.00    -0.411 A  
BRANCH  24  28
HETATM   28  C   UNK A   0     -12.338   9.437  71.709  1.00  0.00    -0.394 C  
ATOM     29  H   GLU A   1     -10.376   8.700  71.622  1.00  0.00     0.000 HD 
ATOM     30  N   GLU A   1     -11.318   8.533  71.977  1.00  0.00    -0.330 N  
HETATM   31  O   UNK A   0     -13.467   9.332  72.170  1.00  0.00    -0.411 OA 
BRANCH  30  32
ATOM     32  CA  GLU A   1     -11.606   7.329  72.780  1.00  0.00    -0.171 C  
ATOM     33  C   GLU A   1     -10.356   6.949  73.597  1.00  0.00    -0.365 C  
ATOM     34  O   GLU A   1      -9.203   7.403  73.046  1.00  0.00    -0.141 OA 
ATOM     35  OXT GLU A   1     -10.364   6.185  74.553  1.00  0.00    -0.305 OA 
BRANCH  32  36
ATOM     36  CB  GLU A   1     -12.008   6.163  71.864  1.00  0.00    -0.278 C  
BRANCH  36  37
ATOM     37  CG  GLU A   1     -11.467   6.308  70.438  1.00  0.00    -0.414 C  
ATOM     38  CD  GLU A   1     -10.347   5.343  70.145  1.00  0.00    -0.290 C  
ATOM     39  OE2 GLU A   1      -9.890   4.535  70.937  1.00  0.00    -0.179 OA 
ATOM     40  OE1 GLU A   1      -9.895   5.458  68.875  1.00  0.00    -0.142 OA 
ENDBRANCH  36  37
ENDBRANCH  32  36
ENDBRANCH  30  32
ENDBRANCH  24  28
ENDBRANCH  20  22
ENDBRANCH  19  20
ENDBRANCH   4  19
TORSDOF 7
ENDMDL
MODEL       13
REMARK 921   NORMALIZED FREE ENERGY PREDICTED BY IDOCK:   -7.51 KCAL/MOL
REMARK 922        TOTAL FREE ENERGY PREDICTED BY IDOCK:  -11.86 KCAL/MOL
REMARK 923 INTER-LIGAND FREE ENERGY PREDICTED BY IDOCK:  -10.88 KCAL/MOL
REMARK 924 INTRA-LIGAND FREE ENERGY PREDICTED BY IDOCK:   -0.97 KCAL/MOL
REMARK 927      BINDING AFFINITY PREDICTED BY RF-SCORE:    0.00 PKD
ROOT
HETATM    1  C   UNK A   0     -10.785   5.616  70.052  1.00  0.00    -0.320 C  
HETATM    2  N   UNK A   0     -10.783   5.640  71.440  1.00  0.00    -0.253 N  
HETATM    3  O   UNK A   0     -11.491   6.291  69.309  1.00  0.00    -0.411 OA 
HETATM    4  C   UNK A   0     -11.703   6.553  72.213  1.00  0.00    -0.281 C  
HETATM    5  C   UNK A   0     -10.908   7.197  73.373  1.00  0.00    -0.319 C  
HETATM    6  C   UNK A   0      -8.284   3.262  73.797  1.00  0.00    -0.074 C  
HETATM    7  H   UNK A   0      -7.751   2.266  72.085  1.00  0.00     0.000 HD 
HETATM    8  N   UNK A   0     -10.304   6.132  74.155  1.00  0.00    -0.300 NA 
HETATM    9  H   UNK A   0     -10.310   6.193  75.173  1.00  0.00     0.000 HD 
HETATM   10  H2  UNK A   0      -6.999   1.665  74.138  1.00  0.00     0.000 HD 
HETATM   11  C   UNK A   0      -9.720   5.035  73.542  1.00  0.00    -0.141 C  
HETATM   12  O   UNK A   0      -9.530   3.101  70.568  1.00  0.00    -0.156 OA 
HETATM   13  C   UNK A   0      -9.949   4.800  72.221  1.00  0.00    -0.178 C  
HETATM   14  H1  UNK A   0      -7.428   2.677  75.539  1.00  0.00     0.000 HD 
HETATM   15  C   UNK A   0      -9.276   3.585  71.667  1.00  0.00    -0.123 C  
HETATM   16  N   UNK A   0      -8.912   4.254  74.330  1.00  0.00    -0.100 NA 
HETATM   17  N   UNK A   0      -7.498   2.455  74.546  1.00  0.00    -0.040 NA 
HETATM   18  N   UNK A   0      -8.376   2.969  72.480  1.00  0.00    -0.070 N  
ENDROOT
BRANCH   4  19
HETATM   19  C   UNK A   0     -12.438   7.646  71.408  1.00  0.00    -0.333 C  
BRANCH  19  20
HETATM   20  N   UNK A   0     -12.479   8.928  72.130  1.00  0.00    -0.380 NA 
HETATM   21  H   UNK A   0     -12.672   8.969  73.131  1.00  0.00     0.000 HD 
BRANCH  20  22
HETATM   22  C   UNK A   0     -12.244  10.089  71.385  1.00  0.00    -0.416 A  
HETATM   23  C   UNK A   0     -11.265  11.088  69.389  1.00  0.00    -0.332 A  
HETATM   24  C   UNK A   0     -11.934  12.286  69.659  1.00  0.00    -0.347 A  
HETATM   25  C   UNK A   0     -12.803  11.334  71.700  1.00  0.00    -0.510 A  
HETATM   26  C   UNK A   0     -11.415  10.000  70.260  1.00  0.00    -0.372 A  
HETATM   27  C   UNK A   0     -12.659  12.424  70.844  1.00  0.00    -0.337 A  
BRANCH  24  28
HETATM   28  C   UNK A   0     -11.873  13.403  68.686  1.00  0.00    -0.362 C  
ATOM     29  H   GLU A   1     -11.800  12.052  67.083  1.00  0.00     0.000 HD 
ATOM     30  N   GLU A   1     -11.751  13.035  67.352  1.00  0.00    -0.361 N  
HETATM   31  O   UNK A   0     -11.898  14.567  69.061  1.00  0.00    -0.299 OA 
BRANCH  30  32
ATOM     32  CA  GLU A   1     -11.548  14.076  66.326  1.00  0.00    -0.369 C  
ATOM     33  C   GLU A   1     -12.469  13.795  65.124  1.00  0.00    -0.450 C  
ATOM     34  O   GLU A   1     -12.820  12.489  65.017  1.00  0.00    -0.742 OA 
ATOM     35  OXT GLU A   1     -12.737  14.613  64.256  1.00  0.00    -0.679 OA 
BRANCH  32  36
ATOM     36  CB  GLU A   1     -10.081  14.093  65.870  1.00  0.00    -0.337 C  
BRANCH  36  37
ATOM     37  CG  GLU A   1      -9.255  15.189  66.552  1.00  0.00    -0.318 C  
ATOM     38  CD  GLU A   1      -9.558  16.563  66.010  1.00  0.00    -0.290 C  
ATOM     39  OE2 GLU A   1     -10.356  16.806  65.119  1.00  0.00    -0.639 OA 
ATOM     40  OE1 GLU A   1      -8.845  17.526  66.637  1.00  0.00    -0.244 OA 
ENDBRANCH  36  37
ENDBRANCH  32  36
ENDBRANCH  30  32
ENDBRANCH  24  28
ENDBRANCH  20  22
ENDBRANCH  19  20
ENDBRANCH   4  19
TORSDOF 7
ENDMDL
MODEL       14
REMARK 921   NORMALIZED FREE ENERGY PREDICTED BY IDOCK:   -7.45 KCAL/MOL
REMARK 922        TOTAL FREE ENERGY PREDICTED BY IDOCK:  -11.77 KCAL/MOL
REMARK 923 INTER-LIGAND FREE ENERGY PREDICTED BY IDOCK:  -10.49 KCAL/MOL
REMARK 924 INTRA-LIGAND FREE ENERGY PREDICTED BY IDOCK:   -1.28 KCAL/MOL
REMARK 927      BINDING AFFINITY PREDICTED BY RF-SCORE:    0.00 PKD
ROOT
HETATM    1  C   UNK A   0      -8.114  11.124  66.442  1.00  0.00    -0.159 C  
HETATM    2  N   UNK A   0      -9.016  10.925  65.407  1.00  0.00    -0.196 N  
HETATM    3  O   UNK A   0      -7.319  10.302  66.889  1.00  0.00    -0.093 OA 
HETATM    4  C   UNK A   0      -9.110   9.602  64.687  1.00  0.00    -0.235 C  
HETATM    5  C   UNK A   0      -9.226   9.867  63.168  1.00  0.00    -0.249 C  
HETATM    6  C   UNK A   0     -11.642  13.865  64.023  1.00  0.00    -0.226 C  
HETATM    7  H   UNK A   0     -11.081  15.009  65.630  1.00  0.00     0.000 HD 
HETATM    8  N   UNK A   0     -10.348  10.763  62.949  1.00  0.00    -0.754 NA 
HETATM    9  H   UNK A   0     -10.981  10.593  62.167  1.00  0.00     0.000 HD 
HETATM   10  H2  UNK A   0     -12.680  15.660  64.161  1.00  0.00     0.000 HD 
HETATM   11  C   UNK A   0     -10.574  11.847  63.783  1.00  0.00    -0.422 C  
HETATM   12  O   UNK A   0      -9.924  13.270  66.973  1.00  0.00    -0.230 OA 
HETATM   13  C   UNK A   0      -9.921  11.927  64.975  1.00  0.00    -0.248 C  
HETATM   14  H1  UNK A   0     -12.999  14.643  62.733  1.00  0.00     0.000 HD 
HETATM   15  C   UNK A   0     -10.247  13.133  65.796  1.00  0.00    -0.289 C  
HETATM   16  N   UNK A   0     -11.449  12.799  63.323  1.00  0.00    -0.782 NA 
HETATM   17  N   UNK A   0     -12.515  14.814  63.615  1.00  0.00    -1.051 NA 
HETATM   18  N   UNK A   0     -10.999  14.092  65.191  1.00  0.00    -0.334 N  
ENDROOT
BRANCH   4  19
HETATM   19  C   UNK A   0      -7.984   8.580  64.958  1.00  0.00    -0.131 C  
BRANCH  19  20
HETATM   20  N   UNK A   0      -8.505   7.209  65.089  1.00  0.00    -0.316 NA 
HETATM   21  H   UNK A   0      -8.410   6.529  64.335  1.00  0.00     0.000 HD 
BRANCH  20  22
HETATM   22  C   UNK A   0      -9.135   6.879  66.294  1.00  0.00    -0.141 A  
HETATM   23  C   UNK A   0      -9.095   6.972  68.729  1.00  0.00    -0.133 A  
HETATM   24  C   UNK A   0     -10.419   6.522  68.769  1.00  0.00    -0.245 A  
HETATM   25  C   UNK A   0     -10.414   6.312  66.364  1.00  0.00    -0.065 A  
HETATM   26  C   UNK A   0      -8.458   7.137  67.492  1.00  0.00    -0.123 A  
HETATM   27  C   UNK A   0     -11.058   6.141  67.588  1.00  0.00    -0.311 A  
BRANCH  24  28
HETATM   28  C   UNK A   0     -11.138   6.454  70.064  1.00  0.00    -0.379 C  
ATOM     29  H   GLU A   1     -11.573   8.503  69.973  1.00  0.00     0.000 HD 
ATOM     30  N   GLU A   1     -11.632   7.660  70.544  1.00  0.00    -0.226 N  
HETATM   31  O   UNK A   0     -11.248   5.395  70.668  1.00  0.00    -0.051 OA 
BRANCH  30  32
ATOM     32  CA  GLU A   1     -12.243   7.713  71.886  1.00  0.00    -0.304 C  
ATOM     33  C   GLU A   1     -13.304   8.830  71.920  1.00  0.00    -0.389 C  
ATOM     34  O   GLU A   1     -13.086   9.799  70.997  1.00  0.00    -0.348 OA 
ATOM     35  OXT GLU A   1     -14.165   8.934  72.782  1.00  0.00    -0.557 OA 
BRANCH  32  36
ATOM     36  CB  GLU A   1     -11.167   7.979  72.950  1.00  0.00    -0.389 C  
BRANCH  36  37
ATOM     37  CG  GLU A   1      -9.896   8.609  72.371  1.00  0.00    -0.315 C  
ATOM     38  CD  GLU A   1      -8.669   8.289  73.188  1.00  0.00    -0.221 C  
ATOM     39  OE2 GLU A   1      -8.660   7.619  74.208  1.00  0.00    -0.224 OA 
ATOM     40  OE1 GLU A   1      -7.548   8.826  72.654  1.00  0.00    -0.353 OA 
ENDBRANCH  36  37
ENDBRANCH  32  36
ENDBRANCH  30  32
ENDBRANCH  24  28
ENDBRANCH  20  22
ENDBRANCH  19  20
ENDBRANCH   4  19
TORSDOF 7
ENDMDL
MODEL       15
REMARK 921   NORMALIZED FREE ENERGY PREDICTED BY IDOCK:   -7.44 KCAL/MOL
REMARK 922        TOTAL FREE ENERGY PREDICTED BY IDOCK:  -11.76 KCAL/MOL
REMARK 923 INTER-LIGAND FREE ENERGY PREDICTED BY IDOCK:  -10.49 KCAL/MOL
REMARK 924 INTRA-LIGAND FREE ENERGY PREDICTED BY IDOCK:   -1.27 KCAL/MOL
REMARK 927      BINDING AFFINITY PREDICTED BY RF-SCORE:    0.00 PKD
ROOT
HETATM    1  C   UNK A   0      -8.606  14.391  67.123  1.00  0.00    -0.218 C  
HETATM    2  N   UNK A   0      -9.617  15.167  66.572  1.00  0.00    -0.254 N  
HETATM    3  O   UNK A   0      -8.562  13.165  67.159  1.00  0.00    -0.197 OA 
HETATM    4  C   UNK A   0     -10.829  14.539  65.927  1.00  0.00    -0.308 C  
HETATM    5  C   UNK A   0     -11.142  15.295  64.615  1.00  0.00    -0.332 C  
HETATM    6  C   UNK A   0      -9.576  19.344  66.538  1.00  0.00    -0.370 C  
HETATM    7  H   UNK A   0      -7.944  19.259  67.777  1.00  0.00     0.000 HD 
HETATM    8  N   UNK A   0     -11.278  16.708  64.926  1.00  0.00    -0.454 NA 
HETATM    9  H   UNK A   0     -12.025  17.248  64.489  1.00  0.00     0.000 HD 
HETATM   10  H2  UNK A   0      -8.913  21.213  67.159  1.00  0.00     0.000 HD 
HETATM   11  C   UNK A   0     -10.409  17.334  65.805  1.00  0.00    -0.234 C  
HETATM   12  O   UNK A   0      -8.073  16.869  68.440  1.00  0.00    -0.216 OA 
HETATM   13  C   UNK A   0      -9.598  16.584  66.601  1.00  0.00    -0.258 C  
HETATM   14  H1  UNK A   0     -10.248  21.174  65.982  1.00  0.00     0.000 HD 
HETATM   15  C   UNK A   0      -8.709  17.365  67.515  1.00  0.00    -0.219 C  
HETATM   16  N   UNK A   0     -10.415  18.707  65.794  1.00  0.00    -0.615 NA 
HETATM   17  N   UNK A   0      -9.568  20.697  66.572  1.00  0.00    -0.644 NA 
HETATM   18  N   UNK A   0      -8.673  18.711  67.320  1.00  0.00    -0.267 N  
ENDROOT
BRANCH   4  19
HETATM   19  C   UNK A   0     -10.766  13.020  65.657  1.00  0.00    -0.275 C  
BRANCH  19  20
HETATM   20  N   UNK A   0     -11.861  12.297  66.326  1.00  0.00    -0.581 NA 
HETATM   21  H   UNK A   0     -12.806  12.290  65.942  1.00  0.00     0.000 HD 
BRANCH  20  22
HETATM   22  C   UNK A   0     -11.549  11.621  67.511  1.00  0.00    -0.272 A  
HETATM   23  C   UNK A   0     -11.674  11.572  69.945  1.00  0.00    -0.420 A  
HETATM   24  C   UNK A   0     -11.231  10.245  69.942  1.00  0.00    -0.360 A  
HETATM   25  C   UNK A   0     -10.990  10.337  67.541  1.00  0.00    -0.344 A  
HETATM   26  C   UNK A   0     -11.820  12.255  68.730  1.00  0.00    -0.356 A  
HETATM   27  C   UNK A   0     -10.839   9.647  68.742  1.00  0.00    -0.199 A  
BRANCH  24  28
HETATM   28  C   UNK A   0     -11.183   9.478  71.209  1.00  0.00    -0.382 C  
ATOM     29  H   GLU A   1      -9.113   9.208  71.011  1.00  0.00     0.000 HD 
ATOM     30  N   GLU A   1      -9.939   8.970  71.560  1.00  0.00    -0.319 N  
HETATM   31  O   UNK A   0     -12.196   9.290  71.871  1.00  0.00    -0.356 OA 
BRANCH  30  32
ATOM     32  CA  GLU A   1      -9.820   8.082  72.732  1.00  0.00    -0.282 C  
ATOM     33  C   GLU A   1      -8.392   8.177  73.302  1.00  0.00    -0.214 C  
ATOM     34  O   GLU A   1      -7.477   8.573  72.383  1.00  0.00    -0.210 OA 
ATOM     35  OXT GLU A   1      -8.069   7.790  74.417  1.00  0.00    -0.192 OA 
BRANCH  32  36
ATOM     36  CB  GLU A   1     -10.129   6.631  72.333  1.00  0.00    -0.184 C  
BRANCH  36  37
ATOM     37  CG  GLU A   1      -9.539   6.245  70.972  1.00  0.00    -0.191 C  
ATOM     38  CD  GLU A   1     -10.590   6.137  69.896  1.00  0.00    -0.265 C  
ATOM     39  OE2 GLU A   1     -11.787   6.315  70.063  1.00  0.00    -0.351 OA 
ATOM     40  OE1 GLU A   1     -10.058   5.824  68.693  1.00  0.00    -0.150 OA 
ENDBRANCH  36  37
ENDBRANCH  32  36
ENDBRANCH  30  32
ENDBRANCH  24  28
ENDBRANCH  20  22
ENDBRANCH  19  20
ENDBRANCH   4  19
TORSDOF 7
ENDMDL
MODEL       16
REMARK 921   NORMALIZED FREE ENERGY PREDICTED BY IDOCK:   -7.41 KCAL/MOL
REMARK 922        TOTAL FREE ENERGY PREDICTED BY IDOCK:  -11.71 KCAL/MOL
REMARK 923 INTER-LIGAND FREE ENERGY PREDICTED BY IDOCK:  -10.82 KCAL/MOL
REMARK 924 INTRA-LIGAND FREE ENERGY PREDICTED BY IDOCK:   -0.89 KCAL/MOL
REMARK 927      BINDING AFFINITY PREDICTED BY RF-SCORE:    0.00 PKD
ROOT
HETATM    1  C   UNK A   0     -13.284   6.722  71.748  1.00  0.00    -0.143 C  
HETATM    2  N   UNK A   0     -12.068   7.283  72.113  1.00  0.00    -0.412 N  
HETATM    3  O   UNK A   0     -14.299   7.327  71.415  1.00  0.00    -0.431 OA 
HETATM    4  C   UNK A   0     -11.866   8.778  72.137  1.00  0.00    -0.366 C  
HETATM    5  C   UNK A   0     -10.491   9.105  71.510  1.00  0.00    -0.352 C  
HETATM    6  C   UNK A   0      -8.717   5.041  73.208  1.00  0.00    -0.111 C  
HETATM    7  H   UNK A   0      -9.925   3.383  73.207  1.00  0.00     0.000 HD 
HETATM    8  N   UNK A   0      -9.477   8.340  72.215  1.00  0.00    -0.243 NA 
HETATM    9  H   UNK A   0      -8.590   8.782  72.453  1.00  0.00     0.000 HD 
HETATM   10  H2  UNK A   0      -7.744   3.310  73.820  1.00  0.00     0.000 HD 
HETATM   11  C   UNK A   0      -9.695   7.018  72.568  1.00  0.00    -0.149 C  
HETATM   12  O   UNK A   0     -12.140   4.504  73.139  1.00  0.00    -0.074 OA 
HETATM   13  C   UNK A   0     -10.953   6.503  72.513  1.00  0.00    -0.248 C  
HETATM   14  H1  UNK A   0      -6.758   4.785  73.664  1.00  0.00     0.000 HD 
HETATM   15  C   UNK A   0     -11.072   5.070  72.924  1.00  0.00    -0.279 C  
HETATM   16  N   UNK A   0      -8.587   6.295  72.939  1.00  0.00    -0.122 NA 
HETATM   17  N   UNK A   0      -7.654   4.301  73.600  1.00  0.00    -0.076 NA 
HETATM   18  N   UNK A   0      -9.905   4.399  73.122  1.00  0.00    -0.134 N  
ENDROOT
BRANCH   4  19
HETATM   19  C   UNK A   0     -12.964   9.640  71.477  1.00  0.00    -0.395 C  
BRANCH  19  20
HETATM   20  N   UNK A   0     -12.925  11.035  71.947  1.00  0.00    -0.444 NA 
HETATM   21  H   UNK A   0     -13.064  11.269  72.930  1.00  0.00     0.000 HD 
BRANCH  20  22
HETATM   22  C   UNK A   0     -12.690  12.026  70.988  1.00  0.00    -0.241 A  
HETATM   23  C   UNK A   0     -12.648  14.404  70.455  1.00  0.00    -0.405 A  
HETATM   24  C   UNK A   0     -11.994  14.124  69.251  1.00  0.00    -0.382 A  
HETATM   25  C   UNK A   0     -12.149  11.761  69.723  1.00  0.00    -0.338 A  
HETATM   26  C   UNK A   0     -13.001  13.352  71.311  1.00  0.00    -0.368 A  
HETATM   27  C   UNK A   0     -11.795  12.797  68.862  1.00  0.00    -0.351 A  
BRANCH  24  28
HETATM   28  C   UNK A   0     -11.514  15.234  68.393  1.00  0.00    -0.345 C  
ATOM     29  H   GLU A   1     -11.507  13.981  66.712  1.00  0.00     0.000 HD 
ATOM     30  N   GLU A   1     -11.270  14.908  67.066  1.00  0.00    -0.339 N  
HETATM   31  O   UNK A   0     -11.322  16.350  68.857  1.00  0.00    -0.332 OA 
BRANCH  30  32
ATOM     32  CA  GLU A   1     -10.663  15.911  66.170  1.00  0.00    -0.271 C  
ATOM     33  C   GLU A   1     -11.384  15.884  64.809  1.00  0.00    -0.309 C  
ATOM     34  O   GLU A   1     -11.980  14.695  64.547  1.00  0.00    -0.444 OA 
ATOM     35  OXT GLU A   1     -11.306  16.772  63.971  1.00  0.00    -1.153 OA 
BRANCH  32  36
ATOM     36  CB  GLU A   1      -9.168  15.617  65.977  1.00  0.00    -0.374 C  
BRANCH  36  37
ATOM     37  CG  GLU A   1      -8.289  16.239  67.067  1.00  0.00    -0.237 C  
ATOM     38  CD  GLU A   1      -7.997  17.696  66.811  1.00  0.00    -0.239 C  
ATOM     39  OE2 GLU A   1      -8.389  18.333  65.846  1.00  0.00    -0.506 OA 
ATOM     40  OE1 GLU A   1      -7.244  18.244  67.792  1.00  0.00    -0.210 OA 
ENDBRANCH  36  37
ENDBRANCH  32  36
ENDBRANCH  30  32
ENDBRANCH  24  28
ENDBRANCH  20  22
ENDBRANCH  19  20
ENDBRANCH   4  19
TORSDOF 7
ENDMDL
MODEL       17
REMARK 921   NORMALIZED FREE ENERGY PREDICTED BY IDOCK:   -7.39 KCAL/MOL
REMARK 922        TOTAL FREE ENERGY PREDICTED BY IDOCK:  -11.68 KCAL/MOL
REMARK 923 INTER-LIGAND FREE ENERGY PREDICTED BY IDOCK:  -10.65 KCAL/MOL
REMARK 924 INTRA-LIGAND FREE ENERGY PREDICTED BY IDOCK:   -1.03 KCAL/MOL
REMARK 927      BINDING AFFINITY PREDICTED BY RF-SCORE:    0.00 PKD
ROOT
HETATM    1  C   UNK A   0      -9.788   7.261  69.750  1.00  0.00    -0.177 C  
HETATM    2  N   UNK A   0     -10.377   6.831  70.931  1.00  0.00    -0.199 N  
HETATM    3  O   UNK A   0      -9.813   8.400  69.293  1.00  0.00    -0.178 OA 
HETATM    4  C   UNK A   0     -11.149   7.777  71.818  1.00  0.00    -0.245 C  
HETATM    5  C   UNK A   0     -10.760   7.509  73.290  1.00  0.00    -0.382 C  
HETATM    6  C   UNK A   0     -10.170   2.897  72.324  1.00  0.00    -0.110 C  
HETATM    7  H   UNK A   0      -9.345   2.385  70.517  1.00  0.00     0.000 HD 
HETATM    8  N   UNK A   0     -10.977   6.099  73.567  1.00  0.00    -0.444 NA 
HETATM    9  H   UNK A   0     -11.399   5.820  74.452  1.00  0.00     0.000 HD 
HETATM   10  H2  UNK A   0      -9.822   0.858  72.124  1.00  0.00     0.000 HD 
HETATM   11  C   UNK A   0     -10.619   5.126  72.648  1.00  0.00    -0.228 C  
HETATM   12  O   UNK A   0      -9.867   4.451  69.242  1.00  0.00    -0.194 OA 
HETATM   13  C   UNK A   0     -10.323   5.483  71.368  1.00  0.00    -0.229 C  
HETATM   14  H1  UNK A   0     -10.422   1.430  73.700  1.00  0.00     0.000 HD 
HETATM   15  C   UNK A   0      -9.958   4.351  70.462  1.00  0.00    -0.185 C  
HETATM   16  N   UNK A   0     -10.568   3.836  73.114  1.00  0.00    -0.174 NA 
HETATM   17  N   UNK A   0     -10.130   1.610  72.740  1.00  0.00    -0.106 NA 
HETATM   18  N   UNK A   0      -9.782   3.137  71.051  1.00  0.00    -0.157 N  
ENDROOT
BRANCH   4  19
HETATM   19  C   UNK A   0     -11.020   9.284  71.506  1.00  0.00    -0.375 C  
BRANCH  19  20
HETATM   20  N   UNK A   0     -12.311   9.878  71.119  1.00  0.00    -0.344 NA 
HETATM   21  H   UNK A   0     -13.196   9.440  71.374  1.00  0.00     0.000 HD 
BRANCH  20  22
HETATM   22  C   UNK A   0     -12.271  11.069  70.386  1.00  0.00    -0.373 A  
HETATM   23  C   UNK A   0     -12.236  13.506  70.422  1.00  0.00    -0.426 A  
HETATM   24  C   UNK A   0     -11.921  13.524  69.060  1.00  0.00    -0.376 A  
HETATM   25  C   UNK A   0     -12.079  11.115  68.999  1.00  0.00    -0.315 A  
HETATM   26  C   UNK A   0     -12.419  12.280  71.075  1.00  0.00    -0.361 A  
HETATM   27  C   UNK A   0     -11.897  12.328  68.338  1.00  0.00    -0.358 A  
BRANCH  24  28
HETATM   28  C   UNK A   0     -11.613  14.808  68.388  1.00  0.00    -0.324 C  
ATOM     29  H   GLU A   1     -11.123  13.804  66.613  1.00  0.00     0.000 HD 
ATOM     30  N   GLU A   1     -11.147  14.710  67.083  1.00  0.00    -0.316 N  
HETATM   31  O   UNK A   0     -11.737  15.873  68.977  1.00  0.00    -0.385 OA 
BRANCH  30  32
ATOM     32  CA  GLU A   1     -10.688  15.923  66.381  1.00  0.00    -0.256 C  
ATOM     33  C   GLU A   1     -11.216  15.907  64.934  1.00  0.00    -0.337 C  
ATOM     34  O   GLU A   1     -11.484  14.658  64.480  1.00  0.00    -0.377 OA 
ATOM     35  OXT GLU A   1     -11.246  16.887  64.201  1.00  0.00    -1.176 OA 
BRANCH  32  36
ATOM     36  CB  GLU A   1      -9.153  15.986  66.378  1.00  0.00    -0.354 C  
BRANCH  36  37
ATOM     37  CG  GLU A   1      -8.586  16.824  67.529  1.00  0.00    -0.203 C  
ATOM     38  CD  GLU A   1      -8.153  18.198  67.086  1.00  0.00    -0.221 C  
ATOM     39  OE2 GLU A   1      -8.220  18.621  65.942  1.00  0.00    -0.488 OA 
ATOM     40  OE1 GLU A   1      -7.680  18.939  68.113  1.00  0.00    -0.269 OA 
ENDBRANCH  36  37
ENDBRANCH  32  36
ENDBRANCH  30  32
ENDBRANCH  24  28
ENDBRANCH  20  22
ENDBRANCH  19  20
ENDBRANCH   4  19
TORSDOF 7
ENDMDL
MODEL       18
REMARK 921   NORMALIZED FREE ENERGY PREDICTED BY IDOCK:   -7.34 KCAL/MOL
REMARK 922        TOTAL FREE ENERGY PREDICTED BY IDOCK:  -11.61 KCAL/MOL
REMARK 923 INTER-LIGAND FREE ENERGY PREDICTED BY IDOCK:  -10.24 KCAL/MOL
REMARK 924 INTRA-LIGAND FREE ENERGY PREDICTED BY IDOCK:   -1.37 KCAL/MOL
REMARK 927      BINDING AFFINITY PREDICTED BY RF-SCORE:    0.00 PKD
ROOT
HETATM    1  C   UNK A   0      -9.614   9.268  70.237  1.00  0.00    -0.235 C  
HETATM    2  N   UNK A   0     -10.809   8.759  70.726  1.00  0.00    -0.224 N  
HETATM    3  O   UNK A   0      -9.463  10.323  69.627  1.00  0.00    -0.211 OA 
HETATM    4  C   UNK A   0     -12.112   9.498  70.547  1.00  0.00    -0.085 C  
HETATM    5  C   UNK A   0     -12.905   9.441  71.873  1.00  0.00    -0.412 C  
HETATM    6  C   UNK A   0     -11.113   5.140  72.792  1.00  0.00    -0.266 C  
HETATM    7  H   UNK A   0      -9.159   4.778  72.283  1.00  0.00     0.000 HD 
HETATM    8  N   UNK A   0     -13.040   8.047  72.261  1.00  0.00    -0.526 NA 
HETATM    9  H   UNK A   0     -13.930   7.714  72.631  1.00  0.00     0.000 HD 
HETATM   10  H2  UNK A   0     -10.431   3.278  73.412  1.00  0.00     0.000 HD 
HETATM   11  C   UNK A   0     -11.981   7.163  72.138  1.00  0.00    -0.266 C  
HETATM   12  O   UNK A   0      -8.869   6.527  70.545  1.00  0.00    -0.148 OA 
HETATM   13  C   UNK A   0     -10.894   7.512  71.396  1.00  0.00    -0.229 C  
HETATM   14  H1  UNK A   0     -12.075   3.748  73.909  1.00  0.00     0.000 HD 
HETATM   15  C   UNK A   0      -9.815   6.479  71.326  1.00  0.00    -0.181 C  
HETATM   16  N   UNK A   0     -12.098   5.972  72.810  1.00  0.00    -0.520 NA 
HETATM   17  N   UNK A   0     -11.201   3.946  73.422  1.00  0.00    -0.234 NA 
HETATM   18  N   UNK A   0      -9.953   5.404  72.148  1.00  0.00    -0.176 N  
ENDROOT
BRANCH   4  19
HETATM   19  C   UNK A   0     -12.023  10.957  70.049  1.00  0.00    -0.350 C  
BRANCH  19  20
HETATM   20  N   UNK A   0     -12.332  11.069  68.614  1.00  0.00    -0.737 NA 
HETATM   21  H   UNK A   0     -12.936  10.394  68.146  1.00  0.00     0.000 HD 
BRANCH  20  22
HETATM   22  C   UNK A   0     -11.760  12.141  67.920  1.00  0.00    -0.336 A  
HETATM   23  C   UNK A   0     -11.106  14.489  67.940  1.00  0.00    -0.290 A  
HETATM   24  C   UNK A   0     -10.395  14.303  66.750  1.00  0.00    -0.274 A  
HETATM   25  C   UNK A   0     -11.147  12.010  66.668  1.00  0.00    -0.358 A  
HETATM   26  C   UNK A   0     -11.793  13.410  68.512  1.00  0.00    -0.401 A  
HETATM   27  C   UNK A   0     -10.462  13.075  66.088  1.00  0.00    -0.289 A  
BRANCH  24  28
HETATM   28  C   UNK A   0      -9.572  15.406  66.199  1.00  0.00    -0.329 C  
ATOM     29  H   GLU A   1      -8.086  15.066  67.639  1.00  0.00     0.000 HD 
ATOM     30  N   GLU A   1      -8.389  15.672  66.876  1.00  0.00    -0.230 N  
HETATM   31  O   UNK A   0      -9.950  16.048  65.228  1.00  0.00    -0.458 OA 
BRANCH  30  32
ATOM     32  CA  GLU A   1      -7.572  16.836  66.483  1.00  0.00    -0.298 C  
ATOM     33  C   GLU A   1      -6.080  16.498  66.663  1.00  0.00     0.145 C  
ATOM     34  O   GLU A   1      -5.864  15.520  67.578  1.00  0.00    -0.250 OA 
ATOM     35  OXT GLU A   1      -5.164  17.138  66.165  1.00  0.00    -0.334 OA 
BRANCH  32  36
ATOM     36  CB  GLU A   1      -7.941  18.057  67.339  1.00  0.00    -0.227 C  
BRANCH  36  37
ATOM     37  CG  GLU A   1      -8.741  19.110  66.567  1.00  0.00    -0.348 C  
ATOM     38  CD  GLU A   1     -10.211  19.078  66.901  1.00  0.00    -0.387 C  
ATOM     39  OE2 GLU A   1     -10.737  18.302  67.683  1.00  0.00    -0.419 OA 
ATOM     40  OE1 GLU A   1     -10.905  20.030  66.235  1.00  0.00    -0.355 OA 
ENDBRANCH  36  37
ENDBRANCH  32  36
ENDBRANCH  30  32
ENDBRANCH  24  28
ENDBRANCH  20  22
ENDBRANCH  19  20
ENDBRANCH   4  19
TORSDOF 7
ENDMDL
MODEL       19
REMARK 921   NORMALIZED FREE ENERGY PREDICTED BY IDOCK:   -7.33 KCAL/MOL
REMARK 922        TOTAL FREE ENERGY PREDICTED BY IDOCK:  -11.60 KCAL/MOL
REMARK 923 INTER-LIGAND FREE ENERGY PREDICTED BY IDOCK:  -10.27 KCAL/MOL
REMARK 924 INTRA-LIGAND FREE ENERGY PREDICTED BY IDOCK:   -1.33 KCAL/MOL
REMARK 927      BINDING AFFINITY PREDICTED BY RF-SCORE:    0.00 PKD
ROOT
HETATM    1  C   UNK A   0     -10.635  16.141  65.817  1.00  0.00    -0.334 C  
HETATM    2  N   UNK A   0     -10.855  15.150  66.764  1.00  0.00    -0.319 N  
HETATM    3  O   UNK A   0     -10.411  15.974  64.622  1.00  0.00    -0.502 OA 
HETATM    4  C   UNK A   0     -10.842  13.687  66.392  1.00  0.00    -0.290 C  
HETATM    5  C   UNK A   0     -12.024  12.983  67.097  1.00  0.00    -0.329 C  
HETATM    6  C   UNK A   0     -11.612  15.928  70.799  1.00  0.00    -0.410 C  
HETATM    7  H   UNK A   0     -11.139  17.889  70.427  1.00  0.00     0.000 HD 
HETATM    8  N   UNK A   0     -11.930  13.252  68.521  1.00  0.00    -0.340 NA 
HETATM    9  H   UNK A   0     -12.114  12.502  69.187  1.00  0.00     0.000 HD 
HETATM   10  H2  UNK A   0     -11.637  17.120  72.501  1.00  0.00     0.000 HD 
HETATM   11  C   UNK A   0     -11.595  14.512  68.991  1.00  0.00    -0.298 C  
HETATM   12  O   UNK A   0     -10.085  17.627  68.194  1.00  0.00    -0.307 OA 
HETATM   13  C   UNK A   0     -11.078  15.435  68.135  1.00  0.00    -0.309 C  
HETATM   14  H1  UNK A   0     -12.153  15.425  72.687  1.00  0.00     0.000 HD 
HETATM   15  C   UNK A   0     -10.745  16.757  68.752  1.00  0.00    -0.341 C  
HETATM   16  N   UNK A   0     -11.836  14.751  70.321  1.00  0.00    -0.283 NA 
HETATM   17  N   UNK A   0     -11.814  16.195  72.109  1.00  0.00    -0.518 NA 
HETATM   18  N   UNK A   0     -11.164  16.948  70.033  1.00  0.00    -0.297 N  
ENDROOT
BRANCH   4  19
HETATM   19  C   UNK A   0     -10.851  13.352  64.885  1.00  0.00    -0.352 C  
BRANCH  19  20
HETATM   20  N   UNK A   0      -9.729  12.476  64.509  1.00  0.00    -0.519 NA 
HETATM   21  H   UNK A   0      -9.167  12.658  63.677  1.00  0.00     0.000 HD 
BRANCH  20  22
HETATM   22  C   UNK A   0      -9.465  11.383  65.342  1.00  0.00    -0.216 A  
HETATM   23  C   UNK A   0      -8.160  10.471  67.187  1.00  0.00    -0.120 A  
HETATM   24  C   UNK A   0      -9.020   9.371  67.255  1.00  0.00    -0.143 A  
HETATM   25  C   UNK A   0     -10.237  10.214  65.347  1.00  0.00    -0.281 A  
HETATM   26  C   UNK A   0      -8.381  11.466  66.225  1.00  0.00    -0.111 A  
HETATM   27  C   UNK A   0     -10.026   9.218  66.298  1.00  0.00    -0.357 A  
BRANCH  24  28
HETATM   28  C   UNK A   0      -8.863   8.374  68.340  1.00  0.00    -0.140 C  
ATOM     29  H   GLU A   1     -10.740   8.881  69.127  1.00  0.00     0.000 HD 
ATOM     30  N   GLU A   1      -9.897   8.324  69.267  1.00  0.00    -0.182 N  
HETATM   31  O   UNK A   0      -7.862   7.674  68.413  1.00  0.00    -0.117 OA 
BRANCH  30  32
ATOM     32  CA  GLU A   1      -9.767   7.459  70.455  1.00  0.00    -0.175 C  
ATOM     33  C   GLU A   1     -10.577   6.167  70.238  1.00  0.00    -0.258 C  
ATOM     34  O   GLU A   1     -11.589   6.317  69.347  1.00  0.00    -0.403 OA 
ATOM     35  OXT GLU A   1     -10.443   5.150  70.905  1.00  0.00    -0.237 OA 
BRANCH  32  36
ATOM     36  CB  GLU A   1     -10.275   8.194  71.705  1.00  0.00    -0.266 C  
BRANCH  36  37
ATOM     37  CG  GLU A   1     -11.095   9.445  71.372  1.00  0.00    -0.450 C  
ATOM     38  CD  GLU A   1     -12.574   9.241  71.586  1.00  0.00    -0.365 C  
ATOM     39  OE2 GLU A   1     -13.092   8.203  71.966  1.00  0.00    -0.321 OA 
ATOM     40  OE1 GLU A   1     -13.286  10.359  71.316  1.00  0.00    -0.374 OA 
ENDBRANCH  36  37
ENDBRANCH  32  36
ENDBRANCH  30  32
ENDBRANCH  24  28
ENDBRANCH  20  22
ENDBRANCH  19  20
ENDBRANCH   4  19
TORSDOF 7
ENDMDL
MODEL       20
REMARK 921   NORMALIZED FREE ENERGY PREDICTED BY IDOCK:   -7.33 KCAL/MOL
REMARK 922        TOTAL FREE ENERGY PREDICTED BY IDOCK:  -11.59 KCAL/MOL
REMARK 923 INTER-LIGAND FREE ENERGY PREDICTED BY IDOCK:  -10.11 KCAL/MOL
REMARK 924 INTRA-LIGAND FREE ENERGY PREDICTED BY IDOCK:   -1.49 KCAL/MOL
REMARK 927      BINDING AFFINITY PREDICTED BY RF-SCORE:    0.00 PKD
ROOT
HETATM    1  C   UNK A   0      -8.759   6.272  70.432  1.00  0.00    -0.146 C  
HETATM    2  N   UNK A   0      -9.318   7.535  70.298  1.00  0.00    -0.161 N  
HETATM    3  O   UNK A   0      -7.734   5.864  69.892  1.00  0.00    -0.084 OA 
HETATM    4  C   UNK A   0      -8.681   8.591  69.427  1.00  0.00    -0.136 C  
HETATM    5  C   UNK A   0      -8.713   9.942  70.178  1.00  0.00    -0.103 C  
HETATM    6  C   UNK A   0     -12.819   8.736  72.235  1.00  0.00    -0.405 C  
HETATM    7  H   UNK A   0     -13.078   6.783  72.806  1.00  0.00     0.000 HD 
HETATM    8  N   UNK A   0     -10.087  10.215  70.563  1.00  0.00    -0.366 NA 
HETATM    9  H   UNK A   0     -10.458  11.160  70.465  1.00  0.00     0.000 HD 
HETATM   10  H2  UNK A   0     -14.591   8.407  73.270  1.00  0.00     0.000 HD 
HETATM   11  C   UNK A   0     -10.903   9.213  71.064  1.00  0.00    -0.291 C  
HETATM   12  O   UNK A   0     -11.420   5.706  71.305  1.00  0.00    -0.112 OA 
HETATM   13  C   UNK A   0     -10.525   7.911  70.939  1.00  0.00    -0.203 C  
HETATM   14  H1  UNK A   0     -14.205  10.090  72.834  1.00  0.00     0.000 HD 
HETATM   15  C   UNK A   0     -11.485   6.915  71.508  1.00  0.00    -0.277 C  
HETATM   16  N   UNK A   0     -12.057   9.620  71.686  1.00  0.00    -0.389 NA 
HETATM   17  N   UNK A   0     -13.977   9.096  72.836  1.00  0.00    -1.053 NA 
HETATM   18  N   UNK A   0     -12.517   7.418  72.239  1.00  0.00    -0.505 N  
ENDROOT
BRANCH   4  19
HETATM   19  C   UNK A   0      -7.252   8.304  68.919  1.00  0.00    -0.078 C  
BRANCH  19  20
HETATM   20  N   UNK A   0      -7.202   8.190  67.452  1.00  0.00    -0.086 NA 
HETATM   21  H   UNK A   0      -6.719   7.416  66.995  1.00  0.00     0.000 HD 
BRANCH  20  22
HETATM   22  C   UNK A   0      -7.846   9.187  66.711  1.00  0.00    -0.101 A  
HETATM   23  C   UNK A   0      -9.660   9.773  65.192  1.00  0.00    -0.356 A  
HETATM   24  C   UNK A   0      -9.394  11.131  65.396  1.00  0.00    -0.243 A  
HETATM   25  C   UNK A   0      -7.520  10.546  66.802  1.00  0.00    -0.115 A  
HETATM   26  C   UNK A   0      -8.878   8.810  65.842  1.00  0.00    -0.222 A  
HETATM   27  C   UNK A   0      -8.289  11.514  66.159  1.00  0.00    -0.018 A  
BRANCH  24  28
HETATM   28  C   UNK A   0     -10.286  12.157  64.805  1.00  0.00    -0.281 C  
ATOM     29  H   GLU A   1      -9.751  13.533  66.294  1.00  0.00     0.000 HD 
ATOM     30  N   GLU A   1     -10.358  13.362  65.493  1.00  0.00    -0.289 N  
HETATM   31  O   UNK A   0     -10.932  11.922  63.793  1.00  0.00    -0.350 OA 
BRANCH  30  32
ATOM     32  CA  GLU A   1     -11.320  14.391  65.056  1.00  0.00    -0.373 C  
ATOM     33  C   GLU A   1     -10.610  15.757  64.987  1.00  0.00    -0.371 C  
ATOM     34  O   GLU A   1      -9.523  15.832  65.793  1.00  0.00    -0.335 OA 
ATOM     35  OXT GLU A   1     -11.053  16.734  64.398  1.00  0.00    -1.072 OA 
BRANCH  32  36
ATOM     36  CB  GLU A   1     -12.502  14.464  66.036  1.00  0.00    -0.305 C  
BRANCH  36  37
ATOM     37  CG  GLU A   1     -12.265  13.664  67.321  1.00  0.00    -0.317 C  
ATOM     38  CD  GLU A   1     -11.816  14.533  68.468  1.00  0.00    -0.320 C  
ATOM     39  OE2 GLU A   1     -11.638  15.739  68.408  1.00  0.00    -0.373 OA 
ATOM     40  OE1 GLU A   1     -11.636  13.822  69.605  1.00  0.00    -0.271 OA 
ENDBRANCH  36  37
ENDBRANCH  32  36
ENDBRANCH  30  32
ENDBRANCH  24  28
ENDBRANCH  20  22
ENDBRANCH  19  20
ENDBRANCH   4  19
TORSDOF 7
ENDMDL
MODEL       21
REMARK 921   NORMALIZED FREE ENERGY PREDICTED BY IDOCK:   -7.27 KCAL/MOL
REMARK 922        TOTAL FREE ENERGY PREDICTED BY IDOCK:  -11.51 KCAL/MOL
REMARK 923 INTER-LIGAND FREE ENERGY PREDICTED BY IDOCK:  -10.59 KCAL/MOL
REMARK 924 INTRA-LIGAND FREE ENERGY PREDICTED BY IDOCK:   -0.92 KCAL/MOL
REMARK 927      BINDING AFFINITY PREDICTED BY RF-SCORE:    0.00 PKD
ROOT
HETATM    1  C   UNK A   0     -12.555   9.447  71.233  1.00  0.00    -0.325 C  
HETATM    2  N   UNK A   0     -11.578   9.059  70.327  1.00  0.00    -0.455 N  
HETATM    3  O   UNK A   0     -13.036  10.569  71.354  1.00  0.00    -0.389 OA 
HETATM    4  C   UNK A   0     -10.979  10.037  69.347  1.00  0.00    -0.244 C  
HETATM    5  C   UNK A   0     -10.869   9.354  67.964  1.00  0.00    -0.139 C  
HETATM    6  C   UNK A   0     -10.075   5.169  70.064  1.00  0.00    -0.275 C  
HETATM    7  H   UNK A   0     -11.102   4.741  71.787  1.00  0.00     0.000 HD 
HETATM    8  N   UNK A   0     -10.123   8.118  68.127  1.00  0.00    -0.191 NA 
HETATM    9  H   UNK A   0      -9.422   7.859  67.432  1.00  0.00     0.000 HD 
HETATM   10  H2  UNK A   0      -9.746   3.240  70.763  1.00  0.00     0.000 HD 
HETATM   11  C   UNK A   0     -10.346   7.284  69.211  1.00  0.00    -0.205 C  
HETATM   12  O   UNK A   0     -11.654   7.053  72.506  1.00  0.00    -0.264 OA 
HETATM   13  C   UNK A   0     -11.058   7.740  70.277  1.00  0.00    -0.234 C  
HETATM   14  H1  UNK A   0      -9.001   3.679  69.206  1.00  0.00     0.000 HD 
HETATM   15  C   UNK A   0     -11.231   6.758  71.392  1.00  0.00    -0.268 C  
HETATM   16  N   UNK A   0      -9.836   6.013  69.118  1.00  0.00    -0.143 NA 
HETATM   17  N   UNK A   0      -9.568   3.916  70.020  1.00  0.00    -0.197 NA 
HETATM   18  N   UNK A   0     -10.828   5.483  71.142  1.00  0.00    -0.214 N  
ENDROOT
BRANCH   4  19
HETATM   19  C   UNK A   0     -11.687  11.402  69.204  1.00  0.00    -0.342 C  
BRANCH  19  20
HETATM   20  N   UNK A   0     -12.114  11.659  67.819  1.00  0.00    -0.579 NA 
HETATM   21  H   UNK A   0     -12.590  10.944  67.268  1.00  0.00     0.000 HD 
BRANCH  20  22
HETATM   22  C   UNK A   0     -11.839  12.925  67.290  1.00  0.00    -0.356 A  
HETATM   23  C   UNK A   0     -11.030  15.189  67.690  1.00  0.00    -0.308 A  
HETATM   24  C   UNK A   0     -10.988  15.419  66.311  1.00  0.00    -0.278 A  
HETATM   25  C   UNK A   0     -11.907  13.220  65.923  1.00  0.00    -0.436 A  
HETATM   26  C   UNK A   0     -11.465  13.947  68.171  1.00  0.00    -0.346 A  
HETATM   27  C   UNK A   0     -11.479  14.452  65.432  1.00  0.00    -0.344 A  
BRANCH  24  28
HETATM   28  C   UNK A   0     -10.423  16.686  65.789  1.00  0.00    -0.311 C  
ATOM     29  H   GLU A   1      -8.929  16.669  67.262  1.00  0.00     0.000 HD 
ATOM     30  N   GLU A   1      -9.344  17.201  66.496  1.00  0.00    -0.255 N  
HETATM   31  O   UNK A   0     -10.913  17.240  64.815  1.00  0.00    -0.950 OA 
BRANCH  30  32
ATOM     32  CA  GLU A   1      -8.801  18.524  66.133  1.00  0.00    -0.111 C  
ATOM     33  C   GLU A   1      -7.322  18.376  65.729  1.00  0.00    -0.141 C  
ATOM     34  O   GLU A   1      -6.729  17.284  66.272  1.00  0.00    -0.241 OA 
ATOM     35  OXT GLU A   1      -6.687  19.224  65.117  1.00  0.00    -0.407 OA 
BRANCH  32  36
ATOM     36  CB  GLU A   1      -8.926  19.494  67.318  1.00  0.00    -0.367 C  
BRANCH  36  37
ATOM     37  CG  GLU A   1      -8.194  19.005  68.572  1.00  0.00    -0.390 C  
ATOM     38  CD  GLU A   1      -6.982  19.840  68.896  1.00  0.00    -0.332 C  
ATOM     39  OE2 GLU A   1      -6.592  20.796  68.244  1.00  0.00    -0.289 OA 
ATOM     40  OE1 GLU A   1      -6.358  19.418  70.020  1.00  0.00    -0.264 OA 
ENDBRANCH  36  37
ENDBRANCH  32  36
ENDBRANCH  30  32
ENDBRANCH  24  28
ENDBRANCH  20  22
ENDBRANCH  19  20
ENDBRANCH   4  19
TORSDOF 7
ENDMDL
MODEL       22
REMARK 921   NORMALIZED FREE ENERGY PREDICTED BY IDOCK:   -7.24 KCAL/MOL
REMARK 922        TOTAL FREE ENERGY PREDICTED BY IDOCK:  -11.47 KCAL/MOL
REMARK 923 INTER-LIGAND FREE ENERGY PREDICTED BY IDOCK:  -10.46 KCAL/MOL
REMARK 924 INTRA-LIGAND FREE ENERGY PREDICTED BY IDOCK:   -1.01 KCAL/MOL
REMARK 927      BINDING AFFINITY PREDICTED BY RF-SCORE:    0.00 PKD
ROOT
HETATM    1  C   UNK A   0     -11.363  14.189  68.389  1.00  0.00    -0.287 C  
HETATM    2  N   UNK A   0     -11.241  15.003  67.270  1.00  0.00    -0.335 N  
HETATM    3  O   UNK A   0     -11.893  13.083  68.434  1.00  0.00    -0.323 OA 
HETATM    4  C   UNK A   0     -11.778  14.579  65.925  1.00  0.00    -0.345 C  
HETATM    5  C   UNK A   0     -10.734  14.928  64.839  1.00  0.00    -0.405 C  
HETATM    6  C   UNK A   0      -9.387  18.747  67.319  1.00  0.00    -0.290 C  
HETATM    7  H   UNK A   0      -9.321  18.598  69.364  1.00  0.00     0.000 HD 
HETATM    8  N   UNK A   0     -10.416  16.341  64.953  1.00  0.00    -0.613 NA 
HETATM    9  H   UNK A   0     -10.319  16.903  64.107  1.00  0.00     0.000 HD 
HETATM   10  H2  UNK A   0      -8.618  20.441  68.245  1.00  0.00     0.000 HD 
HETATM   11  C   UNK A   0     -10.241  16.938  66.191  1.00  0.00    -0.341 C  
HETATM   12  O   UNK A   0     -10.884  16.695  69.676  1.00  0.00    -0.341 OA 
HETATM   13  C   UNK A   0     -10.637  16.285  67.317  1.00  0.00    -0.298 C  
HETATM   14  H1  UNK A   0      -8.608  20.412  66.464  1.00  0.00     0.000 HD 
HETATM   15  C   UNK A   0     -10.407  17.027  68.595  1.00  0.00    -0.351 C  
HETATM   16  N   UNK A   0      -9.643  18.174  66.192  1.00  0.00    -0.494 NA 
HETATM   17  N   UNK A   0      -8.822  19.975  67.361  1.00  0.00    -0.335 NA 
HETATM   18  N   UNK A   0      -9.670  18.167  68.508  1.00  0.00    -0.346 N  
ENDROOT
BRANCH   4  19
HETATM   19  C   UNK A   0     -12.213  13.104  65.782  1.00  0.00    -0.456 C  
BRANCH  19  20
HETATM   20  N   UNK A   0     -11.393  12.381  64.797  1.00  0.00    -0.305 NA 
HETATM   21  H   UNK A   0     -11.347  12.678  63.822  1.00  0.00     0.000 HD 
BRANCH  20  22
HETATM   22  C   UNK A   0     -10.679  11.268  65.254  1.00  0.00    -0.237 A  
HETATM   23  C   UNK A   0     -10.301   9.663  67.049  1.00  0.00    -0.315 A  
HETATM   24  C   UNK A   0      -9.519   8.884  66.190  1.00  0.00    -0.318 A  
HETATM   25  C   UNK A   0      -9.793  10.537  64.452  1.00  0.00    -0.405 A  
HETATM   26  C   UNK A   0     -10.867  10.856  66.579  1.00  0.00    -0.234 A  
HETATM   27  C   UNK A   0      -9.223   9.351  64.907  1.00  0.00    -0.246 A  
BRANCH  24  28
HETATM   28  C   UNK A   0      -9.012   7.566  66.641  1.00  0.00    -0.153 C  
ATOM     29  H   GLU A   1     -10.938   6.985  67.233  1.00  0.00     0.000 HD 
ATOM     30  N   GLU A   1      -9.952   6.724  67.222  1.00  0.00    -0.145 N  
HETATM   31  O   UNK A   0      -7.828   7.275  66.529  1.00  0.00    -0.104 OA 
BRANCH  30  32
ATOM     32  CA  GLU A   1      -9.515   5.450  67.822  1.00  0.00    -0.120 C  
ATOM     33  C   GLU A   1      -9.758   4.304  66.822  1.00  0.00    -0.219 C  
ATOM     34  O   GLU A   1     -10.735   4.581  65.923  1.00  0.00    -0.267 OA 
ATOM     35  OXT GLU A   1      -9.250   3.194  66.908  1.00  0.00    -0.164 OA 
BRANCH  32  36
ATOM     36  CB  GLU A   1     -10.286   5.182  69.123  1.00  0.00    -0.259 C  
BRANCH  36  37
ATOM     37  CG  GLU A   1     -11.270   6.302  69.477  1.00  0.00    -0.500 C  
ATOM     38  CD  GLU A   1     -11.518   6.407  70.960  1.00  0.00    -0.334 C  
ATOM     39  OE2 GLU A   1     -11.018   5.686  71.809  1.00  0.00    -0.256 OA 
ATOM     40  OE1 GLU A   1     -12.367   7.416  71.264  1.00  0.00    -0.327 OA 
ENDBRANCH  36  37
ENDBRANCH  32  36
ENDBRANCH  30  32
ENDBRANCH  24  28
ENDBRANCH  20  22
ENDBRANCH  19  20
ENDBRANCH   4  19
TORSDOF 7
ENDMDL
MODEL       23
REMARK 921   NORMALIZED FREE ENERGY PREDICTED BY IDOCK:   -7.21 KCAL/MOL
REMARK 922        TOTAL FREE ENERGY PREDICTED BY IDOCK:  -11.42 KCAL/MOL
REMARK 923 INTER-LIGAND FREE ENERGY PREDICTED BY IDOCK:   -9.82 KCAL/MOL
REMARK 924 INTRA-LIGAND FREE ENERGY PREDICTED BY IDOCK:   -1.60 KCAL/MOL
REMARK 927      BINDING AFFINITY PREDICTED BY RF-SCORE:    0.00 PKD
ROOT
HETATM    1  C   UNK A   0      -8.881  10.042  69.521  1.00  0.00    -0.195 C  
HETATM    2  N   UNK A   0      -9.465   8.824  69.199  1.00  0.00    -0.156 N  
HETATM    3  O   UNK A   0      -8.316  10.810  68.747  1.00  0.00    -0.132 OA 
HETATM    4  C   UNK A   0      -9.462   8.297  67.785  1.00  0.00    -0.149 C  
HETATM    5  C   UNK A   0     -10.859   7.716  67.467  1.00  0.00    -0.135 C  
HETATM    6  C   UNK A   0     -11.354   6.353  71.988  1.00  0.00    -0.294 C  
HETATM    7  H   UNK A   0     -10.626   7.587  73.456  1.00  0.00     0.000 HD 
HETATM    8  N   UNK A   0     -11.184   6.732  68.485  1.00  0.00    -0.542 NA 
HETATM    9  H   UNK A   0     -11.626   5.855  68.212  1.00  0.00     0.000 HD 
HETATM   10  H2  UNK A   0     -11.799   5.701  73.911  1.00  0.00     0.000 HD 
HETATM   11  C   UNK A   0     -10.903   6.965  69.822  1.00  0.00    -0.259 C  
HETATM   12  O   UNK A   0      -8.963   8.857  72.119  1.00  0.00    -0.381 OA 
HETATM   13  C   UNK A   0     -10.072   7.986  70.168  1.00  0.00    -0.194 C  
HETATM   14  H1  UNK A   0     -12.489   4.772  72.557  1.00  0.00     0.000 HD 
HETATM   15  C   UNK A   0      -9.834   8.140  71.637  1.00  0.00    -0.182 C  
HETATM   16  N   UNK A   0     -11.520   6.138  70.727  1.00  0.00    -0.304 NA 
HETATM   17  N   UNK A   0     -11.925   5.545  72.911  1.00  0.00    -0.530 NA 
HETATM   18  N   UNK A   0     -10.608   7.378  72.458  1.00  0.00    -0.240 N  
ENDROOT
BRANCH   4  19
HETATM   19  C   UNK A   0      -9.036   9.284  66.676  1.00  0.00    -0.143 C  
BRANCH  19  20
HETATM   20  N   UNK A   0     -10.197   9.905  66.017  1.00  0.00    -0.235 NA 
HETATM   21  H   UNK A   0     -10.773   9.386  65.354  1.00  0.00     0.000 HD 
BRANCH  20  22
HETATM   22  C   UNK A   0     -10.476  11.238  66.339  1.00  0.00    -0.257 A  
HETATM   23  C   UNK A   0     -11.664  12.798  67.786  1.00  0.00    -0.412 A  
HETATM   24  C   UNK A   0     -10.911  13.856  67.266  1.00  0.00    -0.299 A  
HETATM   25  C   UNK A   0      -9.825  12.326  65.746  1.00  0.00    -0.260 A  
HETATM   26  C   UNK A   0     -11.449  11.497  67.312  1.00  0.00    -0.338 A  
HETATM   27  C   UNK A   0     -10.030  13.625  66.207  1.00  0.00    -0.305 A  
BRANCH  24  28
HETATM   28  C   UNK A   0     -11.049  15.215  67.840  1.00  0.00    -0.321 C  
ATOM     29  H   GLU A   1      -9.488  15.924  66.633  1.00  0.00     0.000 HD 
ATOM     30  N   GLU A   1     -10.136  16.158  67.385  1.00  0.00    -0.252 N  
HETATM   31  O   UNK A   0     -11.900  15.459  68.685  1.00  0.00    -0.346 OA 
BRANCH  30  32
ATOM     32  CA  GLU A   1     -10.109  17.500  67.998  1.00  0.00    -0.332 C  
ATOM     33  C   GLU A   1     -10.607  18.538  66.975  1.00  0.00    -0.380 C  
ATOM     34  O   GLU A   1     -10.446  18.138  65.689  1.00  0.00    -0.626 OA 
ATOM     35  OXT GLU A   1     -10.964  19.672  67.264  1.00  0.00    -0.464 OA 
BRANCH  32  36
ATOM     36  CB  GLU A   1      -8.682  17.850  68.448  1.00  0.00    -0.296 C  
BRANCH  36  37
ATOM     37  CG  GLU A   1      -7.614  16.968  67.794  1.00  0.00    -0.180 C  
ATOM     38  CD  GLU A   1      -6.932  17.649  66.635  1.00  0.00    -0.222 C  
ATOM     39  OE2 GLU A   1      -7.190  18.772  66.229  1.00  0.00    -0.227 OA 
ATOM     40  OE1 GLU A   1      -5.972  16.874  66.081  1.00  0.00    -0.232 OA 
ENDBRANCH  36  37
ENDBRANCH  32  36
ENDBRANCH  30  32
ENDBRANCH  24  28
ENDBRANCH  20  22
ENDBRANCH  19  20
ENDBRANCH   4  19
TORSDOF 7
ENDMDL
MODEL       24
REMARK 921   NORMALIZED FREE ENERGY PREDICTED BY IDOCK:   -7.17 KCAL/MOL
REMARK 922        TOTAL FREE ENERGY PREDICTED BY IDOCK:  -11.37 KCAL/MOL
REMARK 923 INTER-LIGAND FREE ENERGY PREDICTED BY IDOCK:  -10.63 KCAL/MOL
REMARK 924 INTRA-LIGAND FREE ENERGY PREDICTED BY IDOCK:   -0.74 KCAL/MOL
REMARK 927      BINDING AFFINITY PREDICTED BY RF-SCORE:    0.00 PKD
ROOT
HETATM    1  C   UNK A   0      -7.810   5.576  69.848  1.00  0.00    -0.082 C  
HETATM    2  N   UNK A   0      -8.938   5.984  69.149  1.00  0.00    -0.124 N  
HETATM    3  O   UNK A   0      -7.443   5.983  70.947  1.00  0.00    -0.086 OA 
HETATM    4  C   UNK A   0      -9.876   7.027  69.706  1.00  0.00    -0.169 C  
HETATM    5  C   UNK A   0     -11.332   6.569  69.463  1.00  0.00    -0.357 C  
HETATM    6  C   UNK A   0     -10.024   4.465  65.412  1.00  0.00    -0.218 C  
HETATM    7  H   UNK A   0      -8.204   3.520  65.357  1.00  0.00     0.000 HD 
HETATM    8  N   UNK A   0     -11.492   6.298  68.045  1.00  0.00    -0.495 NA 
HETATM    9  H   UNK A   0     -12.342   6.601  67.569  1.00  0.00     0.000 HD 
HETATM   10  H2  UNK A   0      -9.674   3.452  63.631  1.00  0.00     0.000 HD 
HETATM   11  C   UNK A   0     -10.509   5.636  67.327  1.00  0.00    -0.258 C  
HETATM   12  O   UNK A   0      -7.081   4.707  67.226  1.00  0.00    -0.063 OA 
HETATM   13  C   UNK A   0      -9.269   5.479  67.867  1.00  0.00    -0.108 C  
HETATM   14  H1  UNK A   0     -11.274   4.206  63.837  1.00  0.00     0.000 HD 
HETATM   15  C   UNK A   0      -8.287   4.757  67.001  1.00  0.00    -0.106 C  
HETATM   16  N   UNK A   0     -10.874   5.153  66.094  1.00  0.00    -0.687 NA 
HETATM   17  N   UNK A   0     -10.338   3.994  64.184  1.00  0.00    -0.365 NA 
HETATM   18  N   UNK A   0      -8.784   4.183  65.872  1.00  0.00    -0.114 N  
ENDROOT
BRANCH   4  19
HETATM   19  C   UNK A   0      -9.686   7.413  71.190  1.00  0.00    -0.163 C  
BRANCH  19  20
HETATM   20  N   UNK A   0      -9.517   8.865  71.363  1.00  0.00    -0.260 NA 
HETATM   21  H   UNK A   0      -9.085   9.254  72.201  1.00  0.00     0.000 HD 
BRANCH  20  22
HETATM   22  C   UNK A   0      -9.974   9.689  70.329  1.00  0.00    -0.270 A  
HETATM   23  C   UNK A   0     -11.818  10.976  69.386  1.00  0.00    -0.407 A  
HETATM   24  C   UNK A   0     -10.940  11.564  68.470  1.00  0.00    -0.268 A  
HETATM   25  C   UNK A   0      -9.142  10.197  69.323  1.00  0.00    -0.208 A  
HETATM   26  C   UNK A   0     -11.331  10.034  70.304  1.00  0.00    -0.376 A  
HETATM   27  C   UNK A   0      -9.614  11.132  68.404  1.00  0.00    -0.192 A  
BRANCH  24  28
HETATM   28  C   UNK A   0     -11.420  12.643  67.574  1.00  0.00    -0.340 C  
ATOM     29  H   GLU A   1     -10.625  11.658  65.901  1.00  0.00     0.000 HD 
ATOM     30  N   GLU A   1     -11.086  12.506  66.232  1.00  0.00    -0.283 N  
HETATM   31  O   UNK A   0     -12.041  13.600  68.017  1.00  0.00    -0.354 OA 
BRANCH  30  32
ATOM     32  CA  GLU A   1     -11.403  13.595  65.289  1.00  0.00    -0.296 C  
ATOM     33  C   GLU A   1     -11.881  12.992  63.954  1.00  0.00    -0.477 C  
ATOM     34  O   GLU A   1     -11.424  11.732  63.746  1.00  0.00    -0.397 OA 
ATOM     35  OXT GLU A   1     -12.475  13.620  63.089  1.00  0.00    -0.786 OA 
BRANCH  32  36
ATOM     36  CB  GLU A   1     -10.164  14.472  65.054  1.00  0.00    -0.398 C  
BRANCH  36  37
ATOM     37  CG  GLU A   1     -10.070  15.649  66.031  1.00  0.00    -0.355 C  
ATOM     38  CD  GLU A   1     -10.756  16.887  65.513  1.00  0.00    -0.163 C  
ATOM     39  OE2 GLU A   1     -11.320  16.978  64.434  1.00  0.00    -1.140 OA 
ATOM     40  OE1 GLU A   1     -10.692  17.911  66.394  1.00  0.00    -0.263 OA 
ENDBRANCH  36  37
ENDBRANCH  32  36
ENDBRANCH  30  32
ENDBRANCH  24  28
ENDBRANCH  20  22
ENDBRANCH  19  20
ENDBRANCH   4  19
TORSDOF 7
ENDMDL
MODEL       25
REMARK 921   NORMALIZED FREE ENERGY PREDICTED BY IDOCK:   -7.16 KCAL/MOL
REMARK 922        TOTAL FREE ENERGY PREDICTED BY IDOCK:  -11.36 KCAL/MOL
REMARK 923 INTER-LIGAND FREE ENERGY PREDICTED BY IDOCK:  -10.58 KCAL/MOL
REMARK 924 INTRA-LIGAND FREE ENERGY PREDICTED BY IDOCK:   -0.78 KCAL/MOL
REMARK 927      BINDING AFFINITY PREDICTED BY RF-SCORE:    0.00 PKD
ROOT
HETATM    1  C   UNK A   0     -12.798   7.050  71.630  1.00  0.00    -0.364 C  
HETATM    2  N   UNK A   0     -11.593   7.682  71.905  1.00  0.00    -0.270 N  
HETATM    3  O   UNK A   0     -13.827   7.582  71.223  1.00  0.00    -0.347 OA 
HETATM    4  C   UNK A   0     -11.422   9.169  71.715  1.00  0.00    -0.381 C  
HETATM    5  C   UNK A   0     -10.057   9.432  71.038  1.00  0.00    -0.283 C  
HETATM    6  C   UNK A   0      -8.191   5.685  73.281  1.00  0.00    -0.117 C  
HETATM    7  H   UNK A   0      -9.364   4.020  73.524  1.00  0.00     0.000 HD 
HETATM    8  N   UNK A   0      -9.024   8.794  71.837  1.00  0.00    -0.337 NA 
HETATM    9  H   UNK A   0      -8.145   9.284  72.004  1.00  0.00     0.000 HD 
HETATM   10  H2  UNK A   0      -7.179   4.079  74.125  1.00  0.00     0.000 HD 
HETATM   11  C   UNK A   0      -9.213   7.532  72.375  1.00  0.00    -0.147 C  
HETATM   12  O   UNK A   0     -11.602   5.076  73.313  1.00  0.00    -0.322 OA 
HETATM   13  C   UNK A   0     -10.461   6.990  72.403  1.00  0.00    -0.209 C  
HETATM   14  H1  UNK A   0      -6.226   5.537  73.756  1.00  0.00     0.000 HD 
HETATM   15  C   UNK A   0     -10.547   5.627  73.013  1.00  0.00    -0.242 C  
HETATM   16  N   UNK A   0      -8.089   6.892  72.836  1.00  0.00    -0.107 NA 
HETATM   17  N   UNK A   0      -7.111   5.031  73.767  1.00  0.00    -0.080 NA 
HETATM   18  N   UNK A   0      -9.365   5.014  73.295  1.00  0.00    -0.131 N  
ENDROOT
BRANCH   4  19
HETATM   19  C   UNK A   0     -12.541   9.907  70.948  1.00  0.00    -0.302 C  
BRANCH  19  20
HETATM   20  N   UNK A   0     -12.101  10.334  69.609  1.00  0.00    -0.505 NA 
HETATM   21  H   UNK A   0     -11.890   9.656  68.877  1.00  0.00     0.000 HD 
BRANCH  20  22
HETATM   22  C   UNK A   0     -11.984  11.710  69.385  1.00  0.00    -0.316 A  
HETATM   23  C   UNK A   0     -11.926  13.952  70.340  1.00  0.00    -0.393 A  
HETATM   24  C   UNK A   0     -11.493  14.465  69.113  1.00  0.00    -0.328 A  
HETATM   25  C   UNK A   0     -11.671  12.264  68.137  1.00  0.00    -0.408 A  
HETATM   26  C   UNK A   0     -12.179  12.580  70.465  1.00  0.00    -0.382 A  
HETATM   27  C   UNK A   0     -11.419  13.627  67.998  1.00  0.00    -0.345 A  
BRANCH  24  28
HETATM   28  C   UNK A   0     -11.113  15.894  69.000  1.00  0.00    -0.294 C  
ATOM     29  H   GLU A   1     -10.929  15.719  66.919  1.00  0.00     0.000 HD 
ATOM     30  N   GLU A   1     -10.801  16.336  67.721  1.00  0.00    -0.330 N  
HETATM   31  O   UNK A   0     -11.054  16.609  69.991  1.00  0.00    -0.312 OA 
BRANCH  30  32
ATOM     32  CA  GLU A   1     -10.283  17.704  67.531  1.00  0.00    -0.348 C  
ATOM     33  C   GLU A   1     -10.528  18.145  66.076  1.00  0.00    -0.335 C  
ATOM     34  O   GLU A   1     -10.640  17.102  65.215  1.00  0.00    -0.662 OA 
ATOM     35  OXT GLU A   1     -10.472  19.304  65.689  1.00  0.00    -0.502 OA 
BRANCH  32  36
ATOM     36  CB  GLU A   1      -8.781  17.752  67.847  1.00  0.00    -0.251 C  
BRANCH  36  37
ATOM     37  CG  GLU A   1      -8.380  18.984  68.666  1.00  0.00    -0.397 C  
ATOM     38  CD  GLU A   1      -6.952  18.921  69.143  1.00  0.00    -0.281 C  
ATOM     39  OE2 GLU A   1      -6.180  18.000  68.931  1.00  0.00    -0.198 OA 
ATOM     40  OE1 GLU A   1      -6.599  20.025  69.842  1.00  0.00    -0.350 OA 
ENDBRANCH  36  37
ENDBRANCH  32  36
ENDBRANCH  30  32
ENDBRANCH  24  28
ENDBRANCH  20  22
ENDBRANCH  19  20
ENDBRANCH   4  19
TORSDOF 7
ENDMDL
MODEL       26
REMARK 921   NORMALIZED FREE ENERGY PREDICTED BY IDOCK:   -7.14 KCAL/MOL
REMARK 922        TOTAL FREE ENERGY PREDICTED BY IDOCK:  -11.33 KCAL/MOL
REMARK 923 INTER-LIGAND FREE ENERGY PREDICTED BY IDOCK:  -10.35 KCAL/MOL
REMARK 924 INTRA-LIGAND FREE ENERGY PREDICTED BY IDOCK:   -0.99 KCAL/MOL
REMARK 927      BINDING AFFINITY PREDICTED BY RF-SCORE:    0.00 PKD
ROOT
HETATM    1  C   UNK A   0     -10.311   8.788  67.116  1.00  0.00    -0.293 C  
HETATM    2  N   UNK A   0     -10.884   9.525  68.143  1.00  0.00    -0.430 N  
HETATM    3  O   UNK A   0     -10.141   9.156  65.957  1.00  0.00    -0.284 OA 
HETATM    4  C   UNK A   0     -11.380  10.933  67.921  1.00  0.00    -0.308 C  
HETATM    5  C   UNK A   0     -10.944  11.810  69.117  1.00  0.00    -0.209 C  
HETATM    6  C   UNK A   0     -11.365   8.090  72.037  1.00  0.00    -0.302 C  
HETATM    7  H   UNK A   0     -10.799   6.246  71.342  1.00  0.00     0.000 HD 
HETATM    8  N   UNK A   0     -11.417  11.181  70.338  1.00  0.00    -0.469 NA 
HETATM    9  H   UNK A   0     -11.819  11.759  71.076  1.00  0.00     0.000 HD 
HETATM   10  H2  UNK A   0     -11.449   6.601  73.485  1.00  0.00     0.000 HD 
HETATM   11  C   UNK A   0     -11.332   9.810  70.516  1.00  0.00    -0.314 C  
HETATM   12  O   UNK A   0     -10.990   6.664  68.902  1.00  0.00    -0.263 OA 
HETATM   13  C   UNK A   0     -11.067   9.006  69.450  1.00  0.00     0.018 C  
HETATM   14  H1  UNK A   0     -11.802   8.266  74.009  1.00  0.00     0.000 HD 
HETATM   15  C   UNK A   0     -11.007   7.544  69.757  1.00  0.00    -0.184 C  
HETATM   16  N   UNK A   0     -11.506   9.350  71.798  1.00  0.00    -0.386 NA 
HETATM   17  N   UNK A   0     -11.552   7.595  73.282  1.00  0.00    -0.629 NA 
HETATM   18  N   UNK A   0     -11.034   7.201  71.074  1.00  0.00    -0.247 N  
ENDROOT
BRANCH   4  19
HETATM   19  C   UNK A   0     -10.976  11.612  66.594  1.00  0.00    -0.299 C  
BRANCH  19  20
HETATM   20  N   UNK A   0      -9.537  11.925  66.552  1.00  0.00    -0.208 NA 
HETATM   21  H   UNK A   0      -8.836  11.190  66.462  1.00  0.00     0.000 HD 
BRANCH  20  22
HETATM   22  C   UNK A   0      -9.174  13.273  66.640  1.00  0.00    -0.215 A  
HETATM   23  C   UNK A   0      -7.510  14.914  67.332  1.00  0.00    -0.228 A  
HETATM   24  C   UNK A   0      -8.200  15.911  66.635  1.00  0.00    -0.317 A  
HETATM   25  C   UNK A   0      -9.913  14.310  66.056  1.00  0.00    -0.337 A  
HETATM   26  C   UNK A   0      -8.006  13.603  67.339  1.00  0.00    -0.177 A  
HETATM   27  C   UNK A   0      -9.431  15.617  66.043  1.00  0.00    -0.390 A  
BRANCH  24  28
HETATM   28  C   UNK A   0      -7.624  17.272  66.526  1.00  0.00    -0.288 C  
ATOM     29  H   GLU A   1      -7.927  17.604  68.574  1.00  0.00     0.000 HD 
ATOM     30  N   GLU A   1      -7.629  18.024  67.694  1.00  0.00    -0.215 N  
HETATM   31  O   UNK A   0      -7.207  17.695  65.456  1.00  0.00    -0.406 OA 
BRANCH  30  32
ATOM     32  CA  GLU A   1      -7.201  19.435  67.651  1.00  0.00    -0.233 C  
ATOM     33  C   GLU A   1      -6.303  19.734  68.867  1.00  0.00    -0.295 C  
ATOM     34  O   GLU A   1      -6.527  18.897  69.911  1.00  0.00    -0.201 OA 
ATOM     35  OXT GLU A   1      -5.576  20.712  68.962  1.00  0.00    -0.292 OA 
BRANCH  32  36
ATOM     36  CB  GLU A   1      -8.425  20.363  67.663  1.00  0.00    -0.291 C  
BRANCH  36  37
ATOM     37  CG  GLU A   1      -9.182  20.373  66.331  1.00  0.00    -0.271 C  
ATOM     38  CD  GLU A   1     -10.469  19.589  66.391  1.00  0.00    -0.498 C  
ATOM     39  OE2 GLU A   1     -10.882  18.991  67.372  1.00  0.00    -0.473 OA 
ATOM     40  OE1 GLU A   1     -11.143  19.627  65.219  1.00  0.00    -0.409 OA 
ENDBRANCH  36  37
ENDBRANCH  32  36
ENDBRANCH  30  32
ENDBRANCH  24  28
ENDBRANCH  20  22
ENDBRANCH  19  20
ENDBRANCH   4  19
TORSDOF 7
ENDMDL
MODEL       27
REMARK 921   NORMALIZED FREE ENERGY PREDICTED BY IDOCK:   -7.13 KCAL/MOL
REMARK 922        TOTAL FREE ENERGY PREDICTED BY IDOCK:  -11.31 KCAL/MOL
REMARK 923 INTER-LIGAND FREE ENERGY PREDICTED BY IDOCK:  -10.28 KCAL/MOL
REMARK 924 INTRA-LIGAND FREE ENERGY PREDICTED BY IDOCK:   -1.03 KCAL/MOL
REMARK 927      BINDING AFFINITY PREDICTED BY RF-SCORE:    0.00 PKD
ROOT
HETATM    1  C   UNK A   0      -8.854  14.570  67.103  1.00  0.00    -0.229 C  
HETATM    2  N   UNK A   0      -9.792  15.409  66.518  1.00  0.00    -0.258 N  
HETATM    3  O   UNK A   0      -8.838  13.343  67.054  1.00  0.00    -0.219 OA 
HETATM    4  C   UNK A   0     -10.949  14.862  65.718  1.00  0.00    -0.345 C  
HETATM    5  C   UNK A   0     -11.121  15.717  64.441  1.00  0.00    -0.160 C  
HETATM    6  C   UNK A   0      -9.665  19.576  66.793  1.00  0.00    -0.366 C  
HETATM    7  H   UNK A   0      -8.160  19.359  68.170  1.00  0.00     0.000 HD 
HETATM    8  N   UNK A   0     -11.257  17.107  64.841  1.00  0.00    -0.689 NA 
HETATM    9  H   UNK A   0     -11.949  17.696  64.377  1.00  0.00     0.000 HD 
HETATM   10  H2  UNK A   0      -9.027  21.378  67.609  1.00  0.00     0.000 HD 
HETATM   11  C   UNK A   0     -10.464  17.646  65.841  1.00  0.00    -0.246 C  
HETATM   12  O   UNK A   0      -8.399  16.933  68.642  1.00  0.00    -0.243 OA 
HETATM   13  C   UNK A   0      -9.748  16.820  66.652  1.00  0.00    -0.269 C  
HETATM   14  H1  UNK A   0     -10.245  21.458  66.312  1.00  0.00     0.000 HD 
HETATM   15  C   UNK A   0      -8.934  17.510  67.700  1.00  0.00    -0.231 C  
HETATM   16  N   UNK A   0     -10.442  19.015  65.930  1.00  0.00    -0.532 NA 
HETATM   17  N   UNK A   0      -9.633  20.922  66.927  1.00  0.00    -0.669 NA 
HETATM   18  N   UNK A   0      -8.853  18.865  67.608  1.00  0.00    -0.285 N  
ENDROOT
BRANCH   4  19
HETATM   19  C   UNK A   0     -10.891  13.364  65.346  1.00  0.00    -0.294 C  
BRANCH  19  20
HETATM   20  N   UNK A   0     -11.945  12.588  66.021  1.00  0.00    -0.561 NA 
HETATM   21  H   UNK A   0     -12.933  12.760  65.836  1.00  0.00     0.000 HD 
BRANCH  20  22
HETATM   22  C   UNK A   0     -11.532  11.605  66.927  1.00  0.00    -0.247 A  
HETATM   23  C   UNK A   0     -10.085   9.694  67.369  1.00  0.00    -0.257 A  
HETATM   24  C   UNK A   0     -10.416   9.755  68.726  1.00  0.00    -0.240 A  
HETATM   25  C   UNK A   0     -11.943  11.568  68.265  1.00  0.00    -0.239 A  
HETATM   26  C   UNK A   0     -10.653  10.612  66.476  1.00  0.00    -0.257 A  
HETATM   27  C   UNK A   0     -11.387  10.659  69.163  1.00  0.00    -0.338 A  
BRANCH  24  28
HETATM   28  C   UNK A   0      -9.735   8.864  69.695  1.00  0.00    -0.174 C  
ATOM     29  H   GLU A   1     -11.322   7.496  69.609  1.00  0.00     0.000 HD 
ATOM     30  N   GLU A   1     -10.439   7.726  70.066  1.00  0.00    -0.225 N  
HETATM   31  O   UNK A   0      -8.636   9.152  70.151  1.00  0.00    -0.146 OA 
BRANCH  30  32
ATOM     32  CA  GLU A   1      -9.902   6.850  71.125  1.00  0.00    -0.177 C  
ATOM     33  C   GLU A   1      -9.715   5.427  70.566  1.00  0.00    -0.185 C  
ATOM     34  O   GLU A   1     -10.522   5.161  69.509  1.00  0.00    -0.257 OA 
ATOM     35  OXT GLU A   1      -9.035   4.561  71.100  1.00  0.00    -0.118 OA 
BRANCH  32  36
ATOM     36  CB  GLU A   1     -10.858   6.820  72.326  1.00  0.00    -0.263 C  
BRANCH  36  37
ATOM     37  CG  GLU A   1     -11.546   8.166  72.578  1.00  0.00    -0.468 C  
ATOM     38  CD  GLU A   1     -12.991   8.167  72.147  1.00  0.00    -0.261 C  
ATOM     39  OE2 GLU A   1     -13.572   7.222  71.637  1.00  0.00    -0.377 OA 
ATOM     40  OE1 GLU A   1     -13.597   9.349  72.398  1.00  0.00    -0.457 OA 
ENDBRANCH  36  37
ENDBRANCH  32  36
ENDBRANCH  30  32
ENDBRANCH  24  28
ENDBRANCH  20  22
ENDBRANCH  19  20
ENDBRANCH   4  19
TORSDOF 7
ENDMDL
MODEL       28
REMARK 921   NORMALIZED FREE ENERGY PREDICTED BY IDOCK:   -7.11 KCAL/MOL
REMARK 922        TOTAL FREE ENERGY PREDICTED BY IDOCK:  -11.28 KCAL/MOL
REMARK 923 INTER-LIGAND FREE ENERGY PREDICTED BY IDOCK:   -9.91 KCAL/MOL
REMARK 924 INTRA-LIGAND FREE ENERGY PREDICTED BY IDOCK:   -1.37 KCAL/MOL
REMARK 927      BINDING AFFINITY PREDICTED BY RF-SCORE:    0.00 PKD
ROOT
HETATM    1  C   UNK A   0      -8.818   9.900  69.049  1.00  0.00    -0.156 C  
HETATM    2  N   UNK A   0      -9.425   8.675  68.812  1.00  0.00    -0.142 N  
HETATM    3  O   UNK A   0      -8.141  10.547  68.255  1.00  0.00    -0.108 OA 
HETATM    4  C   UNK A   0      -9.304   7.980  67.478  1.00  0.00    -0.147 C  
HETATM    5  C   UNK A   0     -10.688   7.415  67.083  1.00  0.00    -0.330 C  
HETATM    6  C   UNK A   0     -11.706   6.631  71.654  1.00  0.00    -0.316 C  
HETATM    7  H   UNK A   0     -11.071   8.007  73.036  1.00  0.00     0.000 HD 
HETATM    8  N   UNK A   0     -11.162   6.574  68.169  1.00  0.00    -0.541 NA 
HETATM    9  H   UNK A   0     -11.617   5.687  67.955  1.00  0.00     0.000 HD 
HETATM   10  H2  UNK A   0     -12.375   6.234  73.581  1.00  0.00     0.000 HD 
HETATM   11  C   UNK A   0     -11.008   6.958  69.491  1.00  0.00    -0.250 C  
HETATM   12  O   UNK A   0      -9.221   9.044  71.745  1.00  0.00    -0.329 OA 
HETATM   13  C   UNK A   0     -10.168   7.983  69.803  1.00  0.00    -0.206 C  
HETATM   14  H1  UNK A   0     -12.968   5.173  72.280  1.00  0.00     0.000 HD 
HETATM   15  C   UNK A   0     -10.073   8.305  71.260  1.00  0.00    -0.198 C  
HETATM   16  N   UNK A   0     -11.753   6.270  70.417  1.00  0.00    -0.316 NA 
HETATM   17  N   UNK A   0     -12.407   5.963  72.599  1.00  0.00    -0.506 NA 
HETATM   18  N   UNK A   0     -10.962   7.678  72.077  1.00  0.00    -0.236 N  
ENDROOT
BRANCH   4  19
HETATM   19  C   UNK A   0      -8.721   8.807  66.312  1.00  0.00    -0.147 C  
BRANCH  19  20
HETATM   20  N   UNK A   0      -9.745   9.144  65.310  1.00  0.00    -0.443 NA 
HETATM   21  H   UNK A   0     -10.166   8.427  64.719  1.00  0.00     0.000 HD 
BRANCH  20  22
HETATM   22  C   UNK A   0     -10.116  10.489  65.202  1.00  0.00    -0.314 A  
HETATM   23  C   UNK A   0     -11.082  12.448  66.283  1.00  0.00    -0.344 A  
HETATM   24  C   UNK A   0     -10.657  13.248  65.217  1.00  0.00    -0.325 A  
HETATM   25  C   UNK A   0      -9.810  11.286  64.092  1.00  0.00    -0.323 A  
HETATM   26  C   UNK A   0     -10.818  11.072  66.264  1.00  0.00    -0.234 A  
HETATM   27  C   UNK A   0     -10.068  12.655  64.098  1.00  0.00    -0.293 A  
BRANCH  24  28
HETATM   28  C   UNK A   0     -10.829  14.718  65.281  1.00  0.00    -0.383 C  
ATOM     29  H   GLU A   1      -9.293  14.874  66.701  1.00  0.00     0.000 HD 
ATOM     30  N   GLU A   1     -10.018  15.382  66.193  1.00  0.00    -0.285 N  
HETATM   31  O   UNK A   0     -11.662  15.285  64.587  1.00  0.00    -0.392 OA 
BRANCH  30  32
ATOM     32  CA  GLU A   1     -10.212  16.826  66.423  1.00  0.00    -0.323 C  
ATOM     33  C   GLU A   1      -8.894  17.571  66.135  1.00  0.00    -0.125 C  
ATOM     34  O   GLU A   1      -7.798  16.783  66.268  1.00  0.00    -0.294 OA 
ATOM     35  OXT GLU A   1      -8.810  18.779  65.962  1.00  0.00    -0.479 OA 
BRANCH  32  36
ATOM     36  CB  GLU A   1     -10.652  17.079  67.873  1.00  0.00    -0.365 C  
BRANCH  36  37
ATOM     37  CG  GLU A   1     -11.759  16.128  68.337  1.00  0.00    -0.126 C  
ATOM     38  CD  GLU A   1     -11.392  15.384  69.596  1.00  0.00    -0.307 C  
ATOM     39  OE2 GLU A   1     -10.333  15.493  70.193  1.00  0.00    -0.304 OA 
ATOM     40  OE1 GLU A   1     -12.387  14.568  70.013  1.00  0.00    -0.321 OA 
ENDBRANCH  36  37
ENDBRANCH  32  36
ENDBRANCH  30  32
ENDBRANCH  24  28
ENDBRANCH  20  22
ENDBRANCH  19  20
ENDBRANCH   4  19
TORSDOF 7
ENDMDL
MODEL       29
REMARK 921   NORMALIZED FREE ENERGY PREDICTED BY IDOCK:   -7.11 KCAL/MOL
REMARK 922        TOTAL FREE ENERGY PREDICTED BY IDOCK:  -11.28 KCAL/MOL
REMARK 923 INTER-LIGAND FREE ENERGY PREDICTED BY IDOCK:  -10.28 KCAL/MOL
REMARK 924 INTRA-LIGAND FREE ENERGY PREDICTED BY IDOCK:   -1.00 KCAL/MOL
REMARK 927      BINDING AFFINITY PREDICTED BY RF-SCORE:    0.00 PKD
ROOT
HETATM    1  C   UNK A   0     -11.102   6.939  70.085  1.00  0.00    -0.299 C  
HETATM    2  N   UNK A   0     -10.535   7.301  68.871  1.00  0.00    -0.205 N  
HETATM    3  O   UNK A   0     -11.478   7.698  70.973  1.00  0.00    -0.269 OA 
HETATM    4  C   UNK A   0     -10.314   8.748  68.505  1.00  0.00    -0.199 C  
HETATM    5  C   UNK A   0     -10.735   8.960  67.033  1.00  0.00    -0.110 C  
HETATM    6  C   UNK A   0      -9.327   4.552  65.966  1.00  0.00    -0.157 C  
HETATM    7  H   UNK A   0      -9.661   3.070  67.344  1.00  0.00     0.000 HD 
HETATM    8  N   UNK A   0     -10.011   8.005  66.212  1.00  0.00    -0.476 NA 
HETATM    9  H   UNK A   0      -9.621   8.305  65.318  1.00  0.00     0.000 HD 
HETATM   10  H2  UNK A   0      -8.812   2.659  65.282  1.00  0.00     0.000 HD 
HETATM   11  C   UNK A   0      -9.842   6.692  66.622  1.00  0.00    -0.149 C  
HETATM   12  O   UNK A   0      -9.855   4.464  69.389  1.00  0.00    -0.203 OA 
HETATM   13  C   UNK A   0     -10.102   6.350  67.913  1.00  0.00    -0.148 C  
HETATM   14  H1  UNK A   0      -8.679   4.005  64.124  1.00  0.00     0.000 HD 
HETATM   15  C   UNK A   0      -9.877   4.909  68.245  1.00  0.00    -0.136 C  
HETATM   16  N   UNK A   0      -9.432   5.801  65.661  1.00  0.00    -0.365 NA 
HETATM   17  N   UNK A   0      -8.903   3.648  65.053  1.00  0.00    -0.118 NA 
HETATM   18  N   UNK A   0      -9.625   4.079  67.197  1.00  0.00    -0.200 N  
ENDROOT
BRANCH   4  19
HETATM   19  C   UNK A   0     -10.992   9.805  69.404  1.00  0.00    -0.212 C  
BRANCH  19  20
HETATM   20  N   UNK A   0     -12.040  10.548  68.685  1.00  0.00    -0.791 NA 
HETATM   21  H   UNK A   0     -12.860  10.076  68.304  1.00  0.00     0.000 HD 
BRANCH  20  22
HETATM   22  C   UNK A   0     -11.864  11.929  68.547  1.00  0.00    -0.297 A  
HETATM   23  C   UNK A   0     -11.545  14.081  69.647  1.00  0.00    -0.348 A  
HETATM   24  C   UNK A   0     -11.233  14.666  68.415  1.00  0.00    -0.290 A  
HETATM   25  C   UNK A   0     -11.671  12.562  67.313  1.00  0.00    -0.431 A  
HETATM   26  C   UNK A   0     -11.868  12.719  69.704  1.00  0.00    -0.384 A  
HETATM   27  C   UNK A   0     -11.350  13.916  67.242  1.00  0.00    -0.344 A  
BRANCH  24  28
HETATM   28  C   UNK A   0     -10.779  16.076  68.359  1.00  0.00    -0.289 C  
ATOM     29  H   GLU A   1     -10.599  15.973  66.272  1.00  0.00     0.000 HD 
ATOM     30  N   GLU A   1     -10.441  16.550  67.098  1.00  0.00    -0.310 N  
HETATM   31  O   UNK A   0     -10.685  16.748  69.377  1.00  0.00    -0.326 OA 
BRANCH  30  32
ATOM     32  CA  GLU A   1      -9.852  17.896  66.961  1.00  0.00    -0.314 C  
ATOM     33  C   GLU A   1     -10.509  18.624  65.773  1.00  0.00    -0.256 C  
ATOM     34  O   GLU A   1     -11.026  17.775  64.850  1.00  0.00    -0.866 OA 
ATOM     35  OXT GLU A   1     -10.443  19.830  65.583  1.00  0.00    -0.480 OA 
BRANCH  32  36
ATOM     36  CB  GLU A   1      -8.335  17.792  66.738  1.00  0.00    -0.271 C  
BRANCH  36  37
ATOM     37  CG  GLU A   1      -7.541  18.842  67.522  1.00  0.00    -0.246 C  
ATOM     38  CD  GLU A   1      -7.017  18.312  68.832  1.00  0.00    -0.278 C  
ATOM     39  OE2 GLU A   1      -7.201  17.182  69.256  1.00  0.00    -0.228 OA 
ATOM     40  OE1 GLU A   1      -6.295  19.237  69.504  1.00  0.00    -0.286 OA 
ENDBRANCH  36  37
ENDBRANCH  32  36
ENDBRANCH  30  32
ENDBRANCH  24  28
ENDBRANCH  20  22
ENDBRANCH  19  20
ENDBRANCH   4  19
TORSDOF 7
ENDMDL
MODEL       30
REMARK 921   NORMALIZED FREE ENERGY PREDICTED BY IDOCK:   -7.10 KCAL/MOL
REMARK 922        TOTAL FREE ENERGY PREDICTED BY IDOCK:  -11.28 KCAL/MOL
REMARK 923 INTER-LIGAND FREE ENERGY PREDICTED BY IDOCK:  -10.00 KCAL/MOL
REMARK 924 INTRA-LIGAND FREE ENERGY PREDICTED BY IDOCK:   -1.27 KCAL/MOL
REMARK 927      BINDING AFFINITY PREDICTED BY RF-SCORE:    0.00 PKD
ROOT
HETATM    1  C   UNK A   0      -8.185  10.736  66.141  1.00  0.00    -0.163 C  
HETATM    2  N   UNK A   0      -9.077  10.648  65.081  1.00  0.00    -0.193 N  
HETATM    3  O   UNK A   0      -7.382   9.877  66.494  1.00  0.00    -0.096 OA 
HETATM    4  C   UNK A   0      -9.148   9.418  64.210  1.00  0.00    -0.106 C  
HETATM    5  C   UNK A   0      -9.258   9.859  62.732  1.00  0.00    -0.268 C  
HETATM    6  C   UNK A   0     -11.734  13.697  64.031  1.00  0.00    -0.364 C  
HETATM    7  H   UNK A   0     -11.200  14.651  65.766  1.00  0.00     0.000 HD 
HETATM    8  N   UNK A   0     -10.391  10.760  62.610  1.00  0.00    -0.759 NA 
HETATM    9  H   UNK A   0     -11.016  10.675  61.809  1.00  0.00     0.000 HD 
HETATM   10  H2  UNK A   0     -12.798  15.450  64.370  1.00  0.00     0.000 HD 
HETATM   11  C   UNK A   0     -10.636  11.735  63.564  1.00  0.00    -0.440 C  
HETATM   12  O   UNK A   0     -10.028  12.781  66.904  1.00  0.00    -0.224 OA 
HETATM   13  C   UNK A   0      -9.994  11.683  64.763  1.00  0.00    -0.254 C  
HETATM   14  H1  UNK A   0     -13.093  14.604  62.830  1.00  0.00     0.000 HD 
HETATM   15  C   UNK A   0     -10.341  12.780  65.717  1.00  0.00    -0.281 C  
HETATM   16  N   UNK A   0     -11.521  12.724  63.212  1.00  0.00    -0.782 NA 
HETATM   17  N   UNK A   0     -12.617  14.677  63.730  1.00  0.00    -0.988 NA 
HETATM   18  N   UNK A   0     -11.103  13.793  65.223  1.00  0.00    -0.304 N  
ENDROOT
BRANCH   4  19
HETATM   19  C   UNK A   0      -8.010   8.386  64.369  1.00  0.00    -0.148 C  
BRANCH  19  20
HETATM   20  N   UNK A   0      -8.510   7.085  64.842  1.00  0.00    -0.340 NA 
HETATM   21  H   UNK A   0      -8.691   6.317  64.196  1.00  0.00     0.000 HD 
BRANCH  20  22
HETATM   22  C   UNK A   0      -8.725   6.946  66.218  1.00  0.00    -0.142 A  
HETATM   23  C   UNK A   0      -7.771   6.475  68.411  1.00  0.00    -0.105 A  
HETATM   24  C   UNK A   0      -8.955   6.903  69.020  1.00  0.00    -0.132 A  
HETATM   25  C   UNK A   0      -9.940   7.251  66.843  1.00  0.00    -0.302 A  
HETATM   26  C   UNK A   0      -7.667   6.489  67.014  1.00  0.00    -0.100 A  
HETATM   27  C   UNK A   0     -10.058   7.240  68.231  1.00  0.00    -0.193 A  
BRANCH  24  28
HETATM   28  C   UNK A   0      -9.035   7.001  70.496  1.00  0.00    -0.155 C  
ATOM     29  H   GLU A   1     -11.080   6.540  70.453  1.00  0.00     0.000 HD 
ATOM     30  N   GLU A   1     -10.298   6.818  71.046  1.00  0.00    -0.205 N  
HETATM   31  O   UNK A   0      -8.043   7.260  71.165  1.00  0.00    -0.101 OA 
BRANCH  30  32
ATOM     32  CA  GLU A   1     -10.500   7.030  72.492  1.00  0.00    -0.216 C  
ATOM     33  C   GLU A   1     -10.590   5.665  73.200  1.00  0.00    -0.247 C  
ATOM     34  O   GLU A   1     -10.992   4.665  72.377  1.00  0.00    -0.124 OA 
ATOM     35  OXT GLU A   1     -10.473   5.507  74.408  1.00  0.00    -0.272 OA 
BRANCH  32  36
ATOM     36  CB  GLU A   1     -11.785   7.835  72.737  1.00  0.00    -0.312 C  
BRANCH  36  37
ATOM     37  CG  GLU A   1     -11.807   9.171  71.987  1.00  0.00    -0.407 C  
ATOM     38  CD  GLU A   1     -13.175   9.805  71.977  1.00  0.00    -0.460 C  
ATOM     39  OE2 GLU A   1     -14.175   9.326  72.487  1.00  0.00    -0.464 OA 
ATOM     40  OE1 GLU A   1     -13.179  10.997  71.338  1.00  0.00    -0.356 OA 
ENDBRANCH  36  37
ENDBRANCH  32  36
ENDBRANCH  30  32
ENDBRANCH  24  28
ENDBRANCH  20  22
ENDBRANCH  19  20
ENDBRANCH   4  19
TORSDOF 7
ENDMDL
MODEL       31
REMARK 921   NORMALIZED FREE ENERGY PREDICTED BY IDOCK:   -7.09 KCAL/MOL
REMARK 922        TOTAL FREE ENERGY PREDICTED BY IDOCK:  -11.26 KCAL/MOL
REMARK 923 INTER-LIGAND FREE ENERGY PREDICTED BY IDOCK:  -10.01 KCAL/MOL
REMARK 924 INTRA-LIGAND FREE ENERGY PREDICTED BY IDOCK:   -1.25 KCAL/MOL
REMARK 927      BINDING AFFINITY PREDICTED BY RF-SCORE:    0.00 PKD
ROOT
HETATM    1  C   UNK A   0     -10.784   5.630  70.093  1.00  0.00    -0.305 C  
HETATM    2  N   UNK A   0     -10.611   5.577  71.469  1.00  0.00    -0.241 N  
HETATM    3  O   UNK A   0     -11.611   6.304  69.485  1.00  0.00    -0.423 OA 
HETATM    4  C   UNK A   0     -11.472   6.391  72.404  1.00  0.00    -0.282 C  
HETATM    5  C   UNK A   0     -10.572   7.015  73.495  1.00  0.00    -0.368 C  
HETATM    6  C   UNK A   0      -7.721   3.220  73.352  1.00  0.00    -0.064 C  
HETATM    7  H   UNK A   0      -7.357   2.352  71.530  1.00  0.00     0.000 HD 
HETATM    8  N   UNK A   0      -9.823   5.945  74.131  1.00  0.00    -0.192 NA 
HETATM    9  H   UNK A   0      -9.704   5.948  75.144  1.00  0.00     0.000 HD 
HETATM   10  H2  UNK A   0      -6.325   1.683  73.435  1.00  0.00     0.000 HD 
HETATM   11  C   UNK A   0      -9.265   4.919  73.384  1.00  0.00    -0.123 C  
HETATM   12  O   UNK A   0      -9.351   3.167  70.295  1.00  0.00    -0.141 OA 
HETATM   13  C   UNK A   0      -9.645   4.745  72.089  1.00  0.00    -0.153 C  
HETATM   14  H1  UNK A   0      -6.627   2.589  74.938  1.00  0.00     0.000 HD 
HETATM   15  C   UNK A   0      -8.986   3.603  71.383  1.00  0.00    -0.104 C  
HETATM   16  N   UNK A   0      -8.327   4.143  74.019  1.00  0.00    -0.095 NA 
HETATM   17  N   UNK A   0      -6.808   2.419  73.949  1.00  0.00    -0.026 NA 
HETATM   18  N   UNK A   0      -7.962   2.995  72.041  1.00  0.00    -0.054 N  
ENDROOT
BRANCH   4  19
HETATM   19  C   UNK A   0     -12.355   7.484  71.763  1.00  0.00    -0.326 C  
BRANCH  19  20
HETATM   20  N   UNK A   0     -11.916   8.838  72.138  1.00  0.00    -0.366 NA 
HETATM   21  H   UNK A   0     -11.641   9.062  73.095  1.00  0.00     0.000 HD 
BRANCH  20  22
HETATM   22  C   UNK A   0     -11.891   9.805  71.127  1.00  0.00    -0.382 A  
HETATM   23  C   UNK A   0     -12.349  12.107  70.472  1.00  0.00    -0.358 A  
HETATM   24  C   UNK A   0     -11.645  11.909  69.279  1.00  0.00    -0.376 A  
HETATM   25  C   UNK A   0     -11.300   9.595  69.875  1.00  0.00    -0.200 A  
HETATM   26  C   UNK A   0     -12.476  11.051  71.384  1.00  0.00    -0.436 A  
HETATM   27  C   UNK A   0     -11.169  10.636  68.959  1.00  0.00    -0.324 A  
BRANCH  24  28
HETATM   28  C   UNK A   0     -11.407  13.049  68.362  1.00  0.00    -0.291 C  
ATOM     29  H   GLU A   1     -12.250  11.987  66.763  1.00  0.00     0.000 HD 
ATOM     30  N   GLU A   1     -11.766  12.842  67.037  1.00  0.00    -0.371 N  
HETATM   31  O   UNK A   0     -10.894  14.085  68.765  1.00  0.00    -0.250 OA 
BRANCH  30  32
ATOM     32  CA  GLU A   1     -11.443  13.868  66.027  1.00  0.00    -0.340 C  
ATOM     33  C   GLU A   1     -12.558  13.910  64.965  1.00  0.00    -0.390 C  
ATOM     34  O   GLU A   1     -13.244  12.743  64.869  1.00  0.00    -0.808 OA 
ATOM     35  OXT GLU A   1     -12.722  14.828  64.173  1.00  0.00    -0.758 OA 
BRANCH  32  36
ATOM     36  CB  GLU A   1     -10.096  13.552  65.360  1.00  0.00    -0.279 C  
BRANCH  36  37
ATOM     37  CG  GLU A   1      -9.730  12.066  65.426  1.00  0.00    -0.203 C  
ATOM     38  CD  GLU A   1      -9.946  11.359  64.112  1.00  0.00    -0.290 C  
ATOM     39  OE2 GLU A   1     -10.378  11.880  63.096  1.00  0.00    -0.402 OA 
ATOM     40  OE1 GLU A   1      -9.594  10.054  64.172  1.00  0.00    -0.292 OA 
ENDBRANCH  36  37
ENDBRANCH  32  36
ENDBRANCH  30  32
ENDBRANCH  24  28
ENDBRANCH  20  22
ENDBRANCH  19  20
ENDBRANCH   4  19
TORSDOF 7
ENDMDL
MODEL       32
REMARK 921   NORMALIZED FREE ENERGY PREDICTED BY IDOCK:   -7.07 KCAL/MOL
REMARK 922        TOTAL FREE ENERGY PREDICTED BY IDOCK:  -11.24 KCAL/MOL
REMARK 923 INTER-LIGAND FREE ENERGY PREDICTED BY IDOCK:  -10.24 KCAL/MOL
REMARK 924 INTRA-LIGAND FREE ENERGY PREDICTED BY IDOCK:   -1.00 KCAL/MOL
REMARK 927      BINDING AFFINITY PREDICTED BY RF-SCORE:    0.00 PKD
ROOT
HETATM    1  C   UNK A   0      -8.042  11.307  66.243  1.00  0.00    -0.108 C  
HETATM    2  N   UNK A   0      -9.002  11.113  65.259  1.00  0.00    -0.326 N  
HETATM    3  O   UNK A   0      -7.210  10.489  66.625  1.00  0.00    -0.106 OA 
HETATM    4  C   UNK A   0      -9.120   9.802  64.521  1.00  0.00    -0.249 C  
HETATM    5  C   UNK A   0      -9.331  10.094  63.017  1.00  0.00    -0.299 C  
HETATM    6  C   UNK A   0     -11.747  14.038  64.091  1.00  0.00    -0.315 C  
HETATM    7  H   UNK A   0     -11.107  15.161  65.684  1.00  0.00     0.000 HD 
HETATM    8  N   UNK A   0     -10.477  10.977  62.882  1.00  0.00    -0.797 NA 
HETATM    9  H   UNK A   0     -11.153  10.811  62.137  1.00  0.00     0.000 HD 
HETATM   10  H2  UNK A   0     -12.800  15.814  64.325  1.00  0.00     0.000 HD 
HETATM   11  C   UNK A   0     -10.667  12.041  63.749  1.00  0.00    -0.423 C  
HETATM   12  O   UNK A   0      -9.847  13.415  66.921  1.00  0.00    -0.242 OA 
HETATM   13  C   UNK A   0      -9.945  12.109  64.901  1.00  0.00    -0.212 C  
HETATM   14  H1  UNK A   0     -13.190  14.819  62.900  1.00  0.00     0.000 HD 
HETATM   15  C   UNK A   0     -10.238  13.296  65.763  1.00  0.00    -0.292 C  
HETATM   16  N   UNK A   0     -11.581  12.988  63.360  1.00  0.00    -0.704 NA 
HETATM   17  N   UNK A   0     -12.656  14.982  63.754  1.00  0.00    -0.965 NA 
HETATM   18  N   UNK A   0     -11.039  14.254  65.223  1.00  0.00    -0.319 N  
ENDROOT
BRANCH   4  19
HETATM   19  C   UNK A   0      -7.966   8.793  64.705  1.00  0.00    -0.135 C  
BRANCH  19  20
HETATM   20  N   UNK A   0      -8.399   7.587  65.430  1.00  0.00    -0.170 NA 
HETATM   21  H   UNK A   0      -8.281   6.656  65.031  1.00  0.00     0.000 HD 
BRANCH  20  22
HETATM   22  C   UNK A   0      -8.980   7.774  66.689  1.00  0.00    -0.149 A  
HETATM   23  C   UNK A   0      -8.648   8.253  69.056  1.00  0.00    -0.135 A  
HETATM   24  C   UNK A   0     -10.025   8.437  69.213  1.00  0.00    -0.195 A  
HETATM   25  C   UNK A   0     -10.363   7.840  66.898  1.00  0.00    -0.396 A  
HETATM   26  C   UNK A   0      -8.135   7.912  67.797  1.00  0.00    -0.128 A  
HETATM   27  C   UNK A   0     -10.886   8.177  68.145  1.00  0.00     0.015 A  
BRANCH  24  28
HETATM   28  C   UNK A   0     -10.565   8.909  70.510  1.00  0.00    -0.220 C  
ATOM     29  H   GLU A   1     -12.461   9.194  69.659  1.00  0.00     0.000 HD 
ATOM     30  N   GLU A   1     -11.894   9.316  70.498  1.00  0.00    -0.186 N  
HETATM   31  O   UNK A   0      -9.857   8.959  71.507  1.00  0.00    -0.266 OA 
BRANCH  30  32
ATOM     32  CA  GLU A   1     -12.478   9.926  71.708  1.00  0.00    -0.397 C  
ATOM     33  C   GLU A   1     -13.445   8.926  72.368  1.00  0.00    -0.450 C  
ATOM     34  O   GLU A   1     -13.942   8.012  71.498  1.00  0.00    -0.371 OA 
ATOM     35  OXT GLU A   1     -13.860   9.023  73.515  1.00  0.00     0.082 OA 
BRANCH  32  36
ATOM     36  CB  GLU A   1     -13.227  11.217  71.343  1.00  0.00    -0.301 C  
BRANCH  36  37
ATOM     37  CG  GLU A   1     -12.309  12.441  71.265  1.00  0.00    -0.154 C  
ATOM     38  CD  GLU A   1     -12.855  13.623  72.025  1.00  0.00    -0.270 C  
ATOM     39  OE2 GLU A   1     -13.915  13.639  72.631  1.00  0.00    -0.733 OA 
ATOM     40  OE1 GLU A   1     -12.025  14.689  71.974  1.00  0.00    -0.322 OA 
ENDBRANCH  36  37
ENDBRANCH  32  36
ENDBRANCH  30  32
ENDBRANCH  24  28
ENDBRANCH  20  22
ENDBRANCH  19  20
ENDBRANCH   4  19
TORSDOF 7
ENDMDL
MODEL       33
REMARK 921   NORMALIZED FREE ENERGY PREDICTED BY IDOCK:   -6.98 KCAL/MOL
REMARK 922        TOTAL FREE ENERGY PREDICTED BY IDOCK:  -11.11 KCAL/MOL
REMARK 923 INTER-LIGAND FREE ENERGY PREDICTED BY IDOCK:  -10.21 KCAL/MOL
REMARK 924 INTRA-LIGAND FREE ENERGY PREDICTED BY IDOCK:   -0.90 KCAL/MOL
REMARK 927      BINDING AFFINITY PREDICTED BY RF-SCORE:    0.00 PKD
ROOT
HETATM    1  C   UNK A   0      -9.994   7.541  67.346  1.00  0.00    -0.187 C  
HETATM    2  N   UNK A   0     -10.411   8.462  68.296  1.00  0.00    -0.321 N  
HETATM    3  O   UNK A   0      -9.792   7.758  66.155  1.00  0.00    -0.096 OA 
HETATM    4  C   UNK A   0     -10.671   9.904  67.935  1.00  0.00    -0.265 C  
HETATM    5  C   UNK A   0     -10.067  10.810  69.033  1.00  0.00    -0.211 C  
HETATM    6  C   UNK A   0     -11.034   7.522  72.319  1.00  0.00    -0.262 C  
HETATM    7  H   UNK A   0     -10.799   5.548  71.812  1.00  0.00     0.000 HD 
HETATM    8  N   UNK A   0     -10.609  10.394  70.315  1.00  0.00    -0.447 NA 
HETATM    9  H   UNK A   0     -10.891  11.101  70.994  1.00  0.00     0.000 HD 
HETATM   10  H2  UNK A   0     -11.330   6.219  73.911  1.00  0.00     0.000 HD 
HETATM   11  C   UNK A   0     -10.750   9.052  70.631  1.00  0.00    -0.239 C  
HETATM   12  O   UNK A   0     -10.975   5.749  69.343  1.00  0.00    -0.342 OA 
HETATM   13  C   UNK A   0     -10.648   8.114  69.650  1.00  0.00    -0.223 C  
HETATM   14  H1  UNK A   0     -11.387   7.964  74.266  1.00  0.00     0.000 HD 
HETATM   15  C   UNK A   0     -10.825   6.700  70.105  1.00  0.00    -0.279 C  
HETATM   16  N   UNK A   0     -10.968   8.757  71.954  1.00  0.00    -0.343 NA 
HETATM   17  N   UNK A   0     -11.271   7.192  73.610  1.00  0.00    -0.504 NA 
HETATM   18  N   UNK A   0     -10.878   6.498  71.449  1.00  0.00    -0.238 N  
ENDROOT
BRANCH   4  19
HETATM   19  C   UNK A   0     -10.191  10.371  66.544  1.00  0.00    -0.229 C  
BRANCH  19  20
HETATM   20  N   UNK A   0     -11.118  11.342  65.939  1.00  0.00    -0.168 NA 
HETATM   21  H   UNK A   0     -11.873  11.043  65.322  1.00  0.00     0.000 HD 
BRANCH  20  22
HETATM   22  C   UNK A   0     -10.918  12.692  66.246  1.00  0.00    -0.283 A  
HETATM   23  C   UNK A   0     -11.766  14.700  67.337  1.00  0.00    -0.413 A  
HETATM   24  C   UNK A   0     -10.524  15.320  67.165  1.00  0.00    -0.280 A  
HETATM   25  C   UNK A   0      -9.726  13.376  65.975  1.00  0.00    -0.228 A  
HETATM   26  C   UNK A   0     -11.958  13.394  66.867  1.00  0.00    -0.437 A  
HETATM   27  C   UNK A   0      -9.522  14.675  66.435  1.00  0.00    -0.325 A  
BRANCH  24  28
HETATM   28  C   UNK A   0     -10.274  16.655  67.758  1.00  0.00    -0.292 C  
ATOM     29  H   GLU A   1      -9.141  17.226  66.089  1.00  0.00     0.000 HD 
ATOM     30  N   GLU A   1      -9.455  17.500  67.020  1.00  0.00    -0.260 N  
HETATM   31  O   UNK A   0     -10.745  16.959  68.846  1.00  0.00    -0.329 OA 
BRANCH  30  32
ATOM     32  CA  GLU A   1      -9.041  18.795  67.592  1.00  0.00    -0.282 C  
ATOM     33  C   GLU A   1      -9.919  19.916  67.004  1.00  0.00    -0.428 C  
ATOM     34  O   GLU A   1     -10.448  19.600  65.796  1.00  0.00    -0.495 OA 
ATOM     35  OXT GLU A   1     -10.012  21.039  67.481  1.00  0.00    -0.315 OA 
BRANCH  32  36
ATOM     36  CB  GLU A   1      -7.562  19.067  67.278  1.00  0.00    -0.245 C  
BRANCH  36  37
ATOM     37  CG  GLU A   1      -6.727  19.354  68.530  1.00  0.00    -0.319 C  
ATOM     38  CD  GLU A   1      -5.908  20.613  68.403  1.00  0.00    -0.320 C  
ATOM     39  OE2 GLU A   1      -5.880  21.336  67.420  1.00  0.00    -0.285 OA 
ATOM     40  OE1 GLU A   1      -5.195  20.872  69.523  1.00  0.00    -0.324 OA 
ENDBRANCH  36  37
ENDBRANCH  32  36
ENDBRANCH  30  32
ENDBRANCH  24  28
ENDBRANCH  20  22
ENDBRANCH  19  20
ENDBRANCH   4  19
TORSDOF 7
ENDMDL
MODEL       34
REMARK 921   NORMALIZED FREE ENERGY PREDICTED BY IDOCK:   -6.92 KCAL/MOL
REMARK 922        TOTAL FREE ENERGY PREDICTED BY IDOCK:  -11.02 KCAL/MOL
REMARK 923 INTER-LIGAND FREE ENERGY PREDICTED BY IDOCK:  -10.21 KCAL/MOL
REMARK 924 INTRA-LIGAND FREE ENERGY PREDICTED BY IDOCK:   -0.82 KCAL/MOL
REMARK 927      BINDING AFFINITY PREDICTED BY RF-SCORE:    0.00 PKD
ROOT
HETATM    1  C   UNK A   0     -12.139  13.572  64.068  1.00  0.00    -0.441 C  
HETATM    2  N   UNK A   0     -10.943  13.661  64.767  1.00  0.00    -0.357 N  
HETATM    3  O   UNK A   0     -12.604  12.567  63.539  1.00  0.00    -0.690 OA 
HETATM    4  C   UNK A   0     -10.049  12.460  64.956  1.00  0.00    -0.247 C  
HETATM    5  C   UNK A   0      -9.543  12.439  66.417  1.00  0.00    -0.246 C  
HETATM    6  C   UNK A   0      -9.535  17.187  66.511  1.00  0.00    -0.273 C  
HETATM    7  H   UNK A   0     -11.047  18.176  65.541  1.00  0.00     0.000 HD 
HETATM    8  N   UNK A   0      -8.915  13.719  66.697  1.00  0.00    -0.425 NA 
HETATM    9  H   UNK A   0      -8.044  13.744  67.227  1.00  0.00     0.000 HD 
HETATM   10  H2  UNK A   0      -9.485  19.246  66.788  1.00  0.00     0.000 HD 
HETATM   11  C   UNK A   0      -9.478  14.905  66.257  1.00  0.00    -0.309 C  
HETATM   12  O   UNK A   0     -11.730  16.397  63.949  1.00  0.00    -1.085 OA 
HETATM   13  C   UNK A   0     -10.468  14.876  65.323  1.00  0.00    -0.404 C  
HETATM   14  H1  UNK A   0      -8.291  18.275  67.685  1.00  0.00     0.000 HD 
HETATM   15  C   UNK A   0     -10.997  16.214  64.916  1.00  0.00    -0.349 C  
HETATM   16  N   UNK A   0      -8.998  16.058  66.827  1.00  0.00    -0.224 NA 
HETATM   17  N   UNK A   0      -9.072  18.346  67.033  1.00  0.00    -0.268 NA 
HETATM   18  N   UNK A   0     -10.571  17.280  65.647  1.00  0.00    -0.264 N  
ENDROOT
BRANCH   4  19
HETATM   19  C   UNK A   0     -10.645  11.084  64.586  1.00  0.00    -0.299 C  
BRANCH  19  20
HETATM   20  N   UNK A   0      -9.632  10.016  64.631  1.00  0.00    -0.309 NA 
HETATM   21  H   UNK A   0      -9.068   9.783  63.813  1.00  0.00     0.000 HD 
BRANCH  20  22
HETATM   22  C   UNK A   0      -9.477   9.333  65.842  1.00  0.00    -0.259 A  
HETATM   23  C   UNK A   0      -7.960   8.548  67.581  1.00  0.00    -0.107 A  
HETATM   24  C   UNK A   0      -9.053   8.230  68.393  1.00  0.00    -0.136 A  
HETATM   25  C   UNK A   0     -10.554   8.892  66.621  1.00  0.00    -0.150 A  
HETATM   26  C   UNK A   0      -8.179   9.088  66.306  1.00  0.00    -0.115 A  
HETATM   27  C   UNK A   0     -10.350   8.352  67.889  1.00  0.00    -0.279 A  
BRANCH  24  28
HETATM   28  C   UNK A   0      -8.832   7.766  69.783  1.00  0.00    -0.139 C  
ATOM     29  H   GLU A   1     -10.822   7.120  69.924  1.00  0.00     0.000 HD 
ATOM     30  N   GLU A   1      -9.947   7.249  70.431  1.00  0.00    -0.190 N  
HETATM   31  O   UNK A   0      -7.736   7.874  70.316  1.00  0.00    -0.084 OA 
BRANCH  30  32
ATOM     32  CA  GLU A   1      -9.856   6.888  71.859  1.00  0.00    -0.164 C  
ATOM     33  C   GLU A   1      -9.834   5.355  71.998  1.00  0.00    -0.168 C  
ATOM     34  O   GLU A   1     -10.410   4.717  70.948  1.00  0.00    -0.202 OA 
ATOM     35  OXT GLU A   1      -9.484   4.760  73.008  1.00  0.00    -0.128 OA 
BRANCH  32  36
ATOM     36  CB  GLU A   1     -11.052   7.467  72.630  1.00  0.00    -0.398 C  
BRANCH  36  37
ATOM     37  CG  GLU A   1     -11.588   8.766  72.018  1.00  0.00    -0.436 C  
ATOM     38  CD  GLU A   1     -13.037   8.660  71.617  1.00  0.00    -0.346 C  
ATOM     39  OE2 GLU A   1     -13.729   7.662  71.740  1.00  0.00    -0.349 OA 
ATOM     40  OE1 GLU A   1     -13.509   9.819  71.103  1.00  0.00    -0.366 OA 
ENDBRANCH  36  37
ENDBRANCH  32  36
ENDBRANCH  30  32
ENDBRANCH  24  28
ENDBRANCH  20  22
ENDBRANCH  19  20
ENDBRANCH   4  19
TORSDOF 7
ENDMDL
MODEL       35
REMARK 921   NORMALIZED FREE ENERGY PREDICTED BY IDOCK:   -6.89 KCAL/MOL
REMARK 922        TOTAL FREE ENERGY PREDICTED BY IDOCK:  -10.99 KCAL/MOL
REMARK 923 INTER-LIGAND FREE ENERGY PREDICTED BY IDOCK:   -9.93 KCAL/MOL
REMARK 924 INTRA-LIGAND FREE ENERGY PREDICTED BY IDOCK:   -1.05 KCAL/MOL
REMARK 927      BINDING AFFINITY PREDICTED BY RF-SCORE:    0.00 PKD
ROOT
HETATM    1  C   UNK A   0     -11.135  16.515  69.224  1.00  0.00    -0.260 C  
HETATM    2  N   UNK A   0     -10.687  16.574  67.912  1.00  0.00    -0.335 N  
HETATM    3  O   UNK A   0     -11.917  15.693  69.694  1.00  0.00    -0.351 OA 
HETATM    4  C   UNK A   0     -11.144  15.575  66.877  1.00  0.00    -0.221 C  
HETATM    5  C   UNK A   0      -9.924  15.136  66.035  1.00  0.00    -0.311 C  
HETATM    6  C   UNK A   0      -8.006  19.454  66.506  1.00  0.00    -0.298 C  
HETATM    7  H   UNK A   0      -8.224  20.418  68.304  1.00  0.00     0.000 HD 
HETATM    8  N   UNK A   0      -9.291  16.328  65.496  1.00  0.00    -0.380 NA 
HETATM    9  H   UNK A   0      -8.961  16.328  64.531  1.00  0.00     0.000 HD 
HETATM   10  H2  UNK A   0      -6.969  21.252  66.609  1.00  0.00     0.000 HD 
HETATM   11  C   UNK A   0      -9.128  17.464  66.272  1.00  0.00    -0.203 C  
HETATM   12  O   UNK A   0     -10.225  19.222  69.157  1.00  0.00    -0.340 OA 
HETATM   13  C   UNK A   0      -9.802  17.581  67.448  1.00  0.00    -0.297 C  
HETATM   14  H1  UNK A   0      -6.751  20.271  65.139  1.00  0.00     0.000 HD 
HETATM   15  C   UNK A   0      -9.556  18.851  68.198  1.00  0.00    -0.338 C  
HETATM   16  N   UNK A   0      -8.254  18.409  65.793  1.00  0.00    -0.451 NA 
HETATM   17  N   UNK A   0      -7.171  20.419  66.057  1.00  0.00    -0.434 NA 
HETATM   18  N   UNK A   0      -8.561  19.650  67.724  1.00  0.00    -0.316 N  
ENDROOT
BRANCH   4  19
HETATM   19  C   UNK A   0     -11.902  14.333  67.395  1.00  0.00    -0.409 C  
BRANCH  19  20
HETATM   20  N   UNK A   0     -11.516  13.112  66.669  1.00  0.00    -0.331 NA 
HETATM   21  H   UNK A   0     -11.366  13.117  65.660  1.00  0.00     0.000 HD 
BRANCH  20  22
HETATM   22  C   UNK A   0     -11.365  11.942  67.422  1.00  0.00    -0.324 A  
HETATM   23  C   UNK A   0     -10.385   9.717  67.591  1.00  0.00    -0.290 A  
HETATM   24  C   UNK A   0     -10.755   9.655  68.939  1.00  0.00    -0.230 A  
HETATM   25  C   UNK A   0     -11.833  11.806  68.735  1.00  0.00    -0.380 A  
HETATM   26  C   UNK A   0     -10.702  10.856  66.839  1.00  0.00    -0.318 A  
HETATM   27  C   UNK A   0     -11.527  10.678  69.494  1.00  0.00    -0.360 A  
BRANCH  24  28
HETATM   28  C   UNK A   0     -10.325   8.507  69.772  1.00  0.00    -0.212 C  
ATOM     29  H   GLU A   1     -12.038   8.687  70.969  1.00  0.00     0.000 HD 
ATOM     30  N   GLU A   1     -11.151   8.199  70.846  1.00  0.00    -0.254 N  
HETATM   31  O   UNK A   0      -9.287   7.906  69.529  1.00  0.00    -0.156 OA 
BRANCH  30  32
ATOM     32  CA  GLU A   1     -10.735   7.160  71.808  1.00  0.00    -0.215 C  
ATOM     33  C   GLU A   1     -11.935   6.248  72.125  1.00  0.00    -0.287 C  
ATOM     34  O   GLU A   1     -13.132   6.855  71.924  1.00  0.00    -0.316 OA 
ATOM     35  OXT GLU A   1     -11.844   5.149  72.655  1.00  0.00    -0.155 OA 
BRANCH  32  36
ATOM     36  CB  GLU A   1     -10.214   7.810  73.099  1.00  0.00    -0.398 C  
BRANCH  36  37
ATOM     37  CG  GLU A   1      -8.916   7.174  73.607  1.00  0.00    -0.214 C  
ATOM     38  CD  GLU A   1      -7.693   7.963  73.212  1.00  0.00    -0.143 C  
ATOM     39  OE2 GLU A   1      -7.702   8.988  72.549  1.00  0.00    -0.338 OA 
ATOM     40  OE1 GLU A   1      -6.555   7.409  73.689  1.00  0.00    -0.067 OA 
ENDBRANCH  36  37
ENDBRANCH  32  36
ENDBRANCH  30  32
ENDBRANCH  24  28
ENDBRANCH  20  22
ENDBRANCH  19  20
ENDBRANCH   4  19
TORSDOF 7
ENDMDL
MODEL       36
REMARK 921   NORMALIZED FREE ENERGY PREDICTED BY IDOCK:   -6.89 KCAL/MOL
REMARK 922        TOTAL FREE ENERGY PREDICTED BY IDOCK:  -10.98 KCAL/MOL
REMARK 923 INTER-LIGAND FREE ENERGY PREDICTED BY IDOCK:   -9.72 KCAL/MOL
REMARK 924 INTRA-LIGAND FREE ENERGY PREDICTED BY IDOCK:   -1.26 KCAL/MOL
REMARK 927      BINDING AFFINITY PREDICTED BY RF-SCORE:    0.00 PKD
ROOT
HETATM    1  C   UNK A   0      -8.164  15.964  68.451  1.00  0.00    -0.161 C  
HETATM    2  N   UNK A   0      -8.792  17.159  68.128  1.00  0.00    -0.230 N  
HETATM    3  O   UNK A   0      -8.583  15.100  69.216  1.00  0.00    -0.218 OA 
HETATM    4  C   UNK A   0     -10.130  17.531  68.720  1.00  0.00    -0.363 C  
HETATM    5  C   UNK A   0     -11.023  18.120  67.603  1.00  0.00    -0.094 C  
HETATM    6  C   UNK A   0      -7.199  19.974  65.484  1.00  0.00    -0.282 C  
HETATM    7  H   UNK A   0      -5.464  18.881  65.492  1.00  0.00     0.000 HD 
HETATM    8  N   UNK A   0     -10.304  19.217  66.979  1.00  0.00    -0.395 NA 
HETATM    9  H   UNK A   0     -10.804  20.074  66.743  1.00  0.00     0.000 HD 
HETATM   10  H2  UNK A   0      -5.673  20.842  64.373  1.00  0.00     0.000 HD 
HETATM   11  C   UNK A   0      -8.951  19.119  66.699  1.00  0.00    -0.328 C  
HETATM   12  O   UNK A   0      -5.921  17.422  67.448  1.00  0.00    -0.125 OA 
HETATM   13  C   UNK A   0      -8.218  18.115  67.253  1.00  0.00    -0.229 C  
HETATM   14  H1  UNK A   0      -7.263  21.643  64.334  1.00  0.00     0.000 HD 
HETATM   15  C   UNK A   0      -6.768  18.112  66.888  1.00  0.00    -0.186 C  
HETATM   16  N   UNK A   0      -8.436  20.058  65.839  1.00  0.00    -0.498 NA 
HETATM   17  N   UNK A   0      -6.650  20.894  64.658  1.00  0.00    -0.519 NA 
HETATM   18  N   UNK A   0      -6.388  18.981  65.913  1.00  0.00    -0.200 N  
ENDROOT
BRANCH   4  19
HETATM   19  C   UNK A   0     -10.892  16.419  69.472  1.00  0.00    -0.338 C  
BRANCH  19  20
HETATM   20  N   UNK A   0     -11.834  15.706  68.593  1.00  0.00    -0.505 NA 
HETATM   21  H   UNK A   0     -12.524  16.208  68.034  1.00  0.00     0.000 HD 
BRANCH  20  22
HETATM   22  C   UNK A   0     -11.742  14.310  68.557  1.00  0.00    -0.341 A  
HETATM   23  C   UNK A   0     -11.269  12.313  67.242  1.00  0.00    -0.358 A  
HETATM   24  C   UNK A   0     -11.255  11.545  68.410  1.00  0.00    -0.314 A  
HETATM   25  C   UNK A   0     -11.847  13.501  69.696  1.00  0.00    -0.398 A  
HETATM   26  C   UNK A   0     -11.522  13.689  67.321  1.00  0.00    -0.370 A  
HETATM   27  C   UNK A   0     -11.598  12.132  69.630  1.00  0.00    -0.361 A  
BRANCH  24  28
HETATM   28  C   UNK A   0     -10.876  10.113  68.350  1.00  0.00    -0.242 C  
ATOM     29  H   GLU A   1     -11.214   9.899  70.409  1.00  0.00     0.000 HD 
ATOM     30  N   GLU A   1     -10.876   9.438  69.564  1.00  0.00    -0.232 N  
HETATM   31  O   UNK A   0     -10.555   9.591  67.291  1.00  0.00    -0.264 OA 
BRANCH  30  32
ATOM     32  CA  GLU A   1     -10.383   8.049  69.623  1.00  0.00    -0.220 C  
ATOM     33  C   GLU A   1     -11.318   7.212  70.517  1.00  0.00    -0.297 C  
ATOM     34  O   GLU A   1     -11.999   7.960  71.421  1.00  0.00    -0.291 OA 
ATOM     35  OXT GLU A   1     -11.342   5.989  70.535  1.00  0.00    -0.323 OA 
BRANCH  32  36
ATOM     36  CB  GLU A   1      -8.953   8.015  70.185  1.00  0.00    -0.150 C  
BRANCH  36  37
ATOM     37  CG  GLU A   1      -8.792   8.847  71.462  1.00  0.00    -0.253 C  
ATOM     38  CD  GLU A   1      -8.104   8.084  72.566  1.00  0.00    -0.135 C  
ATOM     39  OE2 GLU A   1      -7.721   6.928  72.487  1.00  0.00    -0.094 OA 
ATOM     40  OE1 GLU A   1      -7.942   8.835  73.679  1.00  0.00    -0.404 OA 
ENDBRANCH  36  37
ENDBRANCH  32  36
ENDBRANCH  30  32
ENDBRANCH  24  28
ENDBRANCH  20  22
ENDBRANCH  19  20
ENDBRANCH   4  19
TORSDOF 7
ENDMDL
MODEL       37
REMARK 921   NORMALIZED FREE ENERGY PREDICTED BY IDOCK:   -6.88 KCAL/MOL
REMARK 922        TOTAL FREE ENERGY PREDICTED BY IDOCK:  -10.97 KCAL/MOL
REMARK 923 INTER-LIGAND FREE ENERGY PREDICTED BY IDOCK:   -9.95 KCAL/MOL
REMARK 924 INTRA-LIGAND FREE ENERGY PREDICTED BY IDOCK:   -1.02 KCAL/MOL
REMARK 927      BINDING AFFINITY PREDICTED BY RF-SCORE:    0.00 PKD
ROOT
HETATM    1  C   UNK A   0     -12.462   6.647  71.726  1.00  0.00    -0.311 C  
HETATM    2  N   UNK A   0     -11.261   7.103  72.252  1.00  0.00    -0.251 N  
HETATM    3  O   UNK A   0     -13.340   7.330  71.207  1.00  0.00    -0.369 OA 
HETATM    4  C   UNK A   0     -10.899   8.568  72.235  1.00  0.00    -0.348 C  
HETATM    5  C   UNK A   0      -9.417   8.711  71.819  1.00  0.00    -0.284 C  
HETATM    6  C   UNK A   0      -8.387   4.606  73.971  1.00  0.00    -0.103 C  
HETATM    7  H   UNK A   0      -9.757   3.084  73.859  1.00  0.00     0.000 HD 
HETATM    8  N   UNK A   0      -8.614   7.893  72.711  1.00  0.00    -0.152 NA 
HETATM    9  H   UNK A   0      -7.730   8.257  73.066  1.00  0.00     0.000 HD 
HETATM   10  H2  UNK A   0      -7.716   2.828  74.813  1.00  0.00     0.000 HD 
HETATM   11  C   UNK A   0      -9.029   6.626  73.089  1.00  0.00    -0.127 C  
HETATM   12  O   UNK A   0     -11.797   4.419  73.387  1.00  0.00    -0.188 OA 
HETATM   13  C   UNK A   0     -10.314   6.241  72.861  1.00  0.00    -0.207 C  
HETATM   14  H1  UNK A   0      -6.561   4.181  74.744  1.00  0.00     0.000 HD 
HETATM   15  C   UNK A   0     -10.652   4.857  73.317  1.00  0.00    -0.232 C  
HETATM   16  N   UNK A   0      -8.078   5.820  73.666  1.00  0.00    -0.111 NA 
HETATM   17  N   UNK A   0      -7.485   3.789  74.562  1.00  0.00    -0.061 NA 
HETATM   18  N   UNK A   0      -9.611   4.085  73.729  1.00  0.00    -0.105 N  
ENDROOT
BRANCH   4  19
HETATM   19  C   UNK A   0     -11.781   9.493  71.368  1.00  0.00    -0.393 C  
BRANCH  19  20
HETATM   20  N   UNK A   0     -11.478   9.357  69.934  1.00  0.00    -0.436 NA 
HETATM   21  H   UNK A   0     -11.241   8.454  69.524  1.00  0.00     0.000 HD 
BRANCH  20  22
HETATM   22  C   UNK A   0     -11.529  10.521  69.158  1.00  0.00    -0.247 A  
HETATM   23  C   UNK A   0     -11.781  12.944  69.100  1.00  0.00    -0.376 A  
HETATM   24  C   UNK A   0     -11.380  12.955  67.760  1.00  0.00    -0.343 A  
HETATM   25  C   UNK A   0     -11.252  10.544  67.785  1.00  0.00    -0.344 A  
HETATM   26  C   UNK A   0     -11.862  11.726  69.788  1.00  0.00    -0.420 A  
HETATM   27  C   UNK A   0     -11.169  11.748  67.089  1.00  0.00    -0.375 A  
BRANCH  24  28
HETATM   28  C   UNK A   0     -11.180  14.245  67.057  1.00  0.00    -0.323 C  
ATOM     29  H   GLU A   1      -9.520  14.685  68.261  1.00  0.00     0.000 HD 
ATOM     30  N   GLU A   1     -10.145  15.038  67.536  1.00  0.00    -0.228 N  
HETATM   31  O   UNK A   0     -11.914  14.582  66.138  1.00  0.00    -0.372 OA 
BRANCH  30  32
ATOM     32  CA  GLU A   1      -9.956  16.395  66.989  1.00  0.00    -0.261 C  
ATOM     33  C   GLU A   1      -8.489  16.571  66.555  1.00  0.00    -0.293 C  
ATOM     34  O   GLU A   1      -7.637  15.743  67.210  1.00  0.00    -0.170 OA 
ATOM     35  OXT GLU A   1      -8.091  17.463  65.818  1.00  0.00    -0.543 OA 
BRANCH  32  36
ATOM     36  CB  GLU A   1     -10.320  17.449  68.046  1.00  0.00    -0.362 C  
BRANCH  36  37
ATOM     37  CG  GLU A   1     -10.604  18.829  67.442  1.00  0.00    -0.505 C  
ATOM     38  CD  GLU A   1      -9.617  19.873  67.897  1.00  0.00    -0.375 C  
ATOM     39  OE2 GLU A   1      -8.693  19.678  68.671  1.00  0.00    -0.343 OA 
ATOM     40  OE1 GLU A   1      -9.860  21.081  67.338  1.00  0.00    -0.393 OA 
ENDBRANCH  36  37
ENDBRANCH  32  36
ENDBRANCH  30  32
ENDBRANCH  24  28
ENDBRANCH  20  22
ENDBRANCH  19  20
ENDBRANCH   4  19
TORSDOF 7
ENDMDL
MODEL       38
REMARK 921   NORMALIZED FREE ENERGY PREDICTED BY IDOCK:   -6.86 KCAL/MOL
REMARK 922        TOTAL FREE ENERGY PREDICTED BY IDOCK:  -10.94 KCAL/MOL
REMARK 923 INTER-LIGAND FREE ENERGY PREDICTED BY IDOCK:   -9.94 KCAL/MOL
REMARK 924 INTRA-LIGAND FREE ENERGY PREDICTED BY IDOCK:   -1.00 KCAL/MOL
REMARK 927      BINDING AFFINITY PREDICTED BY RF-SCORE:    0.00 PKD
ROOT
HETATM    1  C   UNK A   0      -8.860  14.568  66.718  1.00  0.00    -0.220 C  
HETATM    2  N   UNK A   0      -9.810  15.432  66.191  1.00  0.00    -0.288 N  
HETATM    3  O   UNK A   0      -8.846  13.345  66.616  1.00  0.00    -0.176 OA 
HETATM    4  C   UNK A   0     -10.985  14.920  65.395  1.00  0.00    -0.364 C  
HETATM    5  C   UNK A   0     -11.184  15.829  64.160  1.00  0.00     0.088 C  
HETATM    6  C   UNK A   0      -9.672  19.583  66.644  1.00  0.00    -0.375 C  
HETATM    7  H   UNK A   0      -8.137  19.307  67.976  1.00  0.00     0.000 HD 
HETATM    8  N   UNK A   0     -11.310  17.201  64.622  1.00  0.00    -0.838 NA 
HETATM    9  H   UNK A   0     -12.011  17.810  64.200  1.00  0.00     0.000 HD 
HETATM   10  H2  UNK A   0      -9.014  21.348  67.522  1.00  0.00     0.000 HD 
HETATM   11  C   UNK A   0     -10.494  17.696  65.627  1.00  0.00    -0.144 C  
HETATM   12  O   UNK A   0      -8.368  16.863  68.348  1.00  0.00    -0.218 OA 
HETATM   13  C   UNK A   0      -9.761  16.836  66.385  1.00  0.00    -0.290 C  
HETATM   14  H1  UNK A   0     -10.260  21.485  66.257  1.00  0.00     0.000 HD 
HETATM   15  C   UNK A   0      -8.923  17.480  67.444  1.00  0.00    -0.230 C  
HETATM   16  N   UNK A   0     -10.468  19.061  65.774  1.00  0.00    -0.569 NA 
HETATM   17  N   UNK A   0      -9.635  20.922  66.835  1.00  0.00    -0.669 NA 
HETATM   18  N   UNK A   0      -8.843  18.838  67.409  1.00  0.00    -0.268 N  
ENDROOT
BRANCH   4  19
HETATM   19  C   UNK A   0     -10.937  13.440  64.957  1.00  0.00    -0.316 C  
BRANCH  19  20
HETATM   20  N   UNK A   0     -11.895  12.613  65.709  1.00  0.00    -0.425 NA 
HETATM   21  H   UNK A   0     -12.902  12.711  65.576  1.00  0.00     0.000 HD 
BRANCH  20  22
HETATM   22  C   UNK A   0     -11.366  11.685  66.613  1.00  0.00    -0.270 A  
HETATM   23  C   UNK A   0     -11.266  10.879  68.911  1.00  0.00    -0.327 A  
HETATM   24  C   UNK A   0     -10.597   9.729  68.480  1.00  0.00    -0.252 A  
HETATM   25  C   UNK A   0     -10.587  10.588  66.223  1.00  0.00    -0.203 A  
HETATM   26  C   UNK A   0     -11.638  11.855  67.976  1.00  0.00    -0.401 A  
HETATM   27  C   UNK A   0     -10.210   9.612  67.143  1.00  0.00    -0.305 A  
BRANCH  24  28
HETATM   28  C   UNK A   0     -10.302   8.640  69.441  1.00  0.00    -0.218 C  
ATOM     29  H   GLU A   1     -12.154   8.921  70.384  1.00  0.00     0.000 HD 
ATOM     30  N   GLU A   1     -11.268   8.418  70.415  1.00  0.00    -0.244 N  
HETATM   31  O   UNK A   0      -9.253   8.013  69.381  1.00  0.00    -0.151 OA 
BRANCH  30  32
ATOM     32  CA  GLU A   1     -11.002   7.448  71.494  1.00  0.00    -0.230 C  
ATOM     33  C   GLU A   1     -12.267   6.607  71.748  1.00  0.00    -0.353 C  
ATOM     34  O   GLU A   1     -13.408   7.235  71.371  1.00  0.00    -0.383 OA 
ATOM     35  OXT GLU A   1     -12.280   5.552  72.368  1.00  0.00    -0.089 OA 
BRANCH  32  36
ATOM     36  CB  GLU A   1     -10.594   8.182  72.781  1.00  0.00    -0.386 C  
BRANCH  36  37
ATOM     37  CG  GLU A   1      -9.111   8.006  73.126  1.00  0.00    -0.341 C  
ATOM     38  CD  GLU A   1      -8.868   6.843  74.053  1.00  0.00    -0.170 C  
ATOM     39  OE2 GLU A   1      -9.734   6.113  74.507  1.00  0.00    -0.213 OA 
ATOM     40  OE1 GLU A   1      -7.554   6.679  74.330  1.00  0.00    -0.097 OA 
ENDBRANCH  36  37
ENDBRANCH  32  36
ENDBRANCH  30  32
ENDBRANCH  24  28
ENDBRANCH  20  22
ENDBRANCH  19  20
ENDBRANCH   4  19
TORSDOF 7
ENDMDL
MODEL       39
REMARK 921   NORMALIZED FREE ENERGY PREDICTED BY IDOCK:   -6.84 KCAL/MOL
REMARK 922        TOTAL FREE ENERGY PREDICTED BY IDOCK:  -10.90 KCAL/MOL
REMARK 923 INTER-LIGAND FREE ENERGY PREDICTED BY IDOCK:   -9.94 KCAL/MOL
REMARK 924 INTRA-LIGAND FREE ENERGY PREDICTED BY IDOCK:   -0.96 KCAL/MOL
REMARK 927      BINDING AFFINITY PREDICTED BY RF-SCORE:    0.00 PKD
ROOT
HETATM    1  C   UNK A   0     -10.396   4.011  72.877  1.00  0.00    -0.167 C  
HETATM    2  N   UNK A   0     -10.229   4.573  71.620  1.00  0.00    -0.177 N  
HETATM    3  O   UNK A   0     -10.914   4.544  73.855  1.00  0.00    -0.280 OA 
HETATM    4  C   UNK A   0     -10.695   5.976  71.315  1.00  0.00    -0.263 C  
HETATM    5  C   UNK A   0     -11.388   5.982  69.933  1.00  0.00    -0.285 C  
HETATM    6  C   UNK A   0      -8.443   2.582  68.410  1.00  0.00    -0.069 C  
HETATM    7  H   UNK A   0      -7.907   1.105  69.728  1.00  0.00     0.000 HD 
HETATM    8  N   UNK A   0     -10.466   5.420  68.961  1.00  0.00    -0.209 NA 
HETATM    9  H   UNK A   0     -10.381   5.853  68.041  1.00  0.00     0.000 HD 
HETATM   10  H2  UNK A   0      -7.293   1.083  67.545  1.00  0.00     0.000 HD 
HETATM   11  C   UNK A   0      -9.700   4.305  69.262  1.00  0.00    -0.170 C  
HETATM   12  O   UNK A   0      -8.350   2.296  71.861  1.00  0.00    -0.055 OA 
HETATM   13  C   UNK A   0      -9.590   3.891  70.553  1.00  0.00    -0.193 C  
HETATM   14  H1  UNK A   0      -7.918   2.353  66.465  1.00  0.00     0.000 HD 
HETATM   15  C   UNK A   0      -8.733   2.683  70.762  1.00  0.00    -0.065 C  
HETATM   16  N   UNK A   0      -9.108   3.668  68.200  1.00  0.00    -0.135 NA 
HETATM   17  N   UNK A   0      -7.825   1.939  67.393  1.00  0.00    -0.060 NA 
HETATM   18  N   UNK A   0      -8.321   2.033  69.640  1.00  0.00    -0.044 N  
ENDROOT
BRANCH   4  19
HETATM   19  C   UNK A   0     -11.606   6.650  72.364  1.00  0.00    -0.245 C  
BRANCH  19  20
HETATM   20  N   UNK A   0     -11.136   8.000  72.715  1.00  0.00    -0.392 NA 
HETATM   21  H   UNK A   0     -10.652   8.183  73.594  1.00  0.00     0.000 HD 
BRANCH  20  22
HETATM   22  C   UNK A   0     -11.381   9.022  71.792  1.00  0.00    -0.377 A  
HETATM   23  C   UNK A   0     -12.882  10.781  71.021  1.00  0.00    -0.480 A  
HETATM   24  C   UNK A   0     -11.878  11.271  70.180  1.00  0.00    -0.449 A  
HETATM   25  C   UNK A   0     -10.437   9.455  70.852  1.00  0.00    -0.381 A  
HETATM   26  C   UNK A   0     -12.631   9.654  71.814  1.00  0.00    -0.497 A  
HETATM   27  C   UNK A   0     -10.674  10.574  70.057  1.00  0.00    -0.282 A  
BRANCH  24  28
HETATM   28  C   UNK A   0     -12.094  12.528  69.424  1.00  0.00    -0.180 C  
ATOM     29  H   GLU A   1     -11.725  11.544  67.609  1.00  0.00     0.000 HD 
ATOM     30  N   GLU A   1     -11.904  12.446  68.051  1.00  0.00    -0.352 N  
HETATM   31  O   UNK A   0     -12.387  13.567  70.001  1.00  0.00    -0.307 OA 
BRANCH  30  32
ATOM     32  CA  GLU A   1     -11.964  13.673  67.234  1.00  0.00    -0.381 C  
ATOM     33  C   GLU A   1     -12.519  13.331  65.838  1.00  0.00    -0.368 C  
ATOM     34  O   GLU A   1     -12.324  12.034  65.492  1.00  0.00    -0.460 OA 
ATOM     35  OXT GLU A   1     -12.947  14.159  65.045  1.00  0.00    -0.721 OA 
BRANCH  32  36
ATOM     36  CB  GLU A   1     -10.565  14.295  67.105  1.00  0.00    -0.279 C  
BRANCH  36  37
ATOM     37  CG  GLU A   1     -10.590  15.827  67.088  1.00  0.00    -0.313 C  
ATOM     38  CD  GLU A   1     -10.337  16.394  65.714  1.00  0.00    -0.369 C  
ATOM     39  OE2 GLU A   1     -10.119  15.734  64.711  1.00  0.00    -0.330 OA 
ATOM     40  OE1 GLU A   1     -10.388  17.746  65.704  1.00  0.00    -0.612 OA 
ENDBRANCH  36  37
ENDBRANCH  32  36
ENDBRANCH  30  32
ENDBRANCH  24  28
ENDBRANCH  20  22
ENDBRANCH  19  20
ENDBRANCH   4  19
TORSDOF 7
ENDMDL
MODEL       40
REMARK 921   NORMALIZED FREE ENERGY PREDICTED BY IDOCK:   -6.82 KCAL/MOL
REMARK 922        TOTAL FREE ENERGY PREDICTED BY IDOCK:  -10.89 KCAL/MOL
REMARK 923 INTER-LIGAND FREE ENERGY PREDICTED BY IDOCK:   -9.89 KCAL/MOL
REMARK 924 INTRA-LIGAND FREE ENERGY PREDICTED BY IDOCK:   -1.00 KCAL/MOL
REMARK 927      BINDING AFFINITY PREDICTED BY RF-SCORE:    0.00 PKD
ROOT
HETATM    1  C   UNK A   0     -11.011   6.821  72.919  1.00  0.00    -0.263 C  
HETATM    2  N   UNK A   0     -10.351   6.636  71.712  1.00  0.00    -0.196 N  
HETATM    3  O   UNK A   0     -11.273   7.895  73.453  1.00  0.00    -0.275 OA 
HETATM    4  C   UNK A   0      -9.864   7.806  70.893  1.00  0.00    -0.175 C  
HETATM    5  C   UNK A   0     -10.195   7.544  69.405  1.00  0.00    -0.204 C  
HETATM    6  C   UNK A   0      -9.564   2.883  70.053  1.00  0.00    -0.051 C  
HETATM    7  H   UNK A   0     -10.199   2.057  71.820  1.00  0.00     0.000 HD 
HETATM    8  N   UNK A   0      -9.629   6.260  69.033  1.00  0.00    -0.127 NA 
HETATM    9  H   UNK A   0      -9.164   6.158  68.131  1.00  0.00     0.000 HD 
HETATM   10  H2  UNK A   0      -9.374   0.814  70.113  1.00  0.00     0.000 HD 
HETATM   11  C   UNK A   0      -9.709   5.168  69.883  1.00  0.00    -0.199 C  
HETATM   12  O   UNK A   0     -10.204   4.098  73.234  1.00  0.00    -0.138 OA 
HETATM   13  C   UNK A   0     -10.065   5.352  71.184  1.00  0.00    -0.212 C  
HETATM   14  H1  UNK A   0      -8.968   1.624  68.580  1.00  0.00     0.000 HD 
HETATM   15  C   UNK A   0     -10.112   4.106  72.010  1.00  0.00    -0.164 C  
HETATM   16  N   UNK A   0      -9.435   3.942  69.329  1.00  0.00    -0.179 NA 
HETATM   17  N   UNK A   0      -9.280   1.660  69.550  1.00  0.00    -0.100 NA 
HETATM   18  N   UNK A   0      -9.979   2.930  71.340  1.00  0.00    -0.089 N  
ENDROOT
BRANCH   4  19
HETATM   19  C   UNK A   0     -10.370   9.205  71.307  1.00  0.00    -0.334 C  
BRANCH  19  20
HETATM   20  N   UNK A   0     -11.689   9.507  70.726  1.00  0.00    -0.289 NA 
HETATM   21  H   UNK A   0     -12.483   8.880  70.854  1.00  0.00     0.000 HD 
BRANCH  20  22
HETATM   22  C   UNK A   0     -11.807  10.692  69.991  1.00  0.00    -0.322 A  
HETATM   23  C   UNK A   0     -12.079  13.114  70.023  1.00  0.00    -0.375 A  
HETATM   24  C   UNK A   0     -11.781  13.167  68.657  1.00  0.00    -0.362 A  
HETATM   25  C   UNK A   0     -11.634  10.757  68.602  1.00  0.00    -0.342 A  
HETATM   26  C   UNK A   0     -12.100  11.876  70.679  1.00  0.00    -0.389 A  
HETATM   27  C   UNK A   0     -11.613  11.982  67.938  1.00  0.00    -0.405 A  
BRANCH  24  28
HETATM   28  C   UNK A   0     -11.644  14.478  67.980  1.00  0.00    -0.336 C  
ATOM     29  H   GLU A   1     -10.868  13.553  66.265  1.00  0.00     0.000 HD 
ATOM     30  N   GLU A   1     -11.076  14.446  66.713  1.00  0.00    -0.315 N  
HETATM   31  O   UNK A   0     -11.985  15.513  68.537  1.00  0.00    -0.319 OA 
BRANCH  30  32
ATOM     32  CA  GLU A   1     -10.776  15.712  66.018  1.00  0.00    -0.317 C  
ATOM     33  C   GLU A   1     -11.356  15.663  64.592  1.00  0.00    -0.349 C  
ATOM     34  O   GLU A   1     -11.508  14.399  64.124  1.00  0.00    -0.250 OA 
ATOM     35  OXT GLU A   1     -11.519  16.644  63.881  1.00  0.00    -1.186 OA 
BRANCH  32  36
ATOM     36  CB  GLU A   1      -9.257  15.939  65.959  1.00  0.00    -0.372 C  
BRANCH  36  37
ATOM     37  CG  GLU A   1      -8.749  16.881  67.055  1.00  0.00    -0.230 C  
ATOM     38  CD  GLU A   1      -9.107  18.321  66.791  1.00  0.00    -0.284 C  
ATOM     39  OE2 GLU A   1      -9.720  18.725  65.816  1.00  0.00    -0.450 OA 
ATOM     40  OE1 GLU A   1      -8.679  19.141  67.778  1.00  0.00    -0.290 OA 
ENDBRANCH  36  37
ENDBRANCH  32  36
ENDBRANCH  30  32
ENDBRANCH  24  28
ENDBRANCH  20  22
ENDBRANCH  19  20
ENDBRANCH   4  19
TORSDOF 7
ENDMDL
MODEL       41
REMARK 921   NORMALIZED FREE ENERGY PREDICTED BY IDOCK:   -6.82 KCAL/MOL
REMARK 922        TOTAL FREE ENERGY PREDICTED BY IDOCK:  -10.89 KCAL/MOL
REMARK 923 INTER-LIGAND FREE ENERGY PREDICTED BY IDOCK:   -9.52 KCAL/MOL
REMARK 924 INTRA-LIGAND FREE ENERGY PREDICTED BY IDOCK:   -1.37 KCAL/MOL
REMARK 927      BINDING AFFINITY PREDICTED BY RF-SCORE:    0.00 PKD
ROOT
HETATM    1  C   UNK A   0     -12.412  14.440  65.324  1.00  0.00    -0.356 C  
HETATM    2  N   UNK A   0     -11.549  14.786  66.354  1.00  0.00    -0.336 N  
HETATM    3  O   UNK A   0     -12.901  13.332  65.119  1.00  0.00    -0.670 OA 
HETATM    4  C   UNK A   0     -11.105  13.775  67.383  1.00  0.00    -0.296 C  
HETATM    5  C   UNK A   0     -11.155  14.431  68.782  1.00  0.00    -0.257 C  
HETATM    6  C   UNK A   0      -9.997  18.628  66.886  1.00  0.00    -0.345 C  
HETATM    7  H   UNK A   0     -10.785  19.113  65.056  1.00  0.00     0.000 HD 
HETATM    8  N   UNK A   0     -10.364  15.649  68.740  1.00  0.00    -0.211 NA 
HETATM    9  H   UNK A   0      -9.753  15.877  69.524  1.00  0.00     0.000 HD 
HETATM   10  H2  UNK A   0      -9.535  20.560  66.274  1.00  0.00     0.000 HD 
HETATM   11  C   UNK A   0     -10.427  16.507  67.654  1.00  0.00    -0.305 C  
HETATM   12  O   UNK A   0     -11.297  16.830  64.225  1.00  0.00    -1.170 OA 
HETATM   13  C   UNK A   0     -11.008  16.089  66.497  1.00  0.00    -0.080 C  
HETATM   14  H1  UNK A   0      -9.006  20.074  67.904  1.00  0.00     0.000 HD 
HETATM   15  C   UNK A   0     -11.013  17.094  65.389  1.00  0.00     0.035 C  
HETATM   16  N   UNK A   0      -9.902  17.762  67.837  1.00  0.00    -0.294 NA 
HETATM   17  N   UNK A   0      -9.470  19.867  67.020  1.00  0.00    -0.356 NA 
HETATM   18  N   UNK A   0     -10.614  18.353  65.714  1.00  0.00    -0.357 N  
ENDROOT
BRANCH   4  19
HETATM   19  C   UNK A   0     -11.858  12.427  67.406  1.00  0.00    -0.289 C  
BRANCH  19  20
HETATM   20  N   UNK A   0     -11.112  11.367  66.709  1.00  0.00    -0.294 NA 
HETATM   21  H   UNK A   0     -10.856  11.454  65.726  1.00  0.00     0.000 HD 
BRANCH  20  22
HETATM   22  C   UNK A   0     -10.768  10.233  67.454  1.00  0.00    -0.281 A  
HETATM   23  C   UNK A   0     -10.593   9.191  69.651  1.00  0.00    -0.237 A  
HETATM   24  C   UNK A   0     -10.375   7.949  69.046  1.00  0.00    -0.223 A  
HETATM   25  C   UNK A   0     -10.425   9.005  66.875  1.00  0.00    -0.293 A  
HETATM   26  C   UNK A   0     -10.778  10.327  68.851  1.00  0.00    -0.256 A  
HETATM   27  C   UNK A   0     -10.237   7.868  67.658  1.00  0.00    -0.289 A  
BRANCH  24  28
HETATM   28  C   UNK A   0     -10.293   6.725  69.877  1.00  0.00    -0.203 C  
ATOM     29  H   GLU A   1      -9.715   7.853  71.547  1.00  0.00     0.000 HD 
ATOM     30  N   GLU A   1      -9.863   6.912  71.185  1.00  0.00    -0.177 N  
HETATM   31  O   UNK A   0     -10.561   5.626  69.409  1.00  0.00    -0.272 OA 
BRANCH  30  32
ATOM     32  CA  GLU A   1      -9.622   5.738  72.045  1.00  0.00    -0.150 C  
ATOM     33  C   GLU A   1     -10.511   5.833  73.300  1.00  0.00    -0.233 C  
ATOM     34  O   GLU A   1     -10.870   7.105  73.601  1.00  0.00    -0.352 OA 
ATOM     35  OXT GLU A   1     -10.747   4.895  74.049  1.00  0.00    -0.279 OA 
BRANCH  32  36
ATOM     36  CB  GLU A   1      -8.143   5.674  72.455  1.00  0.00    -0.107 C  
BRANCH  36  37
ATOM     37  CG  GLU A   1      -7.385   6.974  72.166  1.00  0.00    -0.082 C  
ATOM     38  CD  GLU A   1      -7.116   7.776  73.415  1.00  0.00    -0.092 C  
ATOM     39  OE2 GLU A   1      -7.464   7.459  74.541  1.00  0.00    -0.117 OA 
ATOM     40  OE1 GLU A   1      -6.423   8.908  73.154  1.00  0.00    -0.292 OA 
ENDBRANCH  36  37
ENDBRANCH  32  36
ENDBRANCH  30  32
ENDBRANCH  24  28
ENDBRANCH  20  22
ENDBRANCH  19  20
ENDBRANCH   4  19
TORSDOF 7
ENDMDL
MODEL       42
REMARK 921   NORMALIZED FREE ENERGY PREDICTED BY IDOCK:   -6.82 KCAL/MOL
REMARK 922        TOTAL FREE ENERGY PREDICTED BY IDOCK:  -10.88 KCAL/MOL
REMARK 923 INTER-LIGAND FREE ENERGY PREDICTED BY IDOCK:   -9.78 KCAL/MOL
REMARK 924 INTRA-LIGAND FREE ENERGY PREDICTED BY IDOCK:   -1.10 KCAL/MOL
REMARK 927      BINDING AFFINITY PREDICTED BY RF-SCORE:    0.00 PKD
ROOT
HETATM    1  C   UNK A   0     -11.845  14.887  66.043  1.00  0.00    -0.114 C  
HETATM    2  N   UNK A   0     -11.099  15.493  67.044  1.00  0.00    -0.284 N  
HETATM    3  O   UNK A   0     -12.196  13.711  66.001  1.00  0.00    -0.408 OA 
HETATM    4  C   UNK A   0     -10.622  14.719  68.249  1.00  0.00    -0.241 C  
HETATM    5  C   UNK A   0     -10.841  15.581  69.514  1.00  0.00    -0.267 C  
HETATM    6  C   UNK A   0     -10.010  19.526  67.005  1.00  0.00    -0.378 C  
HETATM    7  H   UNK A   0     -10.715  19.615  65.081  1.00  0.00     0.000 HD 
HETATM    8  N   UNK A   0     -10.185  16.861  69.310  1.00  0.00    -0.285 NA 
HETATM    9  H   UNK A   0      -9.657  17.282  70.075  1.00  0.00     0.000 HD 
HETATM   10  H2  UNK A   0      -9.716  21.375  66.103  1.00  0.00     0.000 HD 
HETATM   11  C   UNK A   0     -10.263  17.520  68.094  1.00  0.00    -0.359 C  
HETATM   12  O   UNK A   0     -10.919  17.184  64.619  1.00  0.00    -1.005 OA 
HETATM   13  C   UNK A   0     -10.712  16.856  66.994  1.00  0.00    -0.153 C  
HETATM   14  H1  UNK A   0      -9.254  21.223  67.817  1.00  0.00     0.000 HD 
HETATM   15  C   UNK A   0     -10.747  17.663  65.736  1.00  0.00    -0.110 C  
HETATM   16  N   UNK A   0      -9.889  18.842  68.091  1.00  0.00    -0.333 NA 
HETATM   17  N   UNK A   0      -9.630  20.824  66.957  1.00  0.00    -0.681 NA 
HETATM   18  N   UNK A   0     -10.510  18.997  65.866  1.00  0.00    -0.460 N  
ENDROOT
BRANCH   4  19
HETATM   19  C   UNK A   0     -11.226  13.314  68.458  1.00  0.00    -0.271 C  
BRANCH  19  20
HETATM   20  N   UNK A   0     -10.250  12.248  68.177  1.00  0.00    -0.206 NA 
HETATM   21  H   UNK A   0      -9.521  12.366  67.474  1.00  0.00     0.000 HD 
BRANCH  20  22
HETATM   22  C   UNK A   0     -10.367  11.065  68.915  1.00  0.00    -0.205 A  
HETATM   23  C   UNK A   0     -11.484   9.870  70.722  1.00  0.00    -0.433 A  
HETATM   24  C   UNK A   0     -10.896   8.674  70.297  1.00  0.00    -0.250 A  
HETATM   25  C   UNK A   0      -9.694   9.881  68.586  1.00  0.00    -0.163 A  
HETATM   26  C   UNK A   0     -11.208  11.060  70.035  1.00  0.00    -0.303 A  
HETATM   27  C   UNK A   0      -9.959   8.692  69.262  1.00  0.00    -0.195 A  
BRANCH  24  28
HETATM   28  C   UNK A   0     -11.271   7.394  70.944  1.00  0.00    -0.270 C  
ATOM     29  H   GLU A   1      -9.283   7.065  71.527  1.00  0.00     0.000 HD 
ATOM     30  N   GLU A   1     -10.223   6.669  71.498  1.00  0.00    -0.197 N  
HETATM   31  O   UNK A   0     -12.431   7.007  70.948  1.00  0.00    -0.366 OA 
BRANCH  30  32
ATOM     32  CA  GLU A   1     -10.479   5.323  72.043  1.00  0.00    -0.222 C  
ATOM     33  C   GLU A   1     -10.669   5.417  73.569  1.00  0.00    -0.287 C  
ATOM     34  O   GLU A   1     -10.067   6.503  74.114  1.00  0.00    -0.287 OA 
ATOM     35  OXT GLU A   1     -11.167   4.536  74.257  1.00  0.00    -0.218 OA 
BRANCH  32  36
ATOM     36  CB  GLU A   1      -9.306   4.386  71.718  1.00  0.00    -0.195 C  
BRANCH  36  37
ATOM     37  CG  GLU A   1      -9.611   3.422  70.566  1.00  0.00    -0.231 C  
ATOM     38  CD  GLU A   1      -9.086   3.919  69.243  1.00  0.00    -0.132 C  
ATOM     39  OE2 GLU A   1      -8.494   4.973  69.073  1.00  0.00    -0.083 OA 
ATOM     40  OE1 GLU A   1      -9.336   3.050  68.237  1.00  0.00    -0.185 OA 
ENDBRANCH  36  37
ENDBRANCH  32  36
ENDBRANCH  30  32
ENDBRANCH  24  28
ENDBRANCH  20  22
ENDBRANCH  19  20
ENDBRANCH   4  19
TORSDOF 7
ENDMDL
MODEL       43
REMARK 921   NORMALIZED FREE ENERGY PREDICTED BY IDOCK:   -6.81 KCAL/MOL
REMARK 922        TOTAL FREE ENERGY PREDICTED BY IDOCK:  -10.86 KCAL/MOL
REMARK 923 INTER-LIGAND FREE ENERGY PREDICTED BY IDOCK:   -9.86 KCAL/MOL
REMARK 924 INTRA-LIGAND FREE ENERGY PREDICTED BY IDOCK:   -1.00 KCAL/MOL
REMARK 927      BINDING AFFINITY PREDICTED BY RF-SCORE:    0.00 PKD
ROOT
HETATM    1  C   UNK A   0     -12.361  14.027  65.256  1.00  0.00    -0.465 C  
HETATM    2  N   UNK A   0     -11.335  14.421  66.103  1.00  0.00    -0.343 N  
HETATM    3  O   UNK A   0     -12.814  12.893  65.134  1.00  0.00    -0.702 OA 
HETATM    4  C   UNK A   0     -10.638  13.435  67.009  1.00  0.00    -0.264 C  
HETATM    5  C   UNK A   0     -10.451  14.082  68.401  1.00  0.00    -0.253 C  
HETATM    6  C   UNK A   0      -9.938  18.349  66.381  1.00  0.00    -0.386 C  
HETATM    7  H   UNK A   0     -11.097  18.792  64.747  1.00  0.00     0.000 HD 
HETATM    8  N   UNK A   0      -9.757  15.346  68.224  1.00  0.00    -0.207 NA 
HETATM    9  H   UNK A   0      -9.018  15.608  68.876  1.00  0.00     0.000 HD 
HETATM   10  H2  UNK A   0      -9.719  20.307  65.720  1.00  0.00     0.000 HD 
HETATM   11  C   UNK A   0     -10.083  16.203  67.185  1.00  0.00    -0.269 C  
HETATM   12  O   UNK A   0     -11.627  16.485  63.998  1.00  0.00    -1.154 OA 
HETATM   13  C   UNK A   0     -10.854  15.754  66.157  1.00  0.00    -0.240 C  
HETATM   14  H1  UNK A   0      -8.853  19.849  67.207  1.00  0.00     0.000 HD 
HETATM   15  C   UNK A   0     -11.135  16.761  65.088  1.00  0.00    -0.033 C  
HETATM   16  N   UNK A   0      -9.607  17.487  67.281  1.00  0.00    -0.267 NA 
HETATM   17  N   UNK A   0      -9.469  19.617  66.428  1.00  0.00    -0.375 NA 
HETATM   18  N   UNK A   0     -10.755  18.041  65.348  1.00  0.00    -0.095 N  
ENDROOT
BRANCH   4  19
HETATM   19  C   UNK A   0     -11.292  12.044  67.158  1.00  0.00    -0.333 C  
BRANCH  19  20
HETATM   20  N   UNK A   0     -12.196  11.983  68.318  1.00  0.00    -0.314 NA 
HETATM   21  H   UNK A   0     -12.961  12.647  68.432  1.00  0.00     0.000 HD 
BRANCH  20  22
HETATM   22  C   UNK A   0     -11.960  10.974  69.258  1.00  0.00    -0.339 A  
HETATM   23  C   UNK A   0     -10.609   9.057  69.923  1.00  0.00    -0.240 A  
HETATM   24  C   UNK A   0     -11.204   9.074  71.189  1.00  0.00    -0.375 A  
HETATM   25  C   UNK A   0     -12.629  10.893  70.487  1.00  0.00    -0.409 A  
HETATM   26  C   UNK A   0     -10.998  10.000  68.962  1.00  0.00    -0.249 A  
HETATM   27  C   UNK A   0     -12.253   9.959  71.450  1.00  0.00    -0.499 A  
BRANCH  24  28
HETATM   28  C   UNK A   0     -10.719   8.157  72.247  1.00  0.00    -0.313 C  
ATOM     29  H   GLU A   1      -8.909   7.876  71.226  1.00  0.00     0.000 HD 
ATOM     30  N   GLU A   1      -9.472   7.586  72.026  1.00  0.00    -0.139 N  
HETATM   31  O   UNK A   0     -11.407   7.908  73.228  1.00  0.00    -0.312 OA 
BRANCH  30  32
ATOM     32  CA  GLU A   1      -8.967   6.559  72.957  1.00  0.00    -0.128 C  
ATOM     33  C   GLU A   1      -7.563   6.960  73.447  1.00  0.00    -0.080 C  
ATOM     34  O   GLU A   1      -6.915   7.785  72.588  1.00  0.00    -0.066 OA 
ATOM     35  OXT GLU A   1      -7.009   6.472  74.423  1.00  0.00    -0.088 OA 
BRANCH  32  36
ATOM     36  CB  GLU A   1      -8.908   5.192  72.258  1.00  0.00    -0.134 C  
BRANCH  36  37
ATOM     37  CG  GLU A   1      -9.125   4.019  73.220  1.00  0.00    -0.114 C  
ATOM     38  CD  GLU A   1     -10.572   3.847  73.607  1.00  0.00    -0.207 C  
ATOM     39  OE2 GLU A   1     -11.489   4.556  73.226  1.00  0.00    -0.297 OA 
ATOM     40  OE1 GLU A   1     -10.756   2.793  74.433  1.00  0.00    -0.165 OA 
ENDBRANCH  36  37
ENDBRANCH  32  36
ENDBRANCH  30  32
ENDBRANCH  24  28
ENDBRANCH  20  22
ENDBRANCH  19  20
ENDBRANCH   4  19
TORSDOF 7
ENDMDL
MODEL       44
REMARK 921   NORMALIZED FREE ENERGY PREDICTED BY IDOCK:   -6.76 KCAL/MOL
REMARK 922        TOTAL FREE ENERGY PREDICTED BY IDOCK:  -10.79 KCAL/MOL
REMARK 923 INTER-LIGAND FREE ENERGY PREDICTED BY IDOCK:   -9.48 KCAL/MOL
REMARK 924 INTRA-LIGAND FREE ENERGY PREDICTED BY IDOCK:   -1.31 KCAL/MOL
REMARK 927      BINDING AFFINITY PREDICTED BY RF-SCORE:    0.00 PKD
ROOT
HETATM    1  C   UNK A   0     -10.957  15.716  66.829  1.00  0.00    -0.230 C  
HETATM    2  N   UNK A   0     -11.045  14.672  67.738  1.00  0.00    -0.287 N  
HETATM    3  O   UNK A   0     -10.698  15.625  65.632  1.00  0.00    -0.335 OA 
HETATM    4  C   UNK A   0     -10.818  13.240  67.319  1.00  0.00    -0.264 C  
HETATM    5  C   UNK A   0     -11.897  12.351  67.980  1.00  0.00    -0.316 C  
HETATM    6  C   UNK A   0     -11.952  15.193  71.783  1.00  0.00    -0.382 C  
HETATM    7  H   UNK A   0     -11.759  17.213  71.484  1.00  0.00     0.000 HD 
HETATM    8  N   UNK A   0     -11.858  12.581  69.414  1.00  0.00    -0.316 NA 
HETATM    9  H   UNK A   0     -11.941  11.789  70.052  1.00  0.00     0.000 HD 
HETATM   10  H2  UNK A   0     -12.166  16.309  73.523  1.00  0.00     0.000 HD 
HETATM   11  C   UNK A   0     -11.712  13.858  69.931  1.00  0.00    -0.291 C  
HETATM   12  O   UNK A   0     -10.652  17.182  69.262  1.00  0.00    -0.326 OA 
HETATM   13  C   UNK A   0     -11.322  14.875  69.114  1.00  0.00    -0.292 C  
HETATM   14  H1  UNK A   0     -12.437  14.553  73.645  1.00  0.00     0.000 HD 
HETATM   15  C   UNK A   0     -11.188  16.208  69.780  1.00  0.00    -0.343 C  
HETATM   16  N   UNK A   0     -12.000  14.014  71.264  1.00  0.00    -0.446 NA 
HETATM   17  N   UNK A   0     -12.205  15.383  73.099  1.00  0.00    -0.416 NA 
HETATM   18  N   UNK A   0     -11.645  16.293  71.059  1.00  0.00    -0.578 N  
ENDROOT
BRANCH   4  19
HETATM   19  C   UNK A   0     -10.762  12.959  65.802  1.00  0.00    -0.273 C  
BRANCH  19  20
HETATM   20  N   UNK A   0      -9.463  12.400  65.393  1.00  0.00    -0.448 NA 
HETATM   21  H   UNK A   0      -8.823  12.922  64.796  1.00  0.00     0.000 HD 
BRANCH  20  22
HETATM   22  C   UNK A   0      -9.144  11.120  65.860  1.00  0.00    -0.203 A  
HETATM   23  C   UNK A   0      -7.652   9.730  67.196  1.00  0.00    -0.092 A  
HETATM   24  C   UNK A   0      -8.547   8.662  67.087  1.00  0.00    -0.123 A  
HETATM   25  C   UNK A   0      -9.963  10.001  65.662  1.00  0.00    -0.355 A  
HETATM   26  C   UNK A   0      -7.951  10.950  66.573  1.00  0.00    -0.152 A  
HETATM   27  C   UNK A   0      -9.677   8.783  66.275  1.00  0.00    -0.342 A  
BRANCH  24  28
HETATM   28  C   UNK A   0      -8.296   7.407  67.836  1.00  0.00    -0.119 C  
ATOM     29  H   GLU A   1     -10.305   6.840  67.631  1.00  0.00     0.000 HD 
ATOM     30  N   GLU A   1      -9.408   6.603  68.055  1.00  0.00    -0.115 N  
HETATM   31  O   UNK A   0      -7.178   7.135  68.253  1.00  0.00    -0.085 OA 
BRANCH  30  32
ATOM     32  CA  GLU A   1      -9.281   5.404  68.905  1.00  0.00    -0.120 C  
ATOM     33  C   GLU A   1      -9.449   4.142  68.036  1.00  0.00    -0.160 C  
ATOM     34  O   GLU A   1     -10.162   4.366  66.905  1.00  0.00    -0.181 OA 
ATOM     35  OXT GLU A   1      -9.121   3.017  68.387  1.00  0.00    -0.126 OA 
BRANCH  32  36
ATOM     36  CB  GLU A   1     -10.346   5.423  70.012  1.00  0.00    -0.366 C  
BRANCH  36  37
ATOM     37  CG  GLU A   1     -11.192   6.700  70.008  1.00  0.00    -0.425 C  
ATOM     38  CD  GLU A   1     -12.077   6.811  71.223  1.00  0.00    -0.370 C  
ATOM     39  OE2 GLU A   1     -12.146   5.986  72.120  1.00  0.00    -0.304 OA 
ATOM     40  OE1 GLU A   1     -12.799   7.955  71.224  1.00  0.00    -0.297 OA 
ENDBRANCH  36  37
ENDBRANCH  32  36
ENDBRANCH  30  32
ENDBRANCH  24  28
ENDBRANCH  20  22
ENDBRANCH  19  20
ENDBRANCH   4  19
TORSDOF 7
ENDMDL
MODEL       45
REMARK 921   NORMALIZED FREE ENERGY PREDICTED BY IDOCK:   -6.76 KCAL/MOL
REMARK 922        TOTAL FREE ENERGY PREDICTED BY IDOCK:  -10.79 KCAL/MOL
REMARK 923 INTER-LIGAND FREE ENERGY PREDICTED BY IDOCK:   -9.75 KCAL/MOL
REMARK 924 INTRA-LIGAND FREE ENERGY PREDICTED BY IDOCK:   -1.04 KCAL/MOL
REMARK 927      BINDING AFFINITY PREDICTED BY RF-SCORE:    0.00 PKD
ROOT
HETATM    1  C   UNK A   0     -11.978  13.696  68.130  1.00  0.00    -0.355 C  
HETATM    2  N   UNK A   0     -11.685  12.395  67.745  1.00  0.00    -0.353 N  
HETATM    3  O   UNK A   0     -12.313  14.069  69.251  1.00  0.00    -0.324 OA 
HETATM    4  C   UNK A   0     -11.754  11.248  68.723  1.00  0.00    -0.338 C  
HETATM    5  C   UNK A   0     -10.522  10.338  68.513  1.00  0.00    -0.192 C  
HETATM    6  C   UNK A   0     -10.547  11.329  63.869  1.00  0.00    -0.391 C  
HETATM    7  H   UNK A   0     -11.024  13.238  63.289  1.00  0.00     0.000 HD 
HETATM    8  N   UNK A   0     -10.480   9.947  67.114  1.00  0.00    -0.243 NA 
HETATM    9  H   UNK A   0     -10.247   8.985  66.869  1.00  0.00     0.000 HD 
HETATM   10  H2  UNK A   0     -10.347  11.645  61.824  1.00  0.00     0.000 HD 
HETATM   11  C   UNK A   0     -10.752  10.859  66.107  1.00  0.00    -0.159 C  
HETATM   12  O   UNK A   0     -12.284  13.962  65.302  1.00  0.00    -0.386 OA 
HETATM   13  C   UNK A   0     -11.333  12.051  66.415  1.00  0.00    -0.354 C  
HETATM   14  H1  UNK A   0      -9.841  10.058  62.455  1.00  0.00     0.000 HD 
HETATM   15  C   UNK A   0     -11.587  12.953  65.249  1.00  0.00    -0.340 C  
HETATM   16  N   UNK A   0     -10.386  10.491  64.836  1.00  0.00    -0.302 NA 
HETATM   17  N   UNK A   0     -10.221  10.994  62.599  1.00  0.00    -0.726 NA 
HETATM   18  N   UNK A   0     -11.049  12.570  64.060  1.00  0.00    -0.364 N  
ENDROOT
BRANCH   4  19
HETATM   19  C   UNK A   0     -11.890  11.615  70.217  1.00  0.00    -0.326 C  
BRANCH  19  20
HETATM   20  N   UNK A   0     -12.876  10.765  70.905  1.00  0.00    -0.360 NA 
HETATM   21  H   UNK A   0     -13.845  11.061  71.019  1.00  0.00     0.000 HD 
BRANCH  20  22
HETATM   22  C   UNK A   0     -12.426   9.534  71.395  1.00  0.00    -0.362 A  
HETATM   23  C   UNK A   0     -12.915   7.182  71.808  1.00  0.00    -0.367 A  
HETATM   24  C   UNK A   0     -11.566   6.950  72.091  1.00  0.00    -0.322 A  
HETATM   25  C   UNK A   0     -11.107   9.303  71.803  1.00  0.00    -0.398 A  
HETATM   26  C   UNK A   0     -13.339   8.475  71.472  1.00  0.00    -0.321 A  
HETATM   27  C   UNK A   0     -10.673   8.022  72.141  1.00  0.00    -0.339 A  
BRANCH  24  28
HETATM   28  C   UNK A   0     -11.088   5.568  72.334  1.00  0.00    -0.256 C  
ATOM     29  H   GLU A   1      -9.564   5.805  70.914  1.00  0.00     0.000 HD 
ATOM     30  N   GLU A   1     -10.026   5.149  71.543  1.00  0.00    -0.179 N  
HETATM   31  O   UNK A   0     -11.633   4.850  73.162  1.00  0.00    -0.324 OA 
BRANCH  30  32
ATOM     32  CA  GLU A   1      -9.571   3.747  71.620  1.00  0.00    -0.157 C  
ATOM     33  C   GLU A   1      -8.220   3.688  72.357  1.00  0.00    -0.084 C  
ATOM     34  O   GLU A   1      -7.527   4.852  72.291  1.00  0.00    -0.084 OA 
ATOM     35  OXT GLU A   1      -7.733   2.667  72.821  1.00  0.00    -0.048 OA 
BRANCH  32  36
ATOM     36  CB  GLU A   1      -9.424   3.159  70.208  1.00  0.00    -0.224 C  
BRANCH  36  37
ATOM     37  CG  GLU A   1      -9.561   4.211  69.103  1.00  0.00    -0.243 C  
ATOM     38  CD  GLU A   1      -9.516   3.608  67.722  1.00  0.00    -0.179 C  
ATOM     39  OE2 GLU A   1      -9.373   2.421  67.478  1.00  0.00    -0.173 OA 
ATOM     40  OE1 GLU A   1      -9.665   4.541  66.754  1.00  0.00    -0.174 OA 
ENDBRANCH  36  37
ENDBRANCH  32  36
ENDBRANCH  30  32
ENDBRANCH  24  28
ENDBRANCH  20  22
ENDBRANCH  19  20
ENDBRANCH   4  19
TORSDOF 7
ENDMDL
MODEL       46
REMARK 921   NORMALIZED FREE ENERGY PREDICTED BY IDOCK:   -6.75 KCAL/MOL
REMARK 922        TOTAL FREE ENERGY PREDICTED BY IDOCK:  -10.79 KCAL/MOL
REMARK 923 INTER-LIGAND FREE ENERGY PREDICTED BY IDOCK:   -9.78 KCAL/MOL
REMARK 924 INTRA-LIGAND FREE ENERGY PREDICTED BY IDOCK:   -1.00 KCAL/MOL
REMARK 927      BINDING AFFINITY PREDICTED BY RF-SCORE:    0.00 PKD
ROOT
HETATM    1  C   UNK A   0      -7.359   6.128  67.605  1.00  0.00    -0.080 C  
HETATM    2  N   UNK A   0      -8.672   6.292  67.185  1.00  0.00    -0.110 N  
HETATM    3  O   UNK A   0      -6.741   6.857  68.376  1.00  0.00    -0.062 OA 
HETATM    4  C   UNK A   0      -9.514   7.449  67.664  1.00  0.00    -0.136 C  
HETATM    5  C   UNK A   0     -10.928   6.927  68.009  1.00  0.00    -0.166 C  
HETATM    6  C   UNK A   0     -10.606   3.686  64.554  1.00  0.00    -0.097 C  
HETATM    7  H   UNK A   0      -8.791   2.783  64.241  1.00  0.00     0.000 HD 
HETATM    8  N   UNK A   0     -11.451   6.231  66.846  1.00  0.00    -0.675 NA 
HETATM    9  H   UNK A   0     -12.426   6.366  66.577  1.00  0.00     0.000 HD 
HETATM   10  H2  UNK A   0     -10.670   2.176  63.128  1.00  0.00     0.000 HD 
HETATM   11  C   UNK A   0     -10.648   5.387  66.096  1.00  0.00    -0.138 C  
HETATM   12  O   UNK A   0      -7.312   4.498  65.260  1.00  0.00    -0.070 OA 
HETATM   13  C   UNK A   0      -9.298   5.414  66.265  1.00  0.00    -0.154 C  
HETATM   14  H1  UNK A   0     -12.215   2.945  63.568  1.00  0.00     0.000 HD 
HETATM   15  C   UNK A   0      -8.531   4.467  65.398  1.00  0.00    -0.120 C  
HETATM   16  N   UNK A   0     -11.295   4.545  65.225  1.00  0.00    -1.078 NA 
HETATM   17  N   UNK A   0     -11.204   2.856  63.668  1.00  0.00    -0.511 NA 
HETATM   18  N   UNK A   0      -9.265   3.568  64.687  1.00  0.00    -0.132 N  
ENDROOT
BRANCH   4  19
HETATM   19  C   UNK A   0      -8.956   8.275  68.844  1.00  0.00    -0.144 C  
BRANCH  19  20
HETATM   20  N   UNK A   0     -10.029   8.898  69.636  1.00  0.00    -0.186 NA 
HETATM   21  H   UNK A   0     -10.571   8.361  70.313  1.00  0.00     0.000 HD 
BRANCH  20  22
HETATM   22  C   UNK A   0     -10.274  10.259  69.422  1.00  0.00    -0.235 A  
HETATM   23  C   UNK A   0      -9.581  12.326  68.331  1.00  0.00    -0.183 A  
HETATM   24  C   UNK A   0     -10.795  12.922  68.688  1.00  0.00    -0.288 A  
HETATM   25  C   UNK A   0     -11.425  10.916  69.874  1.00  0.00    -0.402 A  
HETATM   26  C   UNK A   0      -9.324  11.001  68.709  1.00  0.00    -0.185 A  
HETATM   27  C   UNK A   0     -11.692  12.233  69.506  1.00  0.00    -0.398 A  
BRANCH  24  28
HETATM   28  C   UNK A   0     -11.125  14.281  68.195  1.00  0.00    -0.258 C  
ATOM     29  H   GLU A   1     -10.324  13.832  66.310  1.00  0.00     0.000 HD 
ATOM     30  N   GLU A   1     -10.727  14.564  66.895  1.00  0.00    -0.284 N  
HETATM   31  O   UNK A   0     -11.683  15.095  68.919  1.00  0.00    -0.313 OA 
BRANCH  30  32
ATOM     32  CA  GLU A   1     -10.891  15.932  66.366  1.00  0.00    -0.193 C  
ATOM     33  C   GLU A   1     -11.145  15.865  64.848  1.00  0.00    -0.389 C  
ATOM     34  O   GLU A   1     -10.656  14.737  64.276  1.00  0.00     0.025 OA 
ATOM     35  OXT GLU A   1     -11.594  16.789  64.184  1.00  0.00    -1.106 OA 
BRANCH  32  36
ATOM     36  CB  GLU A   1      -9.634  16.767  66.651  1.00  0.00    -0.274 C  
BRANCH  36  37
ATOM     37  CG  GLU A   1      -9.896  17.938  67.604  1.00  0.00    -0.304 C  
ATOM     38  CD  GLU A   1      -9.867  19.272  66.902  1.00  0.00    -0.342 C  
ATOM     39  OE2 GLU A   1      -9.647  19.435  65.713  1.00  0.00    -0.394 OA 
ATOM     40  OE1 GLU A   1     -10.126  20.296  67.746  1.00  0.00    -0.404 OA 
ENDBRANCH  36  37
ENDBRANCH  32  36
ENDBRANCH  30  32
ENDBRANCH  24  28
ENDBRANCH  20  22
ENDBRANCH  19  20
ENDBRANCH   4  19
TORSDOF 7
ENDMDL
MODEL       47
REMARK 921   NORMALIZED FREE ENERGY PREDICTED BY IDOCK:   -6.71 KCAL/MOL
REMARK 922        TOTAL FREE ENERGY PREDICTED BY IDOCK:  -10.73 KCAL/MOL
REMARK 923 INTER-LIGAND FREE ENERGY PREDICTED BY IDOCK:   -9.34 KCAL/MOL
REMARK 924 INTRA-LIGAND FREE ENERGY PREDICTED BY IDOCK:   -1.40 KCAL/MOL
REMARK 927      BINDING AFFINITY PREDICTED BY RF-SCORE:    0.00 PKD
ROOT
HETATM    1  C   UNK A   0     -10.997  14.924  65.079  1.00  0.00    -0.420 C  
HETATM    2  N   UNK A   0     -10.940  14.938  66.465  1.00  0.00    -0.324 N  
HETATM    3  O   UNK A   0     -11.172  13.942  64.364  1.00  0.00    -0.373 OA 
HETATM    4  C   UNK A   0     -11.100  13.674  67.274  1.00  0.00    -0.293 C  
HETATM    5  C   UNK A   0     -12.022  13.967  68.481  1.00  0.00    -0.359 C  
HETATM    6  C   UNK A   0     -10.343  18.402  68.724  1.00  0.00    -0.197 C  
HETATM    7  H   UNK A   0      -9.941  19.382  66.968  1.00  0.00     0.000 HD 
HETATM    8  N   UNK A   0     -11.468  15.094  69.211  1.00  0.00    -0.290 NA 
HETATM    9  H   UNK A   0     -11.458  15.074  70.231  1.00  0.00     0.000 HD 
HETATM   10  H2  UNK A   0      -9.780  20.384  68.996  1.00  0.00     0.000 HD 
HETATM   11  C   UNK A   0     -10.955  16.196  68.547  1.00  0.00    -0.338 C  
HETATM   12  O   UNK A   0      -9.664  17.420  65.472  1.00  0.00    -0.485 OA 
HETATM   13  C   UNK A   0     -10.704  16.121  67.211  1.00  0.00    -0.277 C  
HETATM   14  H1  UNK A   0     -10.271  19.473  70.445  1.00  0.00     0.000 HD 
HETATM   15  C   UNK A   0     -10.143  17.366  66.600  1.00  0.00    -0.317 C  
HETATM   16  N   UNK A   0     -10.750  17.323  69.303  1.00  0.00    -0.356 NA 
HETATM   17  N   UNK A   0     -10.106  19.526  69.439  1.00  0.00    -0.569 NA 
HETATM   18  N   UNK A   0     -10.125  18.473  67.392  1.00  0.00    -0.335 N  
ENDROOT
BRANCH   4  19
HETATM   19  C   UNK A   0     -11.601  12.424  66.520  1.00  0.00    -0.387 C  
BRANCH  19  20
HETATM   20  N   UNK A   0     -10.497  11.522  66.154  1.00  0.00    -0.244 NA 
HETATM   21  H   UNK A   0     -10.104  11.516  65.213  1.00  0.00     0.000 HD 
BRANCH  20  22
HETATM   22  C   UNK A   0     -10.009  10.672  67.153  1.00  0.00    -0.195 A  
HETATM   23  C   UNK A   0     -10.517   9.182  69.014  1.00  0.00    -0.238 A  
HETATM   24  C   UNK A   0      -9.192   8.736  69.021  1.00  0.00    -0.141 A  
HETATM   25  C   UNK A   0      -8.663  10.302  67.261  1.00  0.00    -0.125 A  
HETATM   26  C   UNK A   0     -10.915  10.155  68.087  1.00  0.00    -0.313 A  
HETATM   27  C   UNK A   0      -8.254   9.337  68.179  1.00  0.00    -0.119 A  
BRANCH  24  28
HETATM   28  C   UNK A   0      -8.789   7.627  69.918  1.00  0.00    -0.143 C  
ATOM     29  H   GLU A   1     -10.323   6.411  69.166  1.00  0.00     0.000 HD 
ATOM     30  N   GLU A   1      -9.579   6.487  69.861  1.00  0.00    -0.154 N  
HETATM   31  O   UNK A   0      -7.835   7.746  70.676  1.00  0.00    -0.092 OA 
BRANCH  30  32
ATOM     32  CA  GLU A   1      -9.337   5.385  70.811  1.00  0.00    -0.159 C  
ATOM     33  C   GLU A   1      -9.162   4.067  70.033  1.00  0.00    -0.145 C  
ATOM     34  O   GLU A   1      -9.763   4.084  68.817  1.00  0.00    -0.153 OA 
ATOM     35  OXT GLU A   1      -8.677   3.048  70.505  1.00  0.00    -0.063 OA 
BRANCH  32  36
ATOM     36  CB  GLU A   1     -10.513   5.262  71.793  1.00  0.00    -0.278 C  
BRANCH  36  37
ATOM     37  CG  GLU A   1     -11.545   6.384  71.636  1.00  0.00    -0.363 C  
ATOM     38  CD  GLU A   1     -11.358   7.487  72.646  1.00  0.00    -0.344 C  
ATOM     39  OE2 GLU A   1     -10.500   7.507  73.514  1.00  0.00    -0.357 OA 
ATOM     40  OE1 GLU A   1     -12.256   8.485  72.481  1.00  0.00    -0.389 OA 
ENDBRANCH  36  37
ENDBRANCH  32  36
ENDBRANCH  30  32
ENDBRANCH  24  28
ENDBRANCH  20  22
ENDBRANCH  19  20
ENDBRANCH   4  19
TORSDOF 7
ENDMDL
MODEL       48
REMARK 921   NORMALIZED FREE ENERGY PREDICTED BY IDOCK:   -6.71 KCAL/MOL
REMARK 922        TOTAL FREE ENERGY PREDICTED BY IDOCK:  -10.73 KCAL/MOL
REMARK 923 INTER-LIGAND FREE ENERGY PREDICTED BY IDOCK:   -9.63 KCAL/MOL
REMARK 924 INTRA-LIGAND FREE ENERGY PREDICTED BY IDOCK:   -1.10 KCAL/MOL
REMARK 927      BINDING AFFINITY PREDICTED BY RF-SCORE:    0.00 PKD
ROOT
HETATM    1  C   UNK A   0     -12.784   9.855  71.749  1.00  0.00    -0.428 C  
HETATM    2  N   UNK A   0     -11.915   9.550  70.712  1.00  0.00    -0.364 N  
HETATM    3  O   UNK A   0     -13.280  10.952  71.990  1.00  0.00    -0.492 OA 
HETATM    4  C   UNK A   0     -11.471  10.599  69.721  1.00  0.00    -0.302 C  
HETATM    5  C   UNK A   0     -11.511   9.991  68.300  1.00  0.00     0.084 C  
HETATM    6  C   UNK A   0     -10.338   5.738  70.053  1.00  0.00    -0.259 C  
HETATM    7  H   UNK A   0     -11.132   5.185  71.862  1.00  0.00     0.000 HD 
HETATM    8  N   UNK A   0     -10.714   8.777  68.303  1.00  0.00    -0.434 NA 
HETATM    9  H   UNK A   0     -10.097   8.580  67.514  1.00  0.00     0.000 HD 
HETATM   10  H2  UNK A   0      -9.868   3.788  70.600  1.00  0.00     0.000 HD 
HETATM   11  C   UNK A   0     -10.777   7.881  69.358  1.00  0.00    -0.168 C  
HETATM   12  O   UNK A   0     -11.661   7.434  72.769  1.00  0.00    -0.286 OA 
HETATM   13  C   UNK A   0     -11.366   8.256  70.526  1.00  0.00    -0.219 C  
HETATM   14  H1  UNK A   0      -9.334   4.333  68.990  1.00  0.00     0.000 HD 
HETATM   15  C   UNK A   0     -11.369   7.213  71.598  1.00  0.00    -0.251 C  
HETATM   16  N   UNK A   0     -10.243   6.636  69.134  1.00  0.00    -0.171 NA 
HETATM   17  N   UNK A   0      -9.804   4.507  69.879  1.00  0.00    -0.218 NA 
HETATM   18  N   UNK A   0     -10.962   5.968  71.231  1.00  0.00    -0.274 N  
ENDROOT
BRANCH   4  19
HETATM   19  C   UNK A   0     -12.233  11.942  69.741  1.00  0.00    -0.174 C  
BRANCH  19  20
HETATM   20  N   UNK A   0     -11.350  13.070  70.084  1.00  0.00    -0.482 NA 
HETATM   21  H   UNK A   0     -11.028  13.222  71.040  1.00  0.00     0.000 HD 
BRANCH  20  22
HETATM   22  C   UNK A   0     -10.973  13.925  69.043  1.00  0.00    -0.250 A  
HETATM   23  C   UNK A   0     -10.911  16.200  68.170  1.00  0.00    -0.329 A  
HETATM   24  C   UNK A   0     -10.034  15.790  67.161  1.00  0.00    -0.242 A  
HETATM   25  C   UNK A   0     -10.196  13.515  67.952  1.00  0.00    -0.247 A  
HETATM   26  C   UNK A   0     -11.383  15.263  69.099  1.00  0.00    -0.307 A  
HETATM   27  C   UNK A   0      -9.721  14.436  67.021  1.00  0.00    -0.256 A  
BRANCH  24  28
HETATM   28  C   UNK A   0      -9.440  16.792  66.245  1.00  0.00    -0.286 C  
ATOM     29  H   GLU A   1      -7.708  16.898  67.424  1.00  0.00     0.000 HD 
ATOM     30  N   GLU A   1      -8.197  17.289  66.618  1.00  0.00    -0.240 N  
HETATM   31  O   UNK A   0     -10.040  17.167  65.246  1.00  0.00    -0.507 OA 
BRANCH  30  32
ATOM     32  CA  GLU A   1      -7.589  18.386  65.842  1.00  0.00    -0.132 C  
ATOM     33  C   GLU A   1      -6.144  18.007  65.466  1.00  0.00    -0.171 C  
ATOM     34  O   GLU A   1      -5.597  17.098  66.310  1.00  0.00    -0.298 OA 
ATOM     35  OXT GLU A   1      -5.487  18.571  64.602  1.00  0.00    -0.186 OA 
BRANCH  32  36
ATOM     36  CB  GLU A   1      -7.594  19.685  66.664  1.00  0.00    -0.278 C  
BRANCH  36  37
ATOM     37  CG  GLU A   1      -8.194  19.506  68.062  1.00  0.00    -0.352 C  
ATOM     38  CD  GLU A   1      -9.661  19.850  68.110  1.00  0.00    -0.383 C  
ATOM     39  OE2 GLU A   1     -10.322  20.244  67.162  1.00  0.00    -0.399 OA 
ATOM     40  OE1 GLU A   1     -10.189  19.663  69.341  1.00  0.00    -0.328 OA 
ENDBRANCH  36  37
ENDBRANCH  32  36
ENDBRANCH  30  32
ENDBRANCH  24  28
ENDBRANCH  20  22
ENDBRANCH  19  20
ENDBRANCH   4  19
TORSDOF 7
ENDMDL
MODEL       49
REMARK 921   NORMALIZED FREE ENERGY PREDICTED BY IDOCK:   -6.71 KCAL/MOL
REMARK 922        TOTAL FREE ENERGY PREDICTED BY IDOCK:  -10.72 KCAL/MOL
REMARK 923 INTER-LIGAND FREE ENERGY PREDICTED BY IDOCK:   -8.95 KCAL/MOL
REMARK 924 INTRA-LIGAND FREE ENERGY PREDICTED BY IDOCK:   -1.77 KCAL/MOL
REMARK 927      BINDING AFFINITY PREDICTED BY RF-SCORE:    0.00 PKD
ROOT
HETATM    1  C   UNK A   0     -11.505  15.459  68.222  1.00  0.00    -0.353 C  
HETATM    2  N   UNK A   0     -11.185  15.560  66.875  1.00  0.00    -0.226 N  
HETATM    3  O   UNK A   0     -11.186  16.244  69.110  1.00  0.00    -0.315 OA 
HETATM    4  C   UNK A   0     -10.369  16.712  66.343  1.00  0.00    -0.306 C  
HETATM    5  C   UNK A   0     -11.004  17.205  65.022  1.00  0.00     0.103 C  
HETATM    6  C   UNK A   0     -12.378  12.777  63.996  1.00  0.00    -0.411 C  
HETATM    7  H   UNK A   0     -13.031  11.586  65.533  1.00  0.00     0.000 HD 
HETATM    8  N   UNK A   0     -11.119  16.070  64.122  1.00  0.00    -1.068 NA 
HETATM    9  H   UNK A   0     -10.889  16.187  63.135  1.00  0.00     0.000 HD 
HETATM   10  H2  UNK A   0     -13.103  10.935  63.362  1.00  0.00     0.000 HD 
HETATM   11  C   UNK A   0     -11.536  14.831  64.582  1.00  0.00    -0.381 C  
HETATM   12  O   UNK A   0     -11.929  12.746  67.431  1.00  0.00    -0.360 OA 
HETATM   13  C   UNK A   0     -11.573  14.586  65.920  1.00  0.00    -0.349 C  
HETATM   14  H1  UNK A   0     -12.624  12.098  62.101  1.00  0.00     0.000 HD 
HETATM   15  C   UNK A   0     -12.030  13.214  66.301  1.00  0.00    -0.415 C  
HETATM   16  N   UNK A   0     -11.912  13.921  63.625  1.00  0.00    -0.762 NA 
HETATM   17  N   UNK A   0     -12.737  11.845  63.083  1.00  0.00    -0.915 NA 
HETATM   18  N   UNK A   0     -12.529  12.442  65.297  1.00  0.00    -0.329 N  
ENDROOT
BRANCH   4  19
HETATM   19  C   UNK A   0     -10.144  17.905  67.296  1.00  0.00    -0.343 C  
BRANCH  19  20
HETATM   20  N   UNK A   0      -8.741  18.005  67.732  1.00  0.00    -0.248 NA 
HETATM   21  H   UNK A   0      -8.284  18.909  67.851  1.00  0.00     0.000 HD 
BRANCH  20  22
HETATM   22  C   UNK A   0      -8.061  16.806  67.976  1.00  0.00    -0.187 A  
HETATM   23  C   UNK A   0      -7.590  14.989  69.531  1.00  0.00    -0.181 A  
HETATM   24  C   UNK A   0      -6.978  14.266  68.502  1.00  0.00    -0.102 A  
HETATM   25  C   UNK A   0      -7.335  16.118  66.995  1.00  0.00    -0.266 A  
HETATM   26  C   UNK A   0      -8.119  16.259  69.264  1.00  0.00    -0.157 A  
HETATM   27  C   UNK A   0      -6.804  14.856  67.248  1.00  0.00    -0.000 A  
BRANCH  24  28
HETATM   28  C   UNK A   0      -6.519  12.878  68.745  1.00  0.00    -0.085 C  
ATOM     29  H   GLU A   1      -7.899  12.138  67.350  1.00  0.00     0.000 HD 
ATOM     30  N   GLU A   1      -7.199  11.887  68.049  1.00  0.00    -0.083 N  
HETATM   31  O   UNK A   0      -5.618  12.642  69.539  1.00  0.00    -0.078 OA 
BRANCH  30  32
ATOM     32  CA  GLU A   1      -6.904  10.468  68.327  1.00  0.00    -0.068 C  
ATOM     33  C   GLU A   1      -5.828   9.968  67.345  1.00  0.00    -0.053 C  
ATOM     34  O   GLU A   1      -5.788  10.681  66.192  1.00  0.00    -0.085 OA 
ATOM     35  OXT GLU A   1      -5.178   8.943  67.498  1.00  0.00    -0.033 OA 
BRANCH  32  36
ATOM     36  CB  GLU A   1      -8.178   9.622  68.185  1.00  0.00    -0.106 C  
BRANCH  36  37
ATOM     37  CG  GLU A   1      -9.288  10.336  67.406  1.00  0.00    -0.163 C  
ATOM     38  CD  GLU A   1      -9.493   9.757  66.029  1.00  0.00    -0.211 C  
ATOM     39  OE2 GLU A   1      -8.853   8.833  65.554  1.00  0.00    -0.178 OA 
ATOM     40  OE1 GLU A   1     -10.492  10.376  65.360  1.00  0.00    -0.237 OA 
ENDBRANCH  36  37
ENDBRANCH  32  36
ENDBRANCH  30  32
ENDBRANCH  24  28
ENDBRANCH  20  22
ENDBRANCH  19  20
ENDBRANCH   4  19
TORSDOF 7
ENDMDL
MODEL       50
REMARK 921   NORMALIZED FREE ENERGY PREDICTED BY IDOCK:   -6.70 KCAL/MOL
REMARK 922        TOTAL FREE ENERGY PREDICTED BY IDOCK:  -10.71 KCAL/MOL
REMARK 923 INTER-LIGAND FREE ENERGY PREDICTED BY IDOCK:   -9.77 KCAL/MOL
REMARK 924 INTRA-LIGAND FREE ENERGY PREDICTED BY IDOCK:   -0.94 KCAL/MOL
REMARK 927      BINDING AFFINITY PREDICTED BY RF-SCORE:    0.00 PKD
ROOT
HETATM    1  C   UNK A   0     -10.072   7.787  67.488  1.00  0.00    -0.209 C  
HETATM    2  N   UNK A   0     -10.687   8.275  68.632  1.00  0.00    -0.410 N  
HETATM    3  O   UNK A   0      -9.908   8.389  66.430  1.00  0.00    -0.253 OA 
HETATM    4  C   UNK A   0     -11.245   9.676  68.690  1.00  0.00     0.046 C  
HETATM    5  C   UNK A   0     -10.861  10.310  70.046  1.00  0.00    -0.307 C  
HETATM    6  C   UNK A   0     -11.137   6.060  72.146  1.00  0.00    -0.279 C  
HETATM    7  H   UNK A   0     -10.480   4.421  71.102  1.00  0.00     0.000 HD 
HETATM    8  N   UNK A   0     -11.316   9.427  71.106  1.00  0.00    -0.320 NA 
HETATM    9  H   UNK A   0     -11.750   9.824  71.939  1.00  0.00     0.000 HD 
HETATM   10  H2  UNK A   0     -11.165   4.307  73.261  1.00  0.00     0.000 HD 
HETATM   11  C   UNK A   0     -11.169   8.053  71.005  1.00  0.00    -0.266 C  
HETATM   12  O   UNK A   0     -10.669   5.317  68.794  1.00  0.00    -0.124 OA 
HETATM   13  C   UNK A   0     -10.858   7.494  69.803  1.00  0.00    -0.225 C  
HETATM   14  H1  UNK A   0     -11.599   5.814  74.105  1.00  0.00     0.000 HD 
HETATM   15  C   UNK A   0     -10.733   6.004  69.809  1.00  0.00    -0.330 C  
HETATM   16  N   UNK A   0     -11.333   7.335  72.163  1.00  0.00    -0.256 NA 
HETATM   17  N   UNK A   0     -11.313   5.316  73.262  1.00  0.00    -0.471 NA 
HETATM   18  N   UNK A   0     -10.757   5.400  71.028  1.00  0.00    -0.209 N  
ENDROOT
BRANCH   4  19
HETATM   19  C   UNK A   0     -10.861  10.627  67.536  1.00  0.00    -0.296 C  
BRANCH  19  20
HETATM   20  N   UNK A   0     -11.949  11.564  67.209  1.00  0.00    -0.554 NA 
HETATM   21  H   UNK A   0     -12.816  11.243  66.780  1.00  0.00     0.000 HD 
BRANCH  20  22
HETATM   22  C   UNK A   0     -11.741  12.914  67.513  1.00  0.00    -0.367 A  
HETATM   23  C   UNK A   0     -11.761  14.667  69.207  1.00  0.00    -0.348 A  
HETATM   24  C   UNK A   0     -11.103  15.529  68.324  1.00  0.00    -0.322 A  
HETATM   25  C   UNK A   0     -11.195  13.833  66.608  1.00  0.00    -0.327 A  
HETATM   26  C   UNK A   0     -12.086  13.368  68.793  1.00  0.00    -0.281 A  
HETATM   27  C   UNK A   0     -10.870  15.128  67.007  1.00  0.00    -0.314 A  
BRANCH  24  28
HETATM   28  C   UNK A   0     -10.654  16.863  68.789  1.00  0.00    -0.355 C  
ATOM     29  H   GLU A   1     -10.200  17.437  66.824  1.00  0.00     0.000 HD 
ATOM     30  N   GLU A   1     -10.156  17.708  67.806  1.00  0.00    -0.321 N  
HETATM   31  O   UNK A   0     -10.698  17.165  69.975  1.00  0.00    -0.064 OA 
BRANCH  30  32
ATOM     32  CA  GLU A   1      -9.562  19.003  68.192  1.00  0.00    -0.341 C  
ATOM     33  C   GLU A   1      -9.630  19.973  66.998  1.00  0.00    -0.411 C  
ATOM     34  O   GLU A   1      -9.693  19.339  65.801  1.00  0.00    -0.421 OA 
ATOM     35  OXT GLU A   1      -9.483  21.184  67.086  1.00  0.00    -0.256 OA 
BRANCH  32  36
ATOM     36  CB  GLU A   1      -8.101  18.808  68.627  1.00  0.00    -0.367 C  
BRANCH  36  37
ATOM     37  CG  GLU A   1      -7.219  18.225  67.518  1.00  0.00    -0.208 C  
ATOM     38  CD  GLU A   1      -6.838  16.789  67.777  1.00  0.00    -0.139 C  
ATOM     39  OE2 GLU A   1      -7.168  16.141  68.758  1.00  0.00    -0.148 OA 
ATOM     40  OE1 GLU A   1      -6.083  16.275  66.780  1.00  0.00    -0.316 OA 
ENDBRANCH  36  37
ENDBRANCH  32  36
ENDBRANCH  30  32
ENDBRANCH  24  28
ENDBRANCH  20  22
ENDBRANCH  19  20
ENDBRANCH   4  19
TORSDOF 7
ENDMDL
MODEL       51
REMARK 921   NORMALIZED FREE ENERGY PREDICTED BY IDOCK:   -6.69 KCAL/MOL
REMARK 922        TOTAL FREE ENERGY PREDICTED BY IDOCK:  -10.70 KCAL/MOL
REMARK 923 INTER-LIGAND FREE ENERGY PREDICTED BY IDOCK:   -9.66 KCAL/MOL
REMARK 924 INTRA-LIGAND FREE ENERGY PREDICTED BY IDOCK:   -1.04 KCAL/MOL
REMARK 927      BINDING AFFINITY PREDICTED BY RF-SCORE:    0.00 PKD
ROOT
HETATM    1  C   UNK A   0     -12.621   9.602  71.647  1.00  0.00    -0.402 C  
HETATM    2  N   UNK A   0     -11.747   9.183  70.653  1.00  0.00    -0.393 N  
HETATM    3  O   UNK A   0     -13.072  10.734  71.795  1.00  0.00    -0.458 OA 
HETATM    4  C   UNK A   0     -11.239  10.134  69.598  1.00  0.00    -0.261 C  
HETATM    5  C   UNK A   0     -11.280   9.424  68.225  1.00  0.00     0.189 C  
HETATM    6  C   UNK A   0     -10.329   5.268  70.314  1.00  0.00    -0.280 C  
HETATM    7  H   UNK A   0     -11.179   4.886  72.141  1.00  0.00     0.000 HD 
HETATM    8  N   UNK A   0     -10.537   8.181  68.335  1.00  0.00    -0.378 NA 
HETATM    9  H   UNK A   0      -9.915   7.899  67.577  1.00  0.00     0.000 HD 
HETATM   10  H2  UNK A   0      -9.955   3.347  71.014  1.00  0.00     0.000 HD 
HETATM   11  C   UNK A   0     -10.659   7.370  69.452  1.00  0.00    -0.226 C  
HETATM   12  O   UNK A   0     -11.625   7.218  72.867  1.00  0.00    -0.229 OA 
HETATM   13  C   UNK A   0     -11.252   7.856  70.577  1.00  0.00    -0.253 C  
HETATM   14  H1  UNK A   0      -9.368   3.746  69.380  1.00  0.00     0.000 HD 
HETATM   15  C   UNK A   0     -11.322   6.897  71.722  1.00  0.00    -0.261 C  
HETATM   16  N   UNK A   0     -10.177   6.090  69.332  1.00  0.00    -0.193 NA 
HETATM   17  N   UNK A   0      -9.846   4.006  70.243  1.00  0.00    -0.188 NA 
HETATM   18  N   UNK A   0     -10.963   5.612  71.458  1.00  0.00    -0.234 N  
ENDROOT
BRANCH   4  19
HETATM   19  C   UNK A   0     -11.940  11.507  69.502  1.00  0.00    -0.335 C  
BRANCH  19  20
HETATM   20  N   UNK A   0     -12.084  11.955  68.107  1.00  0.00    -0.486 NA 
HETATM   21  H   UNK A   0     -12.793  11.556  67.491  1.00  0.00     0.000 HD 
BRANCH  20  22
HETATM   22  C   UNK A   0     -11.208  12.951  67.662  1.00  0.00    -0.278 A  
HETATM   23  C   UNK A   0     -10.935  15.112  66.569  1.00  0.00    -0.318 A  
HETATM   24  C   UNK A   0      -9.595  15.146  66.967  1.00  0.00    -0.235 A  
HETATM   25  C   UNK A   0      -9.835  12.950  67.940  1.00  0.00    -0.227 A  
HETATM   26  C   UNK A   0     -11.731  14.010  66.911  1.00  0.00    -0.435 A  
HETATM   27  C   UNK A   0      -9.033  14.038  67.605  1.00  0.00    -0.194 A  
BRANCH  24  28
HETATM   28  C   UNK A   0      -8.777  16.356  66.711  1.00  0.00    -0.226 C  
ATOM     29  H   GLU A   1      -8.207  16.442  68.727  1.00  0.00     0.000 HD 
ATOM     30  N   GLU A   1      -8.161  16.913  67.823  1.00  0.00    -0.179 N  
HETATM   31  O   UNK A   0      -8.694  16.833  65.587  1.00  0.00    -0.441 OA 
BRANCH  30  32
ATOM     32  CA  GLU A   1      -7.438  18.192  67.690  1.00  0.00    -0.218 C  
ATOM     33  C   GLU A   1      -6.200  18.178  68.607  1.00  0.00    -0.204 C  
ATOM     34  O   GLU A   1      -6.324  17.325  69.654  1.00  0.00    -0.248 OA 
ATOM     35  OXT GLU A   1      -5.263  18.959  68.511  1.00  0.00    -0.189 OA 
BRANCH  32  36
ATOM     36  CB  GLU A   1      -8.357  19.364  68.068  1.00  0.00    -0.354 C  
BRANCH  36  37
ATOM     37  CG  GLU A   1      -8.963  20.068  66.849  1.00  0.00    -0.449 C  
ATOM     38  CD  GLU A   1     -10.398  19.675  66.609  1.00  0.00    -0.486 C  
ATOM     39  OE2 GLU A   1     -11.030  18.877  67.283  1.00  0.00    -0.436 OA 
ATOM     40  OE1 GLU A   1     -10.932  20.321  65.547  1.00  0.00    -0.155 OA 
ENDBRANCH  36  37
ENDBRANCH  32  36
ENDBRANCH  30  32
ENDBRANCH  24  28
ENDBRANCH  20  22
ENDBRANCH  19  20
ENDBRANCH   4  19
TORSDOF 7
ENDMDL
MODEL       52
REMARK 921   NORMALIZED FREE ENERGY PREDICTED BY IDOCK:   -6.62 KCAL/MOL
REMARK 922        TOTAL FREE ENERGY PREDICTED BY IDOCK:  -10.60 KCAL/MOL
REMARK 923 INTER-LIGAND FREE ENERGY PREDICTED BY IDOCK:   -9.60 KCAL/MOL
REMARK 924 INTRA-LIGAND FREE ENERGY PREDICTED BY IDOCK:   -1.00 KCAL/MOL
REMARK 927      BINDING AFFINITY PREDICTED BY RF-SCORE:    0.00 PKD
ROOT
HETATM    1  C   UNK A   0      -8.343   8.734  69.381  1.00  0.00    -0.117 C  
HETATM    2  N   UNK A   0      -9.400   7.835  69.387  1.00  0.00    -0.153 N  
HETATM    3  O   UNK A   0      -8.292   9.808  69.974  1.00  0.00    -0.173 OA 
HETATM    4  C   UNK A   0     -10.662   8.107  70.169  1.00  0.00    -0.243 C  
HETATM    5  C   UNK A   0     -11.092   6.809  70.890  1.00  0.00    -0.277 C  
HETATM    6  C   UNK A   0      -9.375   4.214  67.303  1.00  0.00    -0.176 C  
HETATM    7  H   UNK A   0      -7.640   4.836  66.403  1.00  0.00     0.000 HD 
HETATM    8  N   UNK A   0     -11.204   5.754  69.897  1.00  0.00    -0.272 NA 
HETATM    9  H   UNK A   0     -11.987   5.103  69.943  1.00  0.00     0.000 HD 
HETATM   10  H2  UNK A   0      -8.665   2.884  65.872  1.00  0.00     0.000 HD 
HETATM   11  C   UNK A   0     -10.263   5.616  68.889  1.00  0.00    -0.211 C  
HETATM   12  O   UNK A   0      -7.703   7.236  67.033  1.00  0.00    -0.106 OA 
HETATM   13  C   UNK A   0      -9.384   6.626  68.645  1.00  0.00    -0.129 C  
HETATM   14  H1  UNK A   0     -10.099   2.386  66.804  1.00  0.00     0.000 HD 
HETATM   15  C   UNK A   0      -8.420   6.372  67.530  1.00  0.00    -0.116 C  
HETATM   16  N   UNK A   0     -10.274   4.427  68.203  1.00  0.00     0.092 NA 
HETATM   17  N   UNK A   0      -9.367   3.064  66.589  1.00  0.00    -0.335 NA 
HETATM   18  N   UNK A   0      -8.405   5.112  67.019  1.00  0.00    -0.107 N  
ENDROOT
BRANCH   4  19
HETATM   19  C   UNK A   0     -10.619   9.278  71.174  1.00  0.00    -0.332 C  
BRANCH  19  20
HETATM   20  N   UNK A   0     -11.881  10.037  71.189  1.00  0.00    -0.369 NA 
HETATM   21  H   UNK A   0     -12.667   9.751  71.772  1.00  0.00     0.000 HD 
BRANCH  20  22
HETATM   22  C   UNK A   0     -11.955  11.168  70.368  1.00  0.00    -0.378 A  
HETATM   23  C   UNK A   0     -12.240  13.584  70.217  1.00  0.00    -0.417 A  
HETATM   24  C   UNK A   0     -11.853  13.547  68.874  1.00  0.00    -0.384 A  
HETATM   25  C   UNK A   0     -11.692  11.141  68.993  1.00  0.00    -0.408 A  
HETATM   26  C   UNK A   0     -12.298  12.394  70.953  1.00  0.00    -0.358 A  
HETATM   27  C   UNK A   0     -11.632  12.318  68.249  1.00  0.00    -0.385 A  
BRANCH  24  28
HETATM   28  C   UNK A   0     -11.677  14.811  68.119  1.00  0.00    -0.325 C  
ATOM     29  H   GLU A   1     -10.839  13.772  66.502  1.00  0.00     0.000 HD 
ATOM     30  N   GLU A   1     -11.058  14.693  66.881  1.00  0.00    -0.325 N  
HETATM   31  O   UNK A   0     -12.033  15.882  68.592  1.00  0.00    -0.338 OA 
BRANCH  30  32
ATOM     32  CA  GLU A   1     -10.719  15.910  66.119  1.00  0.00    -0.271 C  
ATOM     33  C   GLU A   1     -11.281  15.790  64.689  1.00  0.00    -0.363 C  
ATOM     34  O   GLU A   1     -11.456  14.505  64.293  1.00  0.00    -0.295 OA 
ATOM     35  OXT GLU A   1     -11.411  16.732  63.920  1.00  0.00    -1.116 OA 
BRANCH  32  36
ATOM     36  CB  GLU A   1      -9.195  16.098  66.069  1.00  0.00    -0.363 C  
BRANCH  36  37
ATOM     37  CG  GLU A   1      -8.474  15.469  67.266  1.00  0.00    -0.216 C  
ATOM     38  CD  GLU A   1      -8.041  16.494  68.283  1.00  0.00    -0.179 C  
ATOM     39  OE2 GLU A   1      -8.217  17.698  68.187  1.00  0.00    -0.240 OA 
ATOM     40  OE1 GLU A   1      -7.431  15.927  69.349  1.00  0.00    -0.219 OA 
ENDBRANCH  36  37
ENDBRANCH  32  36
ENDBRANCH  30  32
ENDBRANCH  24  28
ENDBRANCH  20  22
ENDBRANCH  19  20
ENDBRANCH   4  19
TORSDOF 7
ENDMDL
MODEL       53
REMARK 921   NORMALIZED FREE ENERGY PREDICTED BY IDOCK:   -6.61 KCAL/MOL
REMARK 922        TOTAL FREE ENERGY PREDICTED BY IDOCK:  -10.59 KCAL/MOL
REMARK 923 INTER-LIGAND FREE ENERGY PREDICTED BY IDOCK:   -9.17 KCAL/MOL
REMARK 924 INTRA-LIGAND FREE ENERGY PREDICTED BY IDOCK:   -1.41 KCAL/MOL
REMARK 927      BINDING AFFINITY PREDICTED BY RF-SCORE:    0.00 PKD
ROOT
HETATM    1  C   UNK A   0     -11.212   6.493  68.172  1.00  0.00    -0.150 C  
HETATM    2  N   UNK A   0     -10.162   6.431  69.078  1.00  0.00    -0.171 N  
HETATM    3  O   UNK A   0     -11.123   6.659  66.959  1.00  0.00    -0.403 OA 
HETATM    4  C   UNK A   0      -8.727   6.568  68.632  1.00  0.00    -0.123 C  
HETATM    5  C   UNK A   0      -7.874   5.507  69.364  1.00  0.00    -0.087 C  
HETATM    6  C   UNK A   0     -10.675   5.848  73.183  1.00  0.00    -0.261 C  
HETATM    7  H   UNK A   0     -12.689   6.099  72.886  1.00  0.00     0.000 HD 
HETATM    8  N   UNK A   0      -8.087   5.660  70.793  1.00  0.00    -0.115 NA 
HETATM    9  H   UNK A   0      -7.292   5.593  71.429  1.00  0.00     0.000 HD 
HETATM   10  H2  UNK A   0     -11.780   5.807  74.943  1.00  0.00     0.000 HD 
HETATM   11  C   UNK A   0      -9.352   5.896  71.307  1.00  0.00    -0.156 C  
HETATM   12  O   UNK A   0     -12.639   7.036  70.588  1.00  0.00    -0.260 OA 
HETATM   13  C   UNK A   0     -10.361   6.265  70.472  1.00  0.00    -0.204 C  
HETATM   14  H1  UNK A   0     -10.034   5.476  75.071  1.00  0.00     0.000 HD 
HETATM   15  C   UNK A   0     -11.680   6.501  71.137  1.00  0.00    -0.335 C  
HETATM   16  N   UNK A   0      -9.504   5.714  72.659  1.00  0.00    -0.147 NA 
HETATM   17  N   UNK A   0     -10.860   5.700  74.515  1.00  0.00    -0.344 NA 
HETATM   18  N   UNK A   0     -11.770   6.144  72.447  1.00  0.00    -0.425 N  
ENDROOT
BRANCH   4  19
HETATM   19  C   UNK A   0      -8.461   6.500  67.112  1.00  0.00    -0.112 C  
BRANCH  19  20
HETATM   20  N   UNK A   0      -7.622   7.619  66.650  1.00  0.00    -0.095 NA 
HETATM   21  H   UNK A   0      -6.604   7.561  66.664  1.00  0.00     0.000 HD 
BRANCH  20  22
HETATM   22  C   UNK A   0      -8.282   8.764  66.190  1.00  0.00    -0.117 A  
HETATM   23  C   UNK A   0      -9.390   9.893  64.336  1.00  0.00    -0.326 A  
HETATM   24  C   UNK A   0      -9.854  10.879  65.212  1.00  0.00    -0.318 A  
HETATM   25  C   UNK A   0      -8.654   9.826  67.023  1.00  0.00    -0.127 A  
HETATM   26  C   UNK A   0      -8.598   8.847  64.828  1.00  0.00    -0.184 A  
HETATM   27  C   UNK A   0      -9.440  10.873  66.546  1.00  0.00    -0.210 A  
BRANCH  24  28
HETATM   28  C   UNK A   0     -10.785  11.924  64.724  1.00  0.00    -0.307 C  
ATOM     29  H   GLU A   1     -10.001  13.312  66.087  1.00  0.00     0.000 HD 
ATOM     30  N   GLU A   1     -10.721  13.145  65.383  1.00  0.00    -0.288 N  
HETATM   31  O   UNK A   0     -11.575  11.691  63.819  1.00  0.00    -0.404 OA 
BRANCH  30  32
ATOM     32  CA  GLU A   1     -11.699  14.200  65.058  1.00  0.00    -0.376 C  
ATOM     33  C   GLU A   1     -10.953  15.510  64.743  1.00  0.00    -0.399 C  
ATOM     34  O   GLU A   1      -9.726  15.574  65.317  1.00  0.00    -0.270 OA 
ATOM     35  OXT GLU A   1     -11.455  16.469  64.173  1.00  0.00    -1.059 OA 
BRANCH  32  36
ATOM     36  CB  GLU A   1     -12.661  14.415  66.237  1.00  0.00    -0.116 C  
BRANCH  36  37
ATOM     37  CG  GLU A   1     -12.141  13.820  67.550  1.00  0.00    -0.366 C  
ATOM     38  CD  GLU A   1     -11.583  14.868  68.478  1.00  0.00    -0.323 C  
ATOM     39  OE2 GLU A   1     -11.524  16.063  68.235  1.00  0.00    -0.355 OA 
ATOM     40  OE1 GLU A   1     -11.152  14.338  69.645  1.00  0.00    -0.242 OA 
ENDBRANCH  36  37
ENDBRANCH  32  36
ENDBRANCH  30  32
ENDBRANCH  24  28
ENDBRANCH  20  22
ENDBRANCH  19  20
ENDBRANCH   4  19
TORSDOF 7
ENDMDL
MODEL       54
REMARK 921   NORMALIZED FREE ENERGY PREDICTED BY IDOCK:   -6.58 KCAL/MOL
REMARK 922        TOTAL FREE ENERGY PREDICTED BY IDOCK:  -10.54 KCAL/MOL
REMARK 923 INTER-LIGAND FREE ENERGY PREDICTED BY IDOCK:   -9.59 KCAL/MOL
REMARK 924 INTRA-LIGAND FREE ENERGY PREDICTED BY IDOCK:   -0.94 KCAL/MOL
REMARK 927      BINDING AFFINITY PREDICTED BY RF-SCORE:    0.00 PKD
ROOT
HETATM    1  C   UNK A   0      -8.622   8.158  65.451  1.00  0.00    -0.129 C  
HETATM    2  N   UNK A   0      -9.429   7.432  66.315  1.00  0.00    -0.356 N  
HETATM    3  O   UNK A   0      -8.627   9.376  65.293  1.00  0.00    -0.142 OA 
HETATM    4  C   UNK A   0     -10.449   8.110  67.197  1.00  0.00    -0.326 C  
HETATM    5  C   UNK A   0     -10.386   7.480  68.608  1.00  0.00    -0.200 C  
HETATM    6  C   UNK A   0      -9.249   3.277  66.714  1.00  0.00    -0.167 C  
HETATM    7  H   UNK A   0      -8.001   3.255  65.087  1.00  0.00     0.000 HD 
HETATM    8  N   UNK A   0     -10.553   6.044  68.472  1.00  0.00    -0.238 NA 
HETATM    9  H   UNK A   0     -11.143   5.542  69.136  1.00  0.00     0.000 HD 
HETATM   10  H2  UNK A   0      -8.713   1.362  66.111  1.00  0.00     0.000 HD 
HETATM   11  C   UNK A   0      -9.925   5.342  67.456  1.00  0.00    -0.166 C  
HETATM   12  O   UNK A   0      -8.373   5.569  64.268  1.00  0.00    -0.134 OA 
HETATM   13  C   UNK A   0      -9.374   6.018  66.410  1.00  0.00    -0.154 C  
HETATM   14  H1  UNK A   0      -9.695   1.504  67.590  1.00  0.00     0.000 HD 
HETATM   15  C   UNK A   0      -8.730   5.160  65.369  1.00  0.00    -0.149 C  
HETATM   16  N   UNK A   0      -9.884   3.977  67.591  1.00  0.00    -0.108 NA 
HETATM   17  N   UNK A   0      -9.208   1.927  66.800  1.00  0.00    -0.321 NA 
HETATM   18  N   UNK A   0      -8.602   3.839  65.668  1.00  0.00    -0.110 N  
ENDROOT
BRANCH   4  19
HETATM   19  C   UNK A   0     -10.367   9.648  67.302  1.00  0.00    -0.249 C  
BRANCH  19  20
HETATM   20  N   UNK A   0     -11.556  10.220  67.955  1.00  0.00    -0.698 NA 
HETATM   21  H   UNK A   0     -12.296   9.625  68.327  1.00  0.00     0.000 HD 
BRANCH  20  22
HETATM   22  C   UNK A   0     -11.626  11.614  68.045  1.00  0.00    -0.313 A  
HETATM   23  C   UNK A   0     -11.729  13.580  69.483  1.00  0.00    -0.382 A  
HETATM   24  C   UNK A   0     -11.494  14.403  68.377  1.00  0.00    -0.329 A  
HETATM   25  C   UNK A   0     -11.517  12.465  66.938  1.00  0.00    -0.423 A  
HETATM   26  C   UNK A   0     -11.804  12.191  69.309  1.00  0.00    -0.370 A  
HETATM   27  C   UNK A   0     -11.443  13.847  67.097  1.00  0.00    -0.370 A  
BRANCH  24  28
HETATM   28  C   UNK A   0     -11.299  15.860  68.567  1.00  0.00    -0.374 C  
ATOM     29  H   GLU A   1     -10.293  16.002  66.732  1.00  0.00     0.000 HD 
ATOM     30  N   GLU A   1     -10.575  16.506  67.574  1.00  0.00    -0.321 N  
HETATM   31  O   UNK A   0     -11.730  16.429  69.562  1.00  0.00    -0.162 OA 
BRANCH  30  32
ATOM     32  CA  GLU A   1     -10.215  17.927  67.743  1.00  0.00    -0.368 C  
ATOM     33  C   GLU A   1     -10.609  18.708  66.475  1.00  0.00    -0.358 C  
ATOM     34  O   GLU A   1     -10.674  17.927  65.368  1.00  0.00    -0.634 OA 
ATOM     35  OXT GLU A   1     -10.700  19.927  66.418  1.00  0.00    -0.454 OA 
BRANCH  32  36
ATOM     36  CB  GLU A   1      -8.706  18.066  67.997  1.00  0.00    -0.264 C  
BRANCH  36  37
ATOM     37  CG  GLU A   1      -7.867  17.076  67.183  1.00  0.00    -0.203 C  
ATOM     38  CD  GLU A   1      -7.292  15.971  68.032  1.00  0.00    -0.130 C  
ATOM     39  OE2 GLU A   1      -7.446  15.859  69.238  1.00  0.00    -0.200 OA 
ATOM     40  OE1 GLU A   1      -6.576  15.087  67.301  1.00  0.00    -0.292 OA 
ENDBRANCH  36  37
ENDBRANCH  32  36
ENDBRANCH  30  32
ENDBRANCH  24  28
ENDBRANCH  20  22
ENDBRANCH  19  20
ENDBRANCH   4  19
TORSDOF 7
ENDMDL
MODEL       55
REMARK 921   NORMALIZED FREE ENERGY PREDICTED BY IDOCK:   -6.56 KCAL/MOL
REMARK 922        TOTAL FREE ENERGY PREDICTED BY IDOCK:  -10.52 KCAL/MOL
REMARK 923 INTER-LIGAND FREE ENERGY PREDICTED BY IDOCK:   -9.28 KCAL/MOL
REMARK 924 INTRA-LIGAND FREE ENERGY PREDICTED BY IDOCK:   -1.24 KCAL/MOL
REMARK 927      BINDING AFFINITY PREDICTED BY RF-SCORE:    0.00 PKD
ROOT
HETATM    1  C   UNK A   0     -10.441   9.285  68.084  1.00  0.00    -0.215 C  
HETATM    2  N   UNK A   0     -10.249   8.828  69.380  1.00  0.00    -0.204 N  
HETATM    3  O   UNK A   0      -9.611   9.290  67.179  1.00  0.00    -0.146 OA 
HETATM    4  C   UNK A   0      -8.925   8.260  69.828  1.00  0.00    -0.146 C  
HETATM    5  C   UNK A   0      -9.186   6.993  70.674  1.00  0.00    -0.158 C  
HETATM    6  C   UNK A   0     -13.217   8.887  72.320  1.00  0.00    -0.447 C  
HETATM    7  H   UNK A   0     -14.360  10.000  71.031  1.00  0.00     0.000 HD 
HETATM    8  N   UNK A   0     -10.096   7.345  71.751  1.00  0.00    -0.176 NA 
HETATM    9  H   UNK A   0      -9.930   6.978  72.688  1.00  0.00     0.000 HD 
HETATM   10  H2  UNK A   0     -15.026   9.500  73.140  1.00  0.00     0.000 HD 
HETATM   11  C   UNK A   0     -11.185   8.172  71.527  1.00  0.00    -0.259 C  
HETATM   12  O   UNK A   0     -12.612  10.616  69.379  1.00  0.00    -0.279 OA 
HETATM   13  C   UNK A   0     -11.261   8.888  70.372  1.00  0.00    -0.230 C  
HETATM   14  H1  UNK A   0     -14.008   8.424  74.129  1.00  0.00     0.000 HD 
HETATM   15  C   UNK A   0     -12.475   9.752  70.240  1.00  0.00     0.125 C  
HETATM   16  N   UNK A   0     -12.147   8.193  72.506  1.00  0.00    -0.533 NA 
HETATM   17  N   UNK A   0     -14.176   8.952  73.272  1.00  0.00    -1.237 NA 
HETATM   18  N   UNK A   0     -13.441   9.586  71.184  1.00  0.00    -0.541 N  
ENDROOT
BRANCH   4  19
HETATM   19  C   UNK A   0      -7.890   7.952  68.724  1.00  0.00    -0.118 C  
BRANCH  19  20
HETATM   20  N   UNK A   0      -6.692   8.801  68.841  1.00  0.00    -0.053 NA 
HETATM   21  H   UNK A   0      -5.792   8.414  69.124  1.00  0.00     0.000 HD 
BRANCH  20  22
HETATM   22  C   UNK A   0      -6.842  10.160  68.546  1.00  0.00    -0.058 A  
HETATM   23  C   UNK A   0      -7.120  11.875  66.836  1.00  0.00    -0.068 A  
HETATM   24  C   UNK A   0      -7.418  12.816  67.826  1.00  0.00    -0.135 A  
HETATM   25  C   UNK A   0      -7.020  11.146  69.524  1.00  0.00    -0.111 A  
HETATM   26  C   UNK A   0      -6.823  10.555  67.202  1.00  0.00    -0.084 A  
HETATM   27  C   UNK A   0      -7.315  12.462  69.173  1.00  0.00     0.109 A  
BRANCH  24  28
HETATM   28  C   UNK A   0      -7.845  14.183  67.444  1.00  0.00    -0.177 C  
ATOM     29  H   GLU A   1      -9.862  13.653  67.657  1.00  0.00     0.000 HD 
ATOM     30  N   GLU A   1      -9.216  14.388  67.368  1.00  0.00    -0.191 N  
HETATM   31  O   UNK A   0      -7.021  15.051  67.184  1.00  0.00    -0.234 OA 
BRANCH  30  32
ATOM     32  CA  GLU A   1      -9.733  15.675  66.866  1.00  0.00    -0.230 C  
ATOM     33  C   GLU A   1     -10.399  16.445  68.022  1.00  0.00    -0.288 C  
ATOM     34  O   GLU A   1     -10.832  15.635  69.019  1.00  0.00    -0.228 OA 
ATOM     35  OXT GLU A   1     -10.664  17.639  67.992  1.00  0.00    -0.389 OA 
BRANCH  32  36
ATOM     36  CB  GLU A   1     -10.750  15.437  65.739  1.00  0.00    -0.360 C  
BRANCH  36  37
ATOM     37  CG  GLU A   1     -11.337  14.021  65.752  1.00  0.00    -0.312 C  
ATOM     38  CD  GLU A   1     -12.315  13.791  64.628  1.00  0.00    -0.372 C  
ATOM     39  OE2 GLU A   1     -12.637  14.623  63.795  1.00  0.00    -0.820 OA 
ATOM     40  OE1 GLU A   1     -12.806  12.531  64.631  1.00  0.00    -0.716 OA 
ENDBRANCH  36  37
ENDBRANCH  32  36
ENDBRANCH  30  32
ENDBRANCH  24  28
ENDBRANCH  20  22
ENDBRANCH  19  20
ENDBRANCH   4  19
TORSDOF 7
ENDMDL
MODEL       56
REMARK 921   NORMALIZED FREE ENERGY PREDICTED BY IDOCK:   -6.55 KCAL/MOL
REMARK 922        TOTAL FREE ENERGY PREDICTED BY IDOCK:  -10.50 KCAL/MOL
REMARK 923 INTER-LIGAND FREE ENERGY PREDICTED BY IDOCK:   -9.64 KCAL/MOL
REMARK 924 INTRA-LIGAND FREE ENERGY PREDICTED BY IDOCK:   -0.86 KCAL/MOL
REMARK 927      BINDING AFFINITY PREDICTED BY RF-SCORE:    0.00 PKD
ROOT
HETATM    1  C   UNK A   0     -10.484  17.690  65.370  1.00  0.00     0.096 C  
HETATM    2  N   UNK A   0      -9.576  17.202  66.299  1.00  0.00    -0.265 N  
HETATM    3  O   UNK A   0     -11.220  17.025  64.646  1.00  0.00    -0.968 OA 
HETATM    4  C   UNK A   0      -9.395  15.721  66.522  1.00  0.00    -0.283 C  
HETATM    5  C   UNK A   0      -9.304  15.453  68.042  1.00  0.00    -0.196 C  
HETATM    6  C   UNK A   0      -7.163  19.642  68.682  1.00  0.00    -0.336 C  
HETATM    7  H   UNK A   0      -7.792  21.233  67.552  1.00  0.00     0.000 HD 
HETATM    8  N   UNK A   0      -8.247  16.286  68.587  1.00  0.00    -0.202 NA 
HETATM    9  H   UNK A   0      -7.607  15.896  69.280  1.00  0.00     0.000 HD 
HETATM   10  H2  UNK A   0      -6.248  21.435  69.200  1.00  0.00     0.000 HD 
HETATM   11  C   UNK A   0      -8.092  17.602  68.183  1.00  0.00    -0.252 C  
HETATM   12  O   UNK A   0      -8.822  19.995  65.661  1.00  0.00    -0.245 OA 
HETATM   13  C   UNK A   0      -8.743  18.048  67.074  1.00  0.00    -0.247 C  
HETATM   14  H1  UNK A   0      -5.867  20.010  70.198  1.00  0.00     0.000 HD 
HETATM   15  C   UNK A   0      -8.496  19.482  66.728  1.00  0.00    -0.309 C  
HETATM   16  N   UNK A   0      -7.286  18.390  68.967  1.00  0.00    -0.265 NA 
HETATM   17  N   UNK A   0      -6.358  20.444  69.416  1.00  0.00    -0.287 NA 
HETATM   18  N   UNK A   0      -7.814  20.218  67.646  1.00  0.00    -0.300 N  
ENDROOT
BRANCH   4  19
HETATM   19  C   UNK A   0     -10.448  14.787  65.884  1.00  0.00    -0.312 C  
BRANCH  19  20
HETATM   20  N   UNK A   0      -9.961  13.402  65.776  1.00  0.00    -0.376 NA 
HETATM   21  H   UNK A   0      -9.394  13.098  64.984  1.00  0.00     0.000 HD 
BRANCH  20  22
HETATM   22  C   UNK A   0     -10.309  12.520  66.805  1.00  0.00    -0.226 A  
HETATM   23  C   UNK A   0      -9.561  10.908  68.472  1.00  0.00    -0.187 A  
HETATM   24  C   UNK A   0     -10.830  10.924  69.060  1.00  0.00    -0.275 A  
HETATM   25  C   UNK A   0     -11.602  12.425  67.334  1.00  0.00    -0.433 A  
HETATM   26  C   UNK A   0      -9.311  11.698  67.342  1.00  0.00    -0.168 A  
HETATM   27  C   UNK A   0     -11.864  11.643  68.456  1.00  0.00    -0.357 A  
BRANCH  24  28
HETATM   28  C   UNK A   0     -11.071  10.183  70.320  1.00  0.00    -0.317 C  
ATOM     29  H   GLU A   1      -9.442   8.921  69.934  1.00  0.00     0.000 HD 
ATOM     30  N   GLU A   1     -10.228   9.105  70.557  1.00  0.00    -0.216 N  
HETATM   31  O   UNK A   0     -11.984  10.499  71.072  1.00  0.00    -0.343 OA 
BRANCH  30  32
ATOM     32  CA  GLU A   1     -10.478   8.227  71.716  1.00  0.00    -0.259 C  
ATOM     33  C   GLU A   1      -9.273   8.291  72.674  1.00  0.00    -0.274 C  
ATOM     34  O   GLU A   1      -8.121   8.652  72.057  1.00  0.00    -0.247 OA 
ATOM     35  OXT GLU A   1      -9.296   7.908  73.836  1.00  0.00    -0.249 OA 
BRANCH  32  36
ATOM     36  CB  GLU A   1     -10.700   6.780  71.250  1.00  0.00    -0.257 C  
BRANCH  36  37
ATOM     37  CG  GLU A   1     -11.350   6.691  69.865  1.00  0.00    -0.422 C  
ATOM     38  CD  GLU A   1     -10.428   6.099  68.830  1.00  0.00    -0.238 C  
ATOM     39  OE2 GLU A   1      -9.280   5.736  69.037  1.00  0.00    -0.118 OA 
ATOM     40  OE1 GLU A   1     -11.020   5.999  67.618  1.00  0.00    -0.305 OA 
ENDBRANCH  36  37
ENDBRANCH  32  36
ENDBRANCH  30  32
ENDBRANCH  24  28
ENDBRANCH  20  22
ENDBRANCH  19  20
ENDBRANCH   4  19
TORSDOF 7
ENDMDL
MODEL       57
REMARK 921   NORMALIZED FREE ENERGY PREDICTED BY IDOCK:   -6.55 KCAL/MOL
REMARK 922        TOTAL FREE ENERGY PREDICTED BY IDOCK:  -10.49 KCAL/MOL
REMARK 923 INTER-LIGAND FREE ENERGY PREDICTED BY IDOCK:   -9.50 KCAL/MOL
REMARK 924 INTRA-LIGAND FREE ENERGY PREDICTED BY IDOCK:   -1.00 KCAL/MOL
REMARK 927      BINDING AFFINITY PREDICTED BY RF-SCORE:    0.00 PKD
ROOT
HETATM    1  C   UNK A   0     -10.644  17.756  65.339  1.00  0.00     0.078 C  
HETATM    2  N   UNK A   0      -9.686  17.177  66.160  1.00  0.00    -0.266 N  
HETATM    3  O   UNK A   0     -11.399  17.169  64.569  1.00  0.00    -1.034 OA 
HETATM    4  C   UNK A   0      -9.470  15.684  66.187  1.00  0.00    -0.341 C  
HETATM    5  C   UNK A   0      -9.306  15.231  67.657  1.00  0.00    -0.199 C  
HETATM    6  C   UNK A   0      -7.213  19.356  68.727  1.00  0.00    -0.355 C  
HETATM    7  H   UNK A   0      -7.921  21.061  67.833  1.00  0.00     0.000 HD 
HETATM    8  N   UNK A   0      -8.240  16.014  68.257  1.00  0.00    -0.155 NA 
HETATM    9  H   UNK A   0      -7.564  15.556  68.868  1.00  0.00     0.000 HD 
HETATM   10  H2  UNK A   0      -6.308  21.091  69.427  1.00  0.00     0.000 HD 
HETATM   11  C   UNK A   0      -8.127  17.374  68.016  1.00  0.00    -0.227 C  
HETATM   12  O   UNK A   0      -9.012  20.045  65.847  1.00  0.00    -0.314 OA 
HETATM   13  C   UNK A   0      -8.835  17.939  67.000  1.00  0.00    -0.250 C  
HETATM   14  H1  UNK A   0      -5.858  19.563  70.222  1.00  0.00     0.000 HD 
HETATM   15  C   UNK A   0      -8.629  19.410  66.826  1.00  0.00    -0.311 C  
HETATM   16  N   UNK A   0      -7.301  18.076  68.858  1.00  0.00    -0.268 NA 
HETATM   17  N   UNK A   0      -6.391  20.079  69.522  1.00  0.00    -0.338 NA 
HETATM   18  N   UNK A   0      -7.920  20.041  67.800  1.00  0.00    -0.296 N  
ENDROOT
BRANCH   4  19
HETATM   19  C   UNK A   0     -10.533  14.813  65.483  1.00  0.00    -0.359 C  
BRANCH  19  20
HETATM   20  N   UNK A   0      -9.953  13.580  64.925  1.00  0.00    -0.602 NA 
HETATM   21  H   UNK A   0      -9.370  13.597  64.088  1.00  0.00     0.000 HD 
BRANCH  20  22
HETATM   22  C   UNK A   0     -10.235  12.383  65.593  1.00  0.00    -0.262 A  
HETATM   23  C   UNK A   0      -9.782   9.999  65.820  1.00  0.00    -0.321 A  
HETATM   24  C   UNK A   0     -10.500   9.975  67.020  1.00  0.00    -0.302 A  
HETATM   25  C   UNK A   0     -11.050  12.308  66.729  1.00  0.00    -0.345 A  
HETATM   26  C   UNK A   0      -9.663  11.200  65.108  1.00  0.00    -0.296 A  
HETATM   27  C   UNK A   0     -11.178  11.120  67.445  1.00  0.00    -0.363 A  
BRANCH  24  28
HETATM   28  C   UNK A   0     -10.535   8.739  67.837  1.00  0.00    -0.216 C  
ATOM     29  H   GLU A   1     -10.761   9.862  69.594  1.00  0.00     0.000 HD 
ATOM     30  N   GLU A   1     -10.629   8.926  69.210  1.00  0.00    -0.226 N  
HETATM   31  O   UNK A   0     -10.452   7.636  67.314  1.00  0.00    -0.271 OA 
BRANCH  30  32
ATOM     32  CA  GLU A   1     -10.535   7.762  70.111  1.00  0.00    -0.231 C  
ATOM     33  C   GLU A   1     -11.833   7.645  70.933  1.00  0.00    -0.250 C  
ATOM     34  O   GLU A   1     -12.488   8.826  71.061  1.00  0.00    -0.244 OA 
ATOM     35  OXT GLU A   1     -12.172   6.643  71.547  1.00  0.00    -0.344 OA 
BRANCH  32  36
ATOM     36  CB  GLU A   1      -9.330   7.913  71.052  1.00  0.00    -0.167 C  
BRANCH  36  37
ATOM     37  CG  GLU A   1      -8.454   9.123  70.713  1.00  0.00    -0.256 C  
ATOM     38  CD  GLU A   1      -7.314   8.771  69.792  1.00  0.00    -0.052 C  
ATOM     39  OE2 GLU A   1      -7.079   7.654  69.359  1.00  0.00    -0.071 OA 
ATOM     40  OE1 GLU A   1      -6.562   9.850  69.476  1.00  0.00    -0.044 OA 
ENDBRANCH  36  37
ENDBRANCH  32  36
ENDBRANCH  30  32
ENDBRANCH  24  28
ENDBRANCH  20  22
ENDBRANCH  19  20
ENDBRANCH   4  19
TORSDOF 7
ENDMDL
MODEL       58
REMARK 921   NORMALIZED FREE ENERGY PREDICTED BY IDOCK:   -6.52 KCAL/MOL
REMARK 922        TOTAL FREE ENERGY PREDICTED BY IDOCK:  -10.45 KCAL/MOL
REMARK 923 INTER-LIGAND FREE ENERGY PREDICTED BY IDOCK:   -9.38 KCAL/MOL
REMARK 924 INTRA-LIGAND FREE ENERGY PREDICTED BY IDOCK:   -1.07 KCAL/MOL
REMARK 927      BINDING AFFINITY PREDICTED BY RF-SCORE:    0.00 PKD
ROOT
HETATM    1  C   UNK A   0      -8.829  14.560  67.123  1.00  0.00    -0.229 C  
HETATM    2  N   UNK A   0      -9.755  15.363  66.472  1.00  0.00    -0.256 N  
HETATM    3  O   UNK A   0      -8.799  13.333  67.127  1.00  0.00    -0.208 OA 
HETATM    4  C   UNK A   0     -10.878  14.770  65.656  1.00  0.00    -0.339 C  
HETATM    5  C   UNK A   0     -11.014  15.568  64.339  1.00  0.00    -0.043 C  
HETATM    6  C   UNK A   0      -9.680  19.539  66.575  1.00  0.00    -0.388 C  
HETATM    7  H   UNK A   0      -8.222  19.398  68.011  1.00  0.00     0.000 HD 
HETATM    8  N   UNK A   0     -11.178  16.972  64.675  1.00  0.00    -0.972 NA 
HETATM    9  H   UNK A   0     -11.859  17.534  64.163  1.00  0.00     0.000 HD 
HETATM   10  H2  UNK A   0      -9.089  21.381  67.335  1.00  0.00     0.000 HD 
HETATM   11  C   UNK A   0     -10.426  17.561  65.678  1.00  0.00    -0.149 C  
HETATM   12  O   UNK A   0      -8.452  16.991  68.576  1.00  0.00    -0.239 OA 
HETATM   13  C   UNK A   0      -9.730  16.779  66.547  1.00  0.00    -0.283 C  
HETATM   14  H1  UNK A   0     -10.262  21.393  65.995  1.00  0.00     0.000 HD 
HETATM   15  C   UNK A   0      -8.960  17.521  67.593  1.00  0.00    -0.231 C  
HETATM   16  N   UNK A   0     -10.420  18.934  65.709  1.00  0.00    -0.587 NA 
HETATM   17  N   UNK A   0      -9.666  20.890  66.653  1.00  0.00    -0.548 NA 
HETATM   18  N   UNK A   0      -8.890  18.872  67.447  1.00  0.00    -0.272 N  
ENDROOT
BRANCH   4  19
HETATM   19  C   UNK A   0     -10.792  13.259  65.350  1.00  0.00    -0.291 C  
BRANCH  19  20
HETATM   20  N   UNK A   0     -11.662  12.467  66.236  1.00  0.00    -0.472 NA 
HETATM   21  H   UNK A   0     -12.599  12.785  66.484  1.00  0.00     0.000 HD 
BRANCH  20  22
HETATM   22  C   UNK A   0     -11.148  11.260  66.722  1.00  0.00    -0.250 A  
HETATM   23  C   UNK A   0      -9.718   9.326  66.328  1.00  0.00    -0.340 A  
HETATM   24  C   UNK A   0      -9.832   8.965  67.675  1.00  0.00    -0.229 A  
HETATM   25  C   UNK A   0     -11.347  10.810  68.034  1.00  0.00    -0.378 A  
HETATM   26  C   UNK A   0     -10.385  10.465  65.858  1.00  0.00    -0.261 A  
HETATM   27  C   UNK A   0     -10.691   9.679  68.513  1.00  0.00    -0.239 A  
BRANCH  24  28
HETATM   28  C   UNK A   0      -9.040   7.831  68.207  1.00  0.00    -0.130 C  
ATOM     29  H   GLU A   1     -10.741   6.604  68.225  1.00  0.00     0.000 HD 
ATOM     30  N   GLU A   1      -9.755   6.671  68.478  1.00  0.00    -0.130 N  
HETATM   31  O   UNK A   0      -7.840   7.944  68.416  1.00  0.00    -0.115 OA 
BRANCH  30  32
ATOM     32  CA  GLU A   1      -9.079   5.537  69.135  1.00  0.00    -0.108 C  
ATOM     33  C   GLU A   1      -9.118   4.310  68.204  1.00  0.00    -0.131 C  
ATOM     34  O   GLU A   1     -10.142   4.349  67.316  1.00  0.00    -0.156 OA 
ATOM     35  OXT GLU A   1      -8.410   3.321  68.338  1.00  0.00    -0.075 OA 
BRANCH  32  36
ATOM     36  CB  GLU A   1      -9.768   5.206  70.467  1.00  0.00    -0.260 C  
BRANCH  36  37
ATOM     37  CG  GLU A   1      -9.867   6.412  71.406  1.00  0.00    -0.195 C  
ATOM     38  CD  GLU A   1     -10.828   6.182  72.545  1.00  0.00    -0.240 C  
ATOM     39  OE2 GLU A   1     -11.480   5.165  72.719  1.00  0.00    -0.268 OA 
ATOM     40  OE1 GLU A   1     -10.887   7.241  73.384  1.00  0.00    -0.374 OA 
ENDBRANCH  36  37
ENDBRANCH  32  36
ENDBRANCH  30  32
ENDBRANCH  24  28
ENDBRANCH  20  22
ENDBRANCH  19  20
ENDBRANCH   4  19
TORSDOF 7
ENDMDL
MODEL       59
REMARK 921   NORMALIZED FREE ENERGY PREDICTED BY IDOCK:   -6.49 KCAL/MOL
REMARK 922        TOTAL FREE ENERGY PREDICTED BY IDOCK:  -10.42 KCAL/MOL
REMARK 923 INTER-LIGAND FREE ENERGY PREDICTED BY IDOCK:   -9.11 KCAL/MOL
REMARK 924 INTRA-LIGAND FREE ENERGY PREDICTED BY IDOCK:   -1.31 KCAL/MOL
REMARK 927      BINDING AFFINITY PREDICTED BY RF-SCORE:    0.00 PKD
ROOT
HETATM    1  C   UNK A   0      -9.118  14.440  68.183  1.00  0.00    -0.194 C  
HETATM    2  N   UNK A   0      -9.911  15.050  67.221  1.00  0.00    -0.227 N  
HETATM    3  O   UNK A   0      -9.143  13.256  68.508  1.00  0.00    -0.161 OA 
HETATM    4  C   UNK A   0     -10.938  14.271  66.436  1.00  0.00    -0.311 C  
HETATM    5  C   UNK A   0     -10.859  14.697  64.951  1.00  0.00    -0.419 C  
HETATM    6  C   UNK A   0      -9.667  19.106  66.250  1.00  0.00    -0.365 C  
HETATM    7  H   UNK A   0      -8.425  19.336  67.866  1.00  0.00     0.000 HD 
HETATM    8  N   UNK A   0     -11.005  16.141  64.885  1.00  0.00    -0.584 NA 
HETATM    9  H   UNK A   0     -11.585  16.554  64.154  1.00  0.00     0.000 HD 
HETATM   10  H2  UNK A   0      -9.104  21.079  66.584  1.00  0.00     0.000 HD 
HETATM   11  C   UNK A   0     -10.371  16.968  65.798  1.00  0.00    -0.261 C  
HETATM   12  O   UNK A   0      -8.836  17.164  68.996  1.00  0.00    -0.220 OA 
HETATM   13  C   UNK A   0      -9.834  16.436  66.930  1.00  0.00    -0.261 C  
HETATM   14  H1  UNK A   0     -10.083  20.747  65.133  1.00  0.00     0.000 HD 
HETATM   15  C   UNK A   0      -9.182  17.421  67.847  1.00  0.00    -0.256 C  
HETATM   16  N   UNK A   0     -10.309  18.301  65.474  1.00  0.00    -0.531 NA 
HETATM   17  N   UNK A   0      -9.605  20.430  65.977  1.00  0.00    -0.668 NA 
HETATM   18  N   UNK A   0      -9.033  18.686  67.368  1.00  0.00    -0.271 N  
ENDROOT
BRANCH   4  19
HETATM   19  C   UNK A   0     -10.878  12.732  66.546  1.00  0.00    -0.256 C  
BRANCH  19  20
HETATM   20  N   UNK A   0     -11.927  12.203  67.433  1.00  0.00    -0.570 NA 
HETATM   21  H   UNK A   0     -12.865  12.605  67.447  1.00  0.00     0.000 HD 
BRANCH  20  22
HETATM   22  C   UNK A   0     -11.583  11.124  68.255  1.00  0.00    -0.289 A  
HETATM   23  C   UNK A   0     -11.830  10.026  70.417  1.00  0.00    -0.343 A  
HETATM   24  C   UNK A   0     -11.198   8.886  69.912  1.00  0.00    -0.076 A  
HETATM   25  C   UNK A   0     -10.844  10.021  67.810  1.00  0.00    -0.337 A  
HETATM   26  C   UNK A   0     -12.010  11.142  69.589  1.00  0.00    -0.429 A  
HETATM   27  C   UNK A   0     -10.657   8.906  68.624  1.00  0.00    -0.182 A  
BRANCH  24  28
HETATM   28  C   UNK A   0     -11.105   7.661  70.742  1.00  0.00    -0.264 C  
ATOM     29  H   GLU A   1      -9.054   7.975  71.042  1.00  0.00     0.000 HD 
ATOM     30  N   GLU A   1      -9.835   7.338  71.201  1.00  0.00    -0.182 N  
HETATM   31  O   UNK A   0     -12.095   6.977  70.967  1.00  0.00    -0.342 OA 
BRANCH  30  32
ATOM     32  CA  GLU A   1      -9.622   6.068  71.920  1.00  0.00    -0.150 C  
ATOM     33  C   GLU A   1      -8.498   6.249  72.957  1.00  0.00    -0.117 C  
ATOM     34  O   GLU A   1      -7.643   7.254  72.643  1.00  0.00    -0.082 OA 
ATOM     35  OXT GLU A   1      -8.287   5.481  73.885  1.00  0.00    -0.113 OA 
BRANCH  32  36
ATOM     36  CB  GLU A   1      -9.248   4.953  70.931  1.00  0.00    -0.196 C  
BRANCH  36  37
ATOM     37  CG  GLU A   1      -8.474   5.468  69.713  1.00  0.00    -0.105 C  
ATOM     38  CD  GLU A   1      -9.310   5.477  68.459  1.00  0.00    -0.121 C  
ATOM     39  OE2 GLU A   1     -10.471   5.108  68.385  1.00  0.00    -0.118 OA 
ATOM     40  OE1 GLU A   1      -8.627   5.959  67.395  1.00  0.00    -0.108 OA 
ENDBRANCH  36  37
ENDBRANCH  32  36
ENDBRANCH  30  32
ENDBRANCH  24  28
ENDBRANCH  20  22
ENDBRANCH  19  20
ENDBRANCH   4  19
TORSDOF 7
ENDMDL
MODEL       60
REMARK 921   NORMALIZED FREE ENERGY PREDICTED BY IDOCK:   -6.49 KCAL/MOL
REMARK 922        TOTAL FREE ENERGY PREDICTED BY IDOCK:  -10.41 KCAL/MOL
REMARK 923 INTER-LIGAND FREE ENERGY PREDICTED BY IDOCK:   -9.60 KCAL/MOL
REMARK 924 INTRA-LIGAND FREE ENERGY PREDICTED BY IDOCK:   -0.81 KCAL/MOL
REMARK 927      BINDING AFFINITY PREDICTED BY RF-SCORE:    0.00 PKD
ROOT
HETATM    1  C   UNK A   0      -9.137   9.742  67.938  1.00  0.00    -0.121 C  
HETATM    2  N   UNK A   0     -10.089   8.775  68.227  1.00  0.00    -0.181 N  
HETATM    3  O   UNK A   0      -9.052  10.860  68.440  1.00  0.00    -0.150 OA 
HETATM    4  C   UNK A   0     -11.175   9.018  69.247  1.00  0.00     0.176 C  
HETATM    5  C   UNK A   0     -11.330   7.752  70.121  1.00  0.00    -0.110 C  
HETATM    6  C   UNK A   0     -10.200   5.015  66.409  1.00  0.00    -0.273 C  
HETATM    7  H   UNK A   0      -8.755   5.686  65.117  1.00  0.00     0.000 HD 
HETATM    8  N   UNK A   0     -11.560   6.619  69.241  1.00  0.00    -0.646 NA 
HETATM    9  H   UNK A   0     -12.258   5.920  69.496  1.00  0.00     0.000 HD 
HETATM   10  H2  UNK A   0      -9.700   3.633  64.940  1.00  0.00     0.000 HD 
HETATM   11  C   UNK A   0     -10.847   6.470  68.063  1.00  0.00    -0.295 C  
HETATM   12  O   UNK A   0      -8.885   8.117  65.601  1.00  0.00    -0.168 OA 
HETATM   13  C   UNK A   0     -10.128   7.517  67.574  1.00  0.00    -0.200 C  
HETATM   14  H1  UNK A   0     -10.856   3.109  66.190  1.00  0.00     0.000 HD 
HETATM   15  C   UNK A   0      -9.404   7.246  66.293  1.00  0.00    -0.108 C  
HETATM   16  N   UNK A   0     -10.902   5.234  67.468  1.00  0.00    -0.121 NA 
HETATM   17  N   UNK A   0     -10.247   3.818  65.780  1.00  0.00    -0.419 NA 
HETATM   18  N   UNK A   0      -9.392   5.954  65.867  1.00  0.00    -0.317 N  
ENDROOT
BRANCH   4  19
HETATM   19  C   UNK A   0     -11.019  10.263  70.147  1.00  0.00    -0.314 C  
BRANCH  19  20
HETATM   20  N   UNK A   0     -12.191  11.150  70.068  1.00  0.00    -0.326 NA 
HETATM   21  H   UNK A   0     -13.126  10.817  70.303  1.00  0.00     0.000 HD 
BRANCH  20  22
HETATM   22  C   UNK A   0     -11.968  12.469  69.656  1.00  0.00    -0.272 A  
HETATM   23  C   UNK A   0     -11.816  14.820  70.281  1.00  0.00    -0.357 A  
HETATM   24  C   UNK A   0     -11.275  15.120  69.027  1.00  0.00    -0.282 A  
HETATM   25  C   UNK A   0     -11.542  12.812  68.367  1.00  0.00    -0.365 A  
HETATM   26  C   UNK A   0     -12.169  13.498  70.585  1.00  0.00    -0.434 A  
HETATM   27  C   UNK A   0     -11.190  14.123  68.052  1.00  0.00    -0.302 A  
BRANCH  24  28
HETATM   28  C   UNK A   0     -10.793  16.491  68.737  1.00  0.00    -0.342 C  
ATOM     29  H   GLU A   1     -10.697  16.064  66.687  1.00  0.00     0.000 HD 
ATOM     30  N   GLU A   1     -10.494  16.757  67.407  1.00  0.00    -0.314 N  
HETATM   31  O   UNK A   0     -10.645  17.309  69.635  1.00  0.00    -0.208 OA 
BRANCH  30  32
ATOM     32  CA  GLU A   1      -9.882  18.049  67.044  1.00  0.00    -0.318 C  
ATOM     33  C   GLU A   1     -10.483  18.543  65.715  1.00  0.00    -0.247 C  
ATOM     34  O   GLU A   1     -10.975  17.539  64.947  1.00  0.00    -0.887 OA 
ATOM     35  OXT GLU A   1     -10.392  19.692  65.303  1.00  0.00    -0.286 OA 
BRANCH  32  36
ATOM     36  CB  GLU A   1      -8.359  17.895  66.906  1.00  0.00    -0.260 C  
BRANCH  36  37
ATOM     37  CG  GLU A   1      -7.620  19.238  66.898  1.00  0.00    -0.253 C  
ATOM     38  CD  GLU A   1      -6.737  19.404  65.688  1.00  0.00    -0.275 C  
ATOM     39  OE2 GLU A   1      -6.593  18.574  64.804  1.00  0.00    -0.416 OA 
ATOM     40  OE1 GLU A   1      -6.110  20.602  65.676  1.00  0.00    -0.211 OA 
ENDBRANCH  36  37
ENDBRANCH  32  36
ENDBRANCH  30  32
ENDBRANCH  24  28
ENDBRANCH  20  22
ENDBRANCH  19  20
ENDBRANCH   4  19
TORSDOF 7
ENDMDL
MODEL       61
REMARK 921   NORMALIZED FREE ENERGY PREDICTED BY IDOCK:   -6.45 KCAL/MOL
REMARK 922        TOTAL FREE ENERGY PREDICTED BY IDOCK:  -10.36 KCAL/MOL
REMARK 923 INTER-LIGAND FREE ENERGY PREDICTED BY IDOCK:   -9.48 KCAL/MOL
REMARK 924 INTRA-LIGAND FREE ENERGY PREDICTED BY IDOCK:   -0.88 KCAL/MOL
REMARK 927      BINDING AFFINITY PREDICTED BY RF-SCORE:    0.00 PKD
ROOT
HETATM    1  C   UNK A   0     -10.697  16.973  65.024  1.00  0.00     0.021 C  
HETATM    2  N   UNK A   0     -10.392  16.187  66.127  1.00  0.00    -0.324 N  
HETATM    3  O   UNK A   0     -11.563  16.749  64.183  1.00  0.00    -1.106 OA 
HETATM    4  C   UNK A   0     -11.141  14.909  66.415  1.00  0.00    -0.342 C  
HETATM    5  C   UNK A   0     -11.452  14.844  67.928  1.00  0.00    -0.340 C  
HETATM    6  C   UNK A   0      -7.403  17.130  68.889  1.00  0.00    -0.241 C  
HETATM    7  H   UNK A   0      -6.814  18.629  67.619  1.00  0.00     0.000 HD 
HETATM    8  N   UNK A   0     -10.204  14.998  68.655  1.00  0.00    -0.225 NA 
HETATM    9  H   UNK A   0     -10.023  14.413  69.471  1.00  0.00     0.000 HD 
HETATM   10  H2  UNK A   0      -5.708  18.143  69.538  1.00  0.00     0.000 HD 
HETATM   11  C   UNK A   0      -9.256  15.928  68.261  1.00  0.00    -0.189 C  
HETATM   12  O   UNK A   0      -8.072  17.949  65.590  1.00  0.00    -0.514 OA 
HETATM   13  C   UNK A   0      -9.351  16.510  67.034  1.00  0.00    -0.230 C  
HETATM   14  H1  UNK A   0      -6.380  16.903  70.625  1.00  0.00     0.000 HD 
HETATM   15  C   UNK A   0      -8.269  17.491  66.711  1.00  0.00    -0.244 C  
HETATM   16  N   UNK A   0      -8.271  16.219  69.172  1.00  0.00    -0.239 NA 
HETATM   17  N   UNK A   0      -6.404  17.428  69.751  1.00  0.00    -0.206 NA 
HETATM   18  N   UNK A   0      -7.434  17.828  67.731  1.00  0.00    -0.200 N  
ENDROOT
BRANCH   4  19
HETATM   19  C   UNK A   0     -12.429  14.658  65.601  1.00  0.00    -0.110 C  
BRANCH  19  20
HETATM   20  N   UNK A   0     -12.204  13.718  64.491  1.00  0.00    -0.507 NA 
HETATM   21  H   UNK A   0     -12.635  13.861  63.578  1.00  0.00     0.000 HD 
BRANCH  20  22
HETATM   22  C   UNK A   0     -11.374  12.620  64.742  1.00  0.00    -0.312 A  
HETATM   23  C   UNK A   0     -10.721  10.845  66.279  1.00  0.00    -0.241 A  
HETATM   24  C   UNK A   0      -9.967  10.243  65.267  1.00  0.00    -0.387 A  
HETATM   25  C   UNK A   0     -10.514  12.069  63.784  1.00  0.00    -0.469 A  
HETATM   26  C   UNK A   0     -11.412  12.035  66.014  1.00  0.00    -0.399 A  
HETATM   27  C   UNK A   0      -9.821  10.887  64.035  1.00  0.00    -0.377 A  
BRANCH  24  28
HETATM   28  C   UNK A   0      -9.327   8.927  65.502  1.00  0.00    -0.145 C  
ATOM     29  H   GLU A   1     -10.528   8.604  67.191  1.00  0.00     0.000 HD 
ATOM     30  N   GLU A   1      -9.754   8.243  66.633  1.00  0.00    -0.230 N  
HETATM   31  O   UNK A   0      -8.457   8.507  64.752  1.00  0.00    -0.170 OA 
BRANCH  30  32
ATOM     32  CA  GLU A   1      -9.080   6.990  67.022  1.00  0.00    -0.137 C  
ATOM     33  C   GLU A   1      -9.949   5.790  66.601  1.00  0.00    -0.176 C  
ATOM     34  O   GLU A   1     -11.264   6.101  66.486  1.00  0.00    -0.147 OA 
ATOM     35  OXT GLU A   1      -9.544   4.638  66.529  1.00  0.00    -0.150 OA 
BRANCH  32  36
ATOM     36  CB  GLU A   1      -8.847   6.961  68.541  1.00  0.00    -0.124 C  
BRANCH  36  37
ATOM     37  CG  GLU A   1      -9.609   8.063  69.284  1.00  0.00    -0.157 C  
ATOM     38  CD  GLU A   1     -10.899   7.569  69.888  1.00  0.00    -0.240 C  
ATOM     39  OE2 GLU A   1     -11.324   6.428  69.799  1.00  0.00    -0.384 OA 
ATOM     40  OE1 GLU A   1     -11.550   8.541  70.565  1.00  0.00    -0.240 OA 
ENDBRANCH  36  37
ENDBRANCH  32  36
ENDBRANCH  30  32
ENDBRANCH  24  28
ENDBRANCH  20  22
ENDBRANCH  19  20
ENDBRANCH   4  19
TORSDOF 7
ENDMDL
MODEL       62
REMARK 921   NORMALIZED FREE ENERGY PREDICTED BY IDOCK:   -6.45 KCAL/MOL
REMARK 922        TOTAL FREE ENERGY PREDICTED BY IDOCK:  -10.36 KCAL/MOL
REMARK 923 INTER-LIGAND FREE ENERGY PREDICTED BY IDOCK:   -9.33 KCAL/MOL
REMARK 924 INTRA-LIGAND FREE ENERGY PREDICTED BY IDOCK:   -1.03 KCAL/MOL
REMARK 927      BINDING AFFINITY PREDICTED BY RF-SCORE:    0.00 PKD
ROOT
HETATM    1  C   UNK A   0     -10.902  16.682  69.626  1.00  0.00    -0.282 C  
HETATM    2  N   UNK A   0     -10.602  16.693  68.271  1.00  0.00    -0.321 N  
HETATM    3  O   UNK A   0     -11.685  15.928  70.196  1.00  0.00    -0.332 OA 
HETATM    4  C   UNK A   0     -11.246  15.721  67.313  1.00  0.00    -0.140 C  
HETATM    5  C   UNK A   0     -10.165  15.181  66.349  1.00  0.00    -0.281 C  
HETATM    6  C   UNK A   0      -7.890  19.346  66.521  1.00  0.00    -0.288 C  
HETATM    7  H   UNK A   0      -7.831  20.343  68.312  1.00  0.00     0.000 HD 
HETATM    8  N   UNK A   0      -9.510  16.315  65.721  1.00  0.00    -0.477 NA 
HETATM    9  H   UNK A   0      -9.291  16.280  64.725  1.00  0.00     0.000 HD 
HETATM   10  H2  UNK A   0      -6.717  21.060  66.473  1.00  0.00     0.000 HD 
HETATM   11  C   UNK A   0      -9.175  17.444  66.451  1.00  0.00    -0.249 C  
HETATM   12  O   UNK A   0      -9.807  19.312  69.406  1.00  0.00    -0.314 OA 
HETATM   13  C   UNK A   0      -9.703  17.625  67.693  1.00  0.00    -0.277 C  
HETATM   14  H1  UNK A   0      -6.740  20.050  65.006  1.00  0.00     0.000 HD 
HETATM   15  C   UNK A   0      -9.279  18.881  68.385  1.00  0.00    -0.347 C  
HETATM   16  N   UNK A   0      -8.294  18.315  65.859  1.00  0.00    -0.498 NA 
HETATM   17  N   UNK A   0      -7.041  20.239  65.963  1.00  0.00    -0.344 NA 
HETATM   18  N   UNK A   0      -8.288  19.596  67.789  1.00  0.00    -0.304 N  
ENDROOT
BRANCH   4  19
HETATM   19  C   UNK A   0     -12.031  14.546  67.936  1.00  0.00    -0.287 C  
BRANCH  19  20
HETATM   20  N   UNK A   0     -11.951  13.331  67.109  1.00  0.00    -0.367 NA 
HETATM   21  H   UNK A   0     -12.143  13.356  66.107  1.00  0.00     0.000 HD 
BRANCH  20  22
HETATM   22  C   UNK A   0     -11.599  12.141  67.755  1.00  0.00    -0.342 A  
HETATM   23  C   UNK A   0     -10.785   9.852  67.549  1.00  0.00    -0.333 A  
HETATM   24  C   UNK A   0     -10.605   9.791  68.935  1.00  0.00    -0.240 A  
HETATM   25  C   UNK A   0     -11.528  12.011  69.147  1.00  0.00    -0.357 A  
HETATM   26  C   UNK A   0     -11.290  11.023  66.969  1.00  0.00    -0.164 A  
HETATM   27  C   UNK A   0     -11.028  10.852  69.737  1.00  0.00    -0.290 A  
BRANCH  24  28
HETATM   28  C   UNK A   0      -9.965   8.602  69.546  1.00  0.00    -0.196 C  
ATOM     29  H   GLU A   1     -10.058   7.569  67.723  1.00  0.00     0.000 HD 
ATOM     30  N   GLU A   1      -9.819   7.500  68.712  1.00  0.00    -0.162 N  
HETATM   31  O   UNK A   0      -9.625   8.603  70.721  1.00  0.00    -0.167 OA 
BRANCH  30  32
ATOM     32  CA  GLU A   1      -9.317   6.229  69.268  1.00  0.00    -0.136 C  
ATOM     33  C   GLU A   1      -8.694   5.388  68.138  1.00  0.00    -0.105 C  
ATOM     34  O   GLU A   1      -9.186   5.697  66.912  1.00  0.00    -0.117 OA 
ATOM     35  OXT GLU A   1      -7.953   4.431  68.319  1.00  0.00    -0.079 OA 
BRANCH  32  36
ATOM     36  CB  GLU A   1     -10.462   5.449  69.931  1.00  0.00    -0.378 C  
BRANCH  36  37
ATOM     37  CG  GLU A   1     -10.187   5.117  71.402  1.00  0.00    -0.282 C  
ATOM     38  CD  GLU A   1     -11.094   5.868  72.343  1.00  0.00    -0.280 C  
ATOM     39  OE2 GLU A   1     -11.950   6.669  72.005  1.00  0.00    -0.311 OA 
ATOM     40  OE1 GLU A   1     -10.863   5.547  73.637  1.00  0.00    -0.278 OA 
ENDBRANCH  36  37
ENDBRANCH  32  36
ENDBRANCH  30  32
ENDBRANCH  24  28
ENDBRANCH  20  22
ENDBRANCH  19  20
ENDBRANCH   4  19
TORSDOF 7
ENDMDL
MODEL       63
REMARK 921   NORMALIZED FREE ENERGY PREDICTED BY IDOCK:   -6.43 KCAL/MOL
REMARK 922        TOTAL FREE ENERGY PREDICTED BY IDOCK:  -10.33 KCAL/MOL
REMARK 923 INTER-LIGAND FREE ENERGY PREDICTED BY IDOCK:   -9.42 KCAL/MOL
REMARK 924 INTRA-LIGAND FREE ENERGY PREDICTED BY IDOCK:   -0.91 KCAL/MOL
REMARK 927      BINDING AFFINITY PREDICTED BY RF-SCORE:    0.00 PKD
ROOT
HETATM    1  C   UNK A   0     -10.549   4.221  72.971  1.00  0.00    -0.190 C  
HETATM    2  N   UNK A   0     -10.352   4.725  71.693  1.00  0.00    -0.178 N  
HETATM    3  O   UNK A   0     -11.146   4.772  73.892  1.00  0.00    -0.294 OA 
HETATM    4  C   UNK A   0     -10.884   6.078  71.289  1.00  0.00    -0.272 C  
HETATM    5  C   UNK A   0     -11.506   5.967  69.878  1.00  0.00    -0.155 C  
HETATM    6  C   UNK A   0      -8.294   2.679  68.687  1.00  0.00    -0.064 C  
HETATM    7  H   UNK A   0      -7.738   1.310  70.110  1.00  0.00     0.000 HD 
HETATM    8  N   UNK A   0     -10.506   5.412  68.983  1.00  0.00    -0.209 NA 
HETATM    9  H   UNK A   0     -10.401   5.800  68.045  1.00  0.00     0.000 HD 
HETATM   10  H2  UNK A   0      -7.016   1.209  67.963  1.00  0.00     0.000 HD 
HETATM   11  C   UNK A   0      -9.691   4.364  69.381  1.00  0.00    -0.197 C  
HETATM   12  O   UNK A   0      -8.357   2.583  72.150  1.00  0.00    -0.057 OA 
HETATM   13  C   UNK A   0      -9.622   4.027  70.698  1.00  0.00    -0.190 C  
HETATM   14  H1  UNK A   0      -7.660   2.379  66.785  1.00  0.00     0.000 HD 
HETATM   15  C   UNK A   0      -8.706   2.887  71.013  1.00  0.00    -0.071 C  
HETATM   16  N   UNK A   0      -9.010   3.709  68.386  1.00  0.00    -0.116 NA 
HETATM   17  N   UNK A   0      -7.589   2.022  67.738  1.00  0.00    -0.055 NA 
HETATM   18  N   UNK A   0      -8.201   2.205  69.950  1.00  0.00    -0.041 N  
ENDROOT
BRANCH   4  19
HETATM   19  C   UNK A   0     -11.885   6.749  72.254  1.00  0.00    -0.242 C  
BRANCH  19  20
HETATM   20  N   UNK A   0     -11.380   8.035  72.764  1.00  0.00    -0.406 NA 
HETATM   21  H   UNK A   0     -10.996   8.120  73.705  1.00  0.00     0.000 HD 
BRANCH  20  22
HETATM   22  C   UNK A   0     -11.450   9.135  71.902  1.00  0.00    -0.353 A  
HETATM   23  C   UNK A   0     -10.445  10.366  70.053  1.00  0.00    -0.235 A  
HETATM   24  C   UNK A   0     -11.605  11.138  69.935  1.00  0.00    -0.416 A  
HETATM   25  C   UNK A   0     -12.548  10.002  71.845  1.00  0.00    -0.454 A  
HETATM   26  C   UNK A   0     -10.370   9.376  71.043  1.00  0.00    -0.382 A  
HETATM   27  C   UNK A   0     -12.634  10.990  70.867  1.00  0.00    -0.488 A  
BRANCH  24  28
HETATM   28  C   UNK A   0     -11.738  12.107  68.821  1.00  0.00    -0.321 C  
ATOM     29  H   GLU A   1     -10.751  13.582  69.938  1.00  0.00     0.000 HD 
ATOM     30  N   GLU A   1     -11.251  13.383  69.071  1.00  0.00    -0.268 N  
HETATM   31  O   UNK A   0     -12.278  11.788  67.770  1.00  0.00    -0.536 OA 
BRANCH  30  32
ATOM     32  CA  GLU A   1     -11.461  14.450  68.073  1.00  0.00    -0.310 C  
ATOM     33  C   GLU A   1     -10.202  14.585  67.197  1.00  0.00    -0.260 C  
ATOM     34  O   GLU A   1      -9.076  14.144  67.812  1.00  0.00    -0.177 OA 
ATOM     35  OXT GLU A   1     -10.169  15.171  66.123  1.00  0.00    -0.266 OA 
BRANCH  32  36
ATOM     36  CB  GLU A   1     -11.756  15.784  68.776  1.00  0.00    -0.387 C  
BRANCH  36  37
ATOM     37  CG  GLU A   1     -11.208  15.842  70.206  1.00  0.00    -0.388 C  
ATOM     38  CD  GLU A   1     -12.299  15.801  71.245  1.00  0.00    -0.438 C  
ATOM     39  OE2 GLU A   1     -13.495  15.744  71.007  1.00  0.00    -0.581 OA 
ATOM     40  OE1 GLU A   1     -11.805  15.825  72.504  1.00  0.00    -0.423 OA 
ENDBRANCH  36  37
ENDBRANCH  32  36
ENDBRANCH  30  32
ENDBRANCH  24  28
ENDBRANCH  20  22
ENDBRANCH  19  20
ENDBRANCH   4  19
TORSDOF 7
ENDMDL
MODEL       64
REMARK 921   NORMALIZED FREE ENERGY PREDICTED BY IDOCK:   -6.41 KCAL/MOL
REMARK 922        TOTAL FREE ENERGY PREDICTED BY IDOCK:  -10.31 KCAL/MOL
REMARK 923 INTER-LIGAND FREE ENERGY PREDICTED BY IDOCK:   -9.23 KCAL/MOL
REMARK 924 INTRA-LIGAND FREE ENERGY PREDICTED BY IDOCK:   -1.07 KCAL/MOL
REMARK 927      BINDING AFFINITY PREDICTED BY RF-SCORE:    0.00 PKD
ROOT
HETATM    1  C   UNK A   0      -9.023   4.820  66.960  1.00  0.00    -0.111 C  
HETATM    2  N   UNK A   0      -9.770   4.998  68.115  1.00  0.00    -0.142 N  
HETATM    3  O   UNK A   0      -9.124   5.459  65.916  1.00  0.00    -0.152 OA 
HETATM    4  C   UNK A   0     -10.841   6.058  68.206  1.00  0.00    -0.284 C  
HETATM    5  C   UNK A   0     -10.728   6.765  69.576  1.00  0.00    -0.257 C  
HETATM    6  C   UNK A   0      -9.263   2.717  71.578  1.00  0.00    -0.114 C  
HETATM    7  H   UNK A   0      -8.016   1.499  70.497  1.00  0.00     0.000 HD 
HETATM    8  N   UNK A   0     -10.782   5.752  70.616  1.00  0.00    -0.278 NA 
HETATM    9  H   UNK A   0     -11.330   5.926  71.458  1.00  0.00     0.000 HD 
HETATM   10  H2  UNK A   0      -8.577   1.075  72.653  1.00  0.00     0.000 HD 
HETATM   11  C   UNK A   0     -10.100   4.553  70.483  1.00  0.00    -0.162 C  
HETATM   12  O   UNK A   0      -8.570   2.292  68.210  1.00  0.00    -0.069 OA 
HETATM   13  C   UNK A   0      -9.604   4.190  69.268  1.00  0.00    -0.186 C  
HETATM   14  H1  UNK A   0      -9.568   2.266  73.531  1.00  0.00     0.000 HD 
HETATM   15  C   UNK A   0      -8.894   2.874  69.241  1.00  0.00    -0.096 C  
HETATM   16  N   UNK A   0      -9.952   3.806  71.625  1.00  0.00    -0.171 NA 
HETATM   17  N   UNK A   0      -9.115   1.941  72.677  1.00  0.00    -0.069 NA 
HETATM   18  N   UNK A   0      -8.662   2.287  70.446  1.00  0.00    -0.058 N  
ENDROOT
BRANCH   4  19
HETATM   19  C   UNK A   0     -10.880   7.107  67.073  1.00  0.00    -0.312 C  
BRANCH  19  20
HETATM   20  N   UNK A   0      -9.918   8.198  67.300  1.00  0.00    -0.194 NA 
HETATM   21  H   UNK A   0      -8.931   8.008  67.478  1.00  0.00     0.000 HD 
BRANCH  20  22
HETATM   22  C   UNK A   0     -10.413   9.505  67.260  1.00  0.00    -0.262 A  
HETATM   23  C   UNK A   0     -11.499  11.330  68.456  1.00  0.00    -0.372 A  
HETATM   24  C   UNK A   0     -11.201  12.201  67.403  1.00  0.00    -0.362 A  
HETATM   25  C   UNK A   0     -10.236  10.364  66.167  1.00  0.00    -0.288 A  
HETATM   26  C   UNK A   0     -11.113   9.986  68.374  1.00  0.00    -0.236 A  
HETATM   27  C   UNK A   0     -10.617  11.702  66.236  1.00  0.00    -0.301 A  
BRANCH  24  28
HETATM   28  C   UNK A   0     -11.502  13.646  67.529  1.00  0.00    -0.329 C  
ATOM     29  H   GLU A   1     -10.792  13.660  69.502  1.00  0.00     0.000 HD 
ATOM     30  N   GLU A   1     -11.248  14.209  68.773  1.00  0.00    -0.254 N  
HETATM   31  O   UNK A   0     -11.975  14.275  66.591  1.00  0.00    -0.410 OA 
BRANCH  30  32
ATOM     32  CA  GLU A   1     -11.642  15.607  69.033  1.00  0.00    -0.386 C  
ATOM     33  C   GLU A   1     -10.389  16.502  69.015  1.00  0.00    -0.296 C  
ATOM     34  O   GLU A   1      -9.248  15.826  69.299  1.00  0.00    -0.238 OA 
ATOM     35  OXT GLU A   1     -10.415  17.722  68.916  1.00  0.00    -0.342 OA 
BRANCH  32  36
ATOM     36  CB  GLU A   1     -12.345  15.716  70.395  1.00  0.00    -0.427 C  
BRANCH  36  37
ATOM     37  CG  GLU A   1     -12.666  14.352  71.014  1.00  0.00    -0.416 C  
ATOM     38  CD  GLU A   1     -13.775  14.427  72.033  1.00  0.00    -0.442 C  
ATOM     39  OE2 GLU A   1     -14.361  15.446  72.360  1.00  0.00    -0.543 OA 
ATOM     40  OE1 GLU A   1     -14.070  13.214  72.554  1.00  0.00    -0.672 OA 
ENDBRANCH  36  37
ENDBRANCH  32  36
ENDBRANCH  30  32
ENDBRANCH  24  28
ENDBRANCH  20  22
ENDBRANCH  19  20
ENDBRANCH   4  19
TORSDOF 7
ENDMDL
MODEL       65
REMARK 921   NORMALIZED FREE ENERGY PREDICTED BY IDOCK:   -6.41 KCAL/MOL
REMARK 922        TOTAL FREE ENERGY PREDICTED BY IDOCK:  -10.30 KCAL/MOL
REMARK 923 INTER-LIGAND FREE ENERGY PREDICTED BY IDOCK:   -9.55 KCAL/MOL
REMARK 924 INTRA-LIGAND FREE ENERGY PREDICTED BY IDOCK:   -0.75 KCAL/MOL
REMARK 927      BINDING AFFINITY PREDICTED BY RF-SCORE:    0.00 PKD
ROOT
HETATM    1  C   UNK A   0      -9.391   6.904  69.755  1.00  0.00    -0.146 C  
HETATM    2  N   UNK A   0     -10.226   6.704  70.845  1.00  0.00    -0.195 N  
HETATM    3  O   UNK A   0      -9.250   7.948  69.123  1.00  0.00    -0.145 OA 
HETATM    4  C   UNK A   0     -11.090   7.814  71.391  1.00  0.00    -0.238 C  
HETATM    5  C   UNK A   0     -11.015   7.792  72.935  1.00  0.00    -0.407 C  
HETATM    6  C   UNK A   0     -10.558   3.066  72.872  1.00  0.00    -0.119 C  
HETATM    7  H   UNK A   0      -9.433   2.223  71.378  1.00  0.00     0.000 HD 
HETATM    8  N   UNK A   0     -11.375   6.459  73.387  1.00  0.00    -0.413 NA 
HETATM    9  H   UNK A   0     -11.979   6.352  74.202  1.00  0.00     0.000 HD 
HETATM   10  H2  UNK A   0     -10.314   1.012  73.082  1.00  0.00     0.000 HD 
HETATM   11  C   UNK A   0     -10.911   5.330  72.731  1.00  0.00    -0.275 C  
HETATM   12  O   UNK A   0      -9.557   4.053  69.705  1.00  0.00    -0.188 OA 
HETATM   13  C   UNK A   0     -10.348   5.451  71.498  1.00  0.00    -0.225 C  
HETATM   14  H1  UNK A   0     -11.170   1.867  74.389  1.00  0.00     0.000 HD 
HETATM   15  C   UNK A   0      -9.890   4.168  70.881  1.00  0.00    -0.177 C  
HETATM   16  N   UNK A   0     -11.038   4.139  73.402  1.00  0.00    -0.257 NA 
HETATM   17  N   UNK A   0     -10.685   1.870  73.491  1.00  0.00    -0.121 NA 
HETATM   18  N   UNK A   0      -9.914   3.069  71.683  1.00  0.00    -0.140 N  
ENDROOT
BRANCH   4  19
HETATM   19  C   UNK A   0     -10.803   9.240  70.871  1.00  0.00    -0.296 C  
BRANCH  19  20
HETATM   20  N   UNK A   0     -11.589   9.555  69.666  1.00  0.00    -0.441 NA 
HETATM   21  H   UNK A   0     -12.347   8.949  69.352  1.00  0.00     0.000 HD 
BRANCH  20  22
HETATM   22  C   UNK A   0     -11.251  10.720  68.970  1.00  0.00    -0.262 A  
HETATM   23  C   UNK A   0     -10.472  11.720  66.887  1.00  0.00    -0.256 A  
HETATM   24  C   UNK A   0     -10.801  12.990  67.372  1.00  0.00    -0.269 A  
HETATM   25  C   UNK A   0     -11.455  12.009  69.479  1.00  0.00    -0.351 A  
HETATM   26  C   UNK A   0     -10.689  10.594  67.693  1.00  0.00    -0.315 A  
HETATM   27  C   UNK A   0     -11.242  13.136  68.689  1.00  0.00    -0.314 A  
BRANCH  24  28
HETATM   28  C   UNK A   0     -10.684  14.173  66.488  1.00  0.00    -0.289 C  
ATOM     29  H   GLU A   1      -8.973  14.818  67.516  1.00  0.00     0.000 HD 
ATOM     30  N   GLU A   1      -9.650  15.051  66.788  1.00  0.00    -0.234 N  
HETATM   31  O   UNK A   0     -11.480  14.361  65.577  1.00  0.00    -0.327 OA 
BRANCH  30  32
ATOM     32  CA  GLU A   1      -9.536  16.322  66.049  1.00  0.00    -0.337 C  
ATOM     33  C   GLU A   1      -8.137  16.924  66.278  1.00  0.00    -0.316 C  
ATOM     34  O   GLU A   1      -7.561  16.505  67.432  1.00  0.00    -0.132 OA 
ATOM     35  OXT GLU A   1      -7.646  17.807  65.589  1.00  0.00    -0.541 OA 
BRANCH  32  36
ATOM     36  CB  GLU A   1     -10.615  17.309  66.520  1.00  0.00    -0.178 C  
BRANCH  36  37
ATOM     37  CG  GLU A   1     -10.379  17.818  67.946  1.00  0.00    -0.388 C  
ATOM     38  CD  GLU A   1     -10.329  19.323  68.022  1.00  0.00    -0.405 C  
ATOM     39  OE2 GLU A   1     -10.445  20.078  67.070  1.00  0.00    -0.434 OA 
ATOM     40  OE1 GLU A   1     -10.148  19.763  69.288  1.00  0.00    -0.417 OA 
ENDBRANCH  36  37
ENDBRANCH  32  36
ENDBRANCH  30  32
ENDBRANCH  24  28
ENDBRANCH  20  22
ENDBRANCH  19  20
ENDBRANCH   4  19
TORSDOF 7
ENDMDL
MODEL       66
REMARK 921   NORMALIZED FREE ENERGY PREDICTED BY IDOCK:   -6.35 KCAL/MOL
REMARK 922        TOTAL FREE ENERGY PREDICTED BY IDOCK:  -10.22 KCAL/MOL
REMARK 923 INTER-LIGAND FREE ENERGY PREDICTED BY IDOCK:   -9.04 KCAL/MOL
REMARK 924 INTRA-LIGAND FREE ENERGY PREDICTED BY IDOCK:   -1.18 KCAL/MOL
REMARK 927      BINDING AFFINITY PREDICTED BY RF-SCORE:    0.00 PKD
ROOT
HETATM    1  C   UNK A   0     -12.224  14.456  64.415  1.00  0.00    -0.458 C  
HETATM    2  N   UNK A   0     -11.305  14.524  65.452  1.00  0.00    -0.331 N  
HETATM    3  O   UNK A   0     -12.665  13.436  63.893  1.00  0.00    -0.670 OA 
HETATM    4  C   UNK A   0     -10.725  13.277  66.075  1.00  0.00    -0.277 C  
HETATM    5  C   UNK A   0     -10.703  13.450  67.611  1.00  0.00    -0.247 C  
HETATM    6  C   UNK A   0      -9.933  18.108  67.104  1.00  0.00    -0.336 C  
HETATM    7  H   UNK A   0     -10.887  19.085  65.574  1.00  0.00     0.000 HD 
HETATM    8  N   UNK A   0      -9.988  14.676  67.919  1.00  0.00    -0.219 NA 
HETATM    9  H   UNK A   0      -9.330  14.690  68.699  1.00  0.00     0.000 HD 
HETATM   10  H2  UNK A   0      -9.628  20.164  67.121  1.00  0.00     0.000 HD 
HETATM   11  C   UNK A   0     -10.183  15.826  67.172  1.00  0.00    -0.279 C  
HETATM   12  O   UNK A   0     -11.334  17.151  64.083  1.00  0.00    -1.031 OA 
HETATM   13  C   UNK A   0     -10.828  15.752  65.976  1.00  0.00    -0.255 C  
HETATM   14  H1  UNK A   0      -8.948  19.229  68.476  1.00  0.00     0.000 HD 
HETATM   15  C   UNK A   0     -10.975  17.053  65.253  1.00  0.00    -0.006 C  
HETATM   16  N   UNK A   0      -9.716  16.996  67.719  1.00  0.00    -0.253 NA 
HETATM   17  N   UNK A   0      -9.467  19.278  67.599  1.00  0.00    -0.308 NA 
HETATM   18  N   UNK A   0     -10.623  18.172  65.943  1.00  0.00    -0.343 N  
ENDROOT
BRANCH   4  19
HETATM   19  C   UNK A   0     -11.399  11.937  65.705  1.00  0.00    -0.299 C  
BRANCH  19  20
HETATM   20  N   UNK A   0     -10.596  11.164  64.743  1.00  0.00    -0.319 NA 
HETATM   21  H   UNK A   0     -10.562  11.416  63.755  1.00  0.00     0.000 HD 
BRANCH  20  22
HETATM   22  C   UNK A   0      -9.881  10.069  65.242  1.00  0.00    -0.318 A  
HETATM   23  C   UNK A   0      -9.543   8.495  67.072  1.00  0.00    -0.246 A  
HETATM   24  C   UNK A   0      -8.719   7.717  66.252  1.00  0.00    -0.174 A  
HETATM   25  C   UNK A   0      -8.955   9.343  64.483  1.00  0.00    -0.227 A  
HETATM   26  C   UNK A   0     -10.111   9.672  66.565  1.00  0.00    -0.314 A  
HETATM   27  C   UNK A   0      -8.383   8.172  64.975  1.00  0.00    -0.146 A  
BRANCH  24  28
HETATM   28  C   UNK A   0      -8.207   6.415  66.740  1.00  0.00    -0.110 C  
ATOM     29  H   GLU A   1     -10.094   5.919  67.509  1.00  0.00     0.000 HD 
ATOM     30  N   GLU A   1      -9.118   5.632  67.438  1.00  0.00    -0.111 N  
HETATM   31  O   UNK A   0      -7.042   6.087  66.556  1.00  0.00    -0.069 OA 
BRANCH  30  32
ATOM     32  CA  GLU A   1      -8.664   4.382  68.077  1.00  0.00    -0.105 C  
ATOM     33  C   GLU A   1      -8.822   3.215  67.085  1.00  0.00    -0.137 C  
ATOM     34  O   GLU A   1      -9.767   3.444  66.140  1.00  0.00    -0.104 OA 
ATOM     35  OXT GLU A   1      -8.280   2.125  67.212  1.00  0.00    -0.069 OA 
BRANCH  32  36
ATOM     36  CB  GLU A   1      -9.483   4.106  69.347  1.00  0.00    -0.260 C  
BRANCH  36  37
ATOM     37  CG  GLU A   1     -10.390   5.277  69.741  1.00  0.00    -0.369 C  
ATOM     38  CD  GLU A   1     -10.486   5.456  71.235  1.00  0.00    -0.226 C  
ATOM     39  OE2 GLU A   1      -9.930   4.754  72.064  1.00  0.00    -0.172 OA 
ATOM     40  OE1 GLU A   1     -11.266   6.508  71.573  1.00  0.00    -0.252 OA 
ENDBRANCH  36  37
ENDBRANCH  32  36
ENDBRANCH  30  32
ENDBRANCH  24  28
ENDBRANCH  20  22
ENDBRANCH  19  20
ENDBRANCH   4  19
TORSDOF 7
ENDMDL
MODEL       67
REMARK 921   NORMALIZED FREE ENERGY PREDICTED BY IDOCK:   -6.34 KCAL/MOL
REMARK 922        TOTAL FREE ENERGY PREDICTED BY IDOCK:  -10.21 KCAL/MOL
REMARK 923 INTER-LIGAND FREE ENERGY PREDICTED BY IDOCK:   -9.30 KCAL/MOL
REMARK 924 INTRA-LIGAND FREE ENERGY PREDICTED BY IDOCK:   -0.90 KCAL/MOL
REMARK 927      BINDING AFFINITY PREDICTED BY RF-SCORE:    0.00 PKD
ROOT
HETATM    1  C   UNK A   0     -10.334   7.370  67.658  1.00  0.00    -0.231 C  
HETATM    2  N   UNK A   0     -10.087   8.297  68.661  1.00  0.00    -0.192 N  
HETATM    3  O   UNK A   0     -10.209   7.548  66.450  1.00  0.00    -0.140 OA 
HETATM    4  C   UNK A   0      -9.612   9.694  68.344  1.00  0.00    -0.144 C  
HETATM    5  C   UNK A   0      -8.488  10.075  69.335  1.00  0.00    -0.170 C  
HETATM    6  C   UNK A   0     -10.567   7.490  72.732  1.00  0.00    -0.313 C  
HETATM    7  H   UNK A   0     -11.452   5.719  72.195  1.00  0.00     0.000 HD 
HETATM    8  N   UNK A   0      -8.993   9.893  70.685  1.00  0.00    -0.357 NA 
HETATM    9  H   UNK A   0      -8.778  10.589  71.399  1.00  0.00     0.000 HD 
HETATM   10  H2  UNK A   0     -11.279   6.399  74.351  1.00  0.00     0.000 HD 
HETATM   11  C   UNK A   0      -9.762   8.790  71.020  1.00  0.00    -0.230 C  
HETATM   12  O   UNK A   0     -11.825   6.176  69.783  1.00  0.00    -0.219 OA 
HETATM   13  C   UNK A   0     -10.289   8.012  70.035  1.00  0.00    -0.218 C  
HETATM   14  H1  UNK A   0     -10.382   7.895  74.710  1.00  0.00     0.000 HD 
HETATM   15  C   UNK A   0     -11.107   6.854  70.512  1.00  0.00    -0.288 C  
HETATM   16  N   UNK A   0      -9.923   8.543  72.361  1.00  0.00    -0.309 NA 
HETATM   17  N   UNK A   0     -10.768   7.226  74.044  1.00  0.00    -0.572 NA 
HETATM   18  N   UNK A   0     -11.078   6.602  71.849  1.00  0.00    -0.243 N  
ENDROOT
BRANCH   4  19
HETATM   19  C   UNK A   0      -9.148   9.959  66.895  1.00  0.00    -0.142 C  
BRANCH  19  20
HETATM   20  N   UNK A   0     -10.175  10.663  66.109  1.00  0.00    -0.247 NA 
HETATM   21  H   UNK A   0     -10.896  10.154  65.598  1.00  0.00     0.000 HD 
BRANCH  20  22
HETATM   22  C   UNK A   0     -10.119  12.061  66.092  1.00  0.00    -0.226 A  
HETATM   23  C   UNK A   0      -8.948  14.081  66.793  1.00  0.00    -0.217 A  
HETATM   24  C   UNK A   0      -9.730  14.840  65.916  1.00  0.00    -0.355 A  
HETATM   25  C   UNK A   0     -10.971  12.857  65.317  1.00  0.00    -0.310 A  
HETATM   26  C   UNK A   0      -9.154  12.698  66.883  1.00  0.00    -0.218 A  
HETATM   27  C   UNK A   0     -10.778  14.234  65.220  1.00  0.00    -0.377 A  
BRANCH  24  28
HETATM   28  C   UNK A   0      -9.444  16.282  65.729  1.00  0.00    -0.194 C  
ATOM     29  H   GLU A   1      -7.476  16.017  66.405  1.00  0.00     0.000 HD 
ATOM     30  N   GLU A   1      -8.175  16.699  66.110  1.00  0.00    -0.317 N  
HETATM   31  O   UNK A   0     -10.298  17.043  65.295  1.00  0.00    -0.626 OA 
BRANCH  30  32
ATOM     32  CA  GLU A   1      -7.845  18.137  66.087  1.00  0.00    -0.204 C  
ATOM     33  C   GLU A   1      -6.398  18.321  65.590  1.00  0.00    -0.265 C  
ATOM     34  O   GLU A   1      -5.623  17.228  65.795  1.00  0.00    -0.213 OA 
ATOM     35  OXT GLU A   1      -5.935  19.383  65.196  1.00  0.00    -0.202 OA 
BRANCH  32  36
ATOM     36  CB  GLU A   1      -7.997  18.741  67.491  1.00  0.00    -0.260 C  
BRANCH  36  37
ATOM     37  CG  GLU A   1      -8.672  17.787  68.483  1.00  0.00    -0.284 C  
ATOM     38  CD  GLU A   1     -10.156  18.026  68.596  1.00  0.00    -0.394 C  
ATOM     39  OE2 GLU A   1     -10.778  18.885  67.991  1.00  0.00    -0.337 OA 
ATOM     40  OE1 GLU A   1     -10.747  17.162  69.452  1.00  0.00    -0.288 OA 
ENDBRANCH  36  37
ENDBRANCH  32  36
ENDBRANCH  30  32
ENDBRANCH  24  28
ENDBRANCH  20  22
ENDBRANCH  19  20
ENDBRANCH   4  19
TORSDOF 7
ENDMDL
MODEL       68
REMARK 921   NORMALIZED FREE ENERGY PREDICTED BY IDOCK:   -6.34 KCAL/MOL
REMARK 922        TOTAL FREE ENERGY PREDICTED BY IDOCK:  -10.20 KCAL/MOL
REMARK 923 INTER-LIGAND FREE ENERGY PREDICTED BY IDOCK:   -9.07 KCAL/MOL
REMARK 924 INTRA-LIGAND FREE ENERGY PREDICTED BY IDOCK:   -1.13 KCAL/MOL
REMARK 927      BINDING AFFINITY PREDICTED BY RF-SCORE:    0.00 PKD
ROOT
HETATM    1  C   UNK A   0     -11.242   6.664  68.216  1.00  0.00    -0.115 C  
HETATM    2  N   UNK A   0     -10.252   7.216  69.016  1.00  0.00    -0.184 N  
HETATM    3  O   UNK A   0     -11.279   6.668  66.989  1.00  0.00    -0.404 OA 
HETATM    4  C   UNK A   0      -9.054   7.913  68.419  1.00  0.00    -0.135 C  
HETATM    5  C   UNK A   0      -7.786   7.470  69.185  1.00  0.00    -0.113 C  
HETATM    6  C   UNK A   0     -10.306   7.087  73.191  1.00  0.00    -0.281 C  
HETATM    7  H   UNK A   0     -12.220   6.361  73.065  1.00  0.00     0.000 HD 
HETATM    8  N   UNK A   0      -7.999   7.724  70.599  1.00  0.00    -0.096 NA 
HETATM    9  H   UNK A   0      -7.241   8.117  71.158  1.00  0.00     0.000 HD 
HETATM   10  H2  UNK A   0     -11.211   6.820  75.043  1.00  0.00     0.000 HD 
HETATM   11  C   UNK A   0      -9.213   7.442  71.203  1.00  0.00    -0.155 C  
HETATM   12  O   UNK A   0     -12.679   6.865  70.677  1.00  0.00    -0.226 OA 
HETATM   13  C   UNK A   0     -10.307   7.190  70.432  1.00  0.00    -0.203 C  
HETATM   14  H1  UNK A   0      -9.505   7.330  75.038  1.00  0.00     0.000 HD 
HETATM   15  C   UNK A   0     -11.565   6.905  71.190  1.00  0.00    -0.319 C  
HETATM   16  N   UNK A   0      -9.221   7.416  72.576  1.00  0.00    -0.138 NA 
HETATM   17  N   UNK A   0     -10.359   7.074  74.543  1.00  0.00    -0.450 NA 
HETATM   18  N   UNK A   0     -11.438   6.747  72.535  1.00  0.00    -0.377 N  
ENDROOT
BRANCH   4  19
HETATM   19  C   UNK A   0      -8.836   7.745  66.899  1.00  0.00    -0.131 C  
BRANCH  19  20
HETATM   20  N   UNK A   0      -8.486   9.019  66.249  1.00  0.00    -0.122 NA 
HETATM   21  H   UNK A   0      -7.794   9.061  65.501  1.00  0.00     0.000 HD 
BRANCH  20  22
HETATM   22  C   UNK A   0      -9.142  10.168  66.702  1.00  0.00    -0.144 A  
HETATM   23  C   UNK A   0      -8.951  12.426  67.602  1.00  0.00    -0.183 A  
HETATM   24  C   UNK A   0     -10.316  12.631  67.380  1.00  0.00    -0.224 A  
HETATM   25  C   UNK A   0     -10.527  10.354  66.606  1.00  0.00    -0.279 A  
HETATM   26  C   UNK A   0      -8.374  11.192  67.271  1.00  0.00    -0.135 A  
HETATM   27  C   UNK A   0     -11.113  11.575  66.932  1.00  0.00    -0.366 A  
BRANCH  24  28
HETATM   28  C   UNK A   0     -10.912  13.967  67.618  1.00  0.00    -0.269 C  
ATOM     29  H   GLU A   1      -9.885  14.142  69.438  1.00  0.00     0.000 HD 
ATOM     30  N   GLU A   1     -10.576  14.571  68.823  1.00  0.00    -0.242 N  
HETATM   31  O   UNK A   0     -11.675  14.471  66.805  1.00  0.00    -0.373 OA 
BRANCH  30  32
ATOM     32  CA  GLU A   1     -11.226  15.839  69.207  1.00  0.00    -0.324 C  
ATOM     33  C   GLU A   1     -10.253  17.007  68.958  1.00  0.00    -0.313 C  
ATOM     34  O   GLU A   1      -8.951  16.628  68.974  1.00  0.00    -0.256 OA 
ATOM     35  OXT GLU A   1     -10.588  18.183  68.909  1.00  0.00    -0.174 OA 
BRANCH  32  36
ATOM     36  CB  GLU A   1     -11.631  15.801  70.689  1.00  0.00    -0.416 C  
BRANCH  36  37
ATOM     37  CG  GLU A   1     -12.171  14.435  71.127  1.00  0.00    -0.420 C  
ATOM     38  CD  GLU A   1     -13.278  14.551  72.143  1.00  0.00    -0.369 C  
ATOM     39  OE2 GLU A   1     -13.709  15.599  72.597  1.00  0.00    -0.525 OA 
ATOM     40  OE1 GLU A   1     -13.767  13.342  72.503  1.00  0.00    -0.613 OA 
ENDBRANCH  36  37
ENDBRANCH  32  36
ENDBRANCH  30  32
ENDBRANCH  24  28
ENDBRANCH  20  22
ENDBRANCH  19  20
ENDBRANCH   4  19
TORSDOF 7
ENDMDL
MODEL       69
REMARK 921   NORMALIZED FREE ENERGY PREDICTED BY IDOCK:   -6.33 KCAL/MOL
REMARK 922        TOTAL FREE ENERGY PREDICTED BY IDOCK:  -10.19 KCAL/MOL
REMARK 923 INTER-LIGAND FREE ENERGY PREDICTED BY IDOCK:   -9.11 KCAL/MOL
REMARK 924 INTRA-LIGAND FREE ENERGY PREDICTED BY IDOCK:   -1.08 KCAL/MOL
REMARK 927      BINDING AFFINITY PREDICTED BY RF-SCORE:    0.00 PKD
ROOT
HETATM    1  C   UNK A   0     -10.295   5.016  70.250  1.00  0.00    -0.229 C  
HETATM    2  N   UNK A   0     -10.083   5.678  69.049  1.00  0.00    -0.177 N  
HETATM    3  O   UNK A   0     -10.479   5.534  71.348  1.00  0.00    -0.226 OA 
HETATM    4  C   UNK A   0     -10.058   7.185  68.973  1.00  0.00    -0.183 C  
HETATM    5  C   UNK A   0     -10.856   7.635  67.727  1.00  0.00    -0.063 C  
HETATM    6  C   UNK A   0      -9.485   3.727  65.403  1.00  0.00    -0.168 C  
HETATM    7  H   UNK A   0      -9.357   1.971  66.455  1.00  0.00     0.000 HD 
HETATM    8  N   UNK A   0     -10.306   6.955  66.567  1.00  0.00    -0.478 NA 
HETATM    9  H   UNK A   0     -10.179   7.471  65.696  1.00  0.00     0.000 HD 
HETATM   10  H2  UNK A   0      -9.040   2.083  64.213  1.00  0.00     0.000 HD 
HETATM   11  C   UNK A   0      -9.952   5.616  66.622  1.00  0.00    -0.181 C  
HETATM   12  O   UNK A   0      -9.110   2.896  68.746  1.00  0.00    -0.122 OA 
HETATM   13  C   UNK A   0      -9.850   4.995  67.828  1.00  0.00    -0.154 C  
HETATM   14  H1  UNK A   0      -9.297   3.639  63.386  1.00  0.00     0.000 HD 
HETATM   15  C   UNK A   0      -9.454   3.554  67.768  1.00  0.00    -0.178 C  
HETATM   16  N   UNK A   0      -9.745   4.990  65.418  1.00  0.00    -0.344 NA 
HETATM   17  N   UNK A   0      -9.251   3.080  64.238  1.00  0.00    -0.118 NA 
HETATM   18  N   UNK A   0      -9.425   2.986  66.533  1.00  0.00    -0.386 N  
ENDROOT
BRANCH   4  19
HETATM   19  C   UNK A   0     -10.550   7.953  70.219  1.00  0.00    -0.231 C  
BRANCH  19  20
HETATM   20  N   UNK A   0      -9.736   9.151  70.484  1.00  0.00    -0.217 NA 
HETATM   21  H   UNK A   0      -8.977   9.138  71.165  1.00  0.00     0.000 HD 
BRANCH  20  22
HETATM   22  C   UNK A   0     -10.048  10.308  69.761  1.00  0.00    -0.203 A  
HETATM   23  C   UNK A   0     -11.531  12.223  69.486  1.00  0.00    -0.318 A  
HETATM   24  C   UNK A   0     -10.632  12.790  68.577  1.00  0.00    -0.270 A  
HETATM   25  C   UNK A   0      -9.227  10.835  68.757  1.00  0.00    -0.192 A  
HETATM   26  C   UNK A   0     -11.239  10.981  70.065  1.00  0.00    -0.303 A  
HETATM   27  C   UNK A   0      -9.507  12.068  68.173  1.00  0.00    -0.200 A  
BRANCH  24  28
HETATM   28  C   UNK A   0     -10.875  14.153  68.048  1.00  0.00    -0.246 C  
ATOM     29  H   GLU A   1     -10.187  13.580  66.151  1.00  0.00     0.000 HD 
ATOM     30  N   GLU A   1     -10.509  14.360  66.724  1.00  0.00    -0.271 N  
HETATM   31  O   UNK A   0     -11.340  15.032  68.761  1.00  0.00    -0.261 OA 
BRANCH  30  32
ATOM     32  CA  GLU A   1     -10.588  15.718  66.151  1.00  0.00    -0.313 C  
ATOM     33  C   GLU A   1     -11.103  15.632  64.702  1.00  0.00    -0.373 C  
ATOM     34  O   GLU A   1     -10.863  14.429  64.123  1.00  0.00    -0.052 OA 
ATOM     35  OXT GLU A   1     -11.539  16.583  64.068  1.00  0.00    -1.154 OA 
BRANCH  32  36
ATOM     36  CB  GLU A   1      -9.206  16.388  66.178  1.00  0.00    -0.365 C  
BRANCH  36  37
ATOM     37  CG  GLU A   1      -9.233  17.792  66.790  1.00  0.00    -0.281 C  
ATOM     38  CD  GLU A   1      -8.694  17.820  68.197  1.00  0.00    -0.266 C  
ATOM     39  OE2 GLU A   1      -8.289  16.848  68.814  1.00  0.00    -0.242 OA 
ATOM     40  OE1 GLU A   1      -8.696  19.069  68.718  1.00  0.00    -0.350 OA 
ENDBRANCH  36  37
ENDBRANCH  32  36
ENDBRANCH  30  32
ENDBRANCH  24  28
ENDBRANCH  20  22
ENDBRANCH  19  20
ENDBRANCH   4  19
TORSDOF 7
ENDMDL
MODEL       70
REMARK 921   NORMALIZED FREE ENERGY PREDICTED BY IDOCK:   -6.32 KCAL/MOL
REMARK 922        TOTAL FREE ENERGY PREDICTED BY IDOCK:  -10.18 KCAL/MOL
REMARK 923 INTER-LIGAND FREE ENERGY PREDICTED BY IDOCK:   -8.85 KCAL/MOL
REMARK 924 INTRA-LIGAND FREE ENERGY PREDICTED BY IDOCK:   -1.33 KCAL/MOL
REMARK 927      BINDING AFFINITY PREDICTED BY RF-SCORE:    0.00 PKD
ROOT
HETATM    1  C   UNK A   0     -11.023   6.243  68.138  1.00  0.00    -0.323 C  
HETATM    2  N   UNK A   0      -9.984   6.324  69.054  1.00  0.00    -0.141 N  
HETATM    3  O   UNK A   0     -10.928   6.306  66.915  1.00  0.00    -0.358 OA 
HETATM    4  C   UNK A   0      -8.554   6.509  68.609  1.00  0.00    -0.124 C  
HETATM    5  C   UNK A   0      -7.648   5.570  69.440  1.00  0.00    -0.078 C  
HETATM    6  C   UNK A   0     -10.517   6.073  73.190  1.00  0.00    -0.230 C  
HETATM    7  H   UNK A   0     -12.538   6.174  72.855  1.00  0.00     0.000 HD 
HETATM    8  N   UNK A   0      -7.890   5.835  70.847  1.00  0.00    -0.103 NA 
HETATM    9  H   UNK A   0      -7.101   5.873  71.493  1.00  0.00     0.000 HD 
HETATM   10  H2  UNK A   0     -11.641   6.120  74.937  1.00  0.00     0.000 HD 
HETATM   11  C   UNK A   0      -9.174   6.037  71.328  1.00  0.00    -0.146 C  
HETATM   12  O   UNK A   0     -12.513   6.907  70.483  1.00  0.00    -0.270 OA 
HETATM   13  C   UNK A   0     -10.192   6.269  70.456  1.00  0.00    -0.193 C  
HETATM   14  H1  UNK A   0      -9.881   5.908  75.108  1.00  0.00     0.000 HD 
HETATM   15  C   UNK A   0     -11.531   6.481  71.086  1.00  0.00    -0.326 C  
HETATM   16  N   UNK A   0      -9.333   5.966  72.690  1.00  0.00    -0.144 NA 
HETATM   17  N   UNK A   0     -10.711   6.032  74.528  1.00  0.00    -0.350 NA 
HETATM   18  N   UNK A   0     -11.617   6.236  72.421  1.00  0.00    -0.376 N  
ENDROOT
BRANCH   4  19
HETATM   19  C   UNK A   0      -8.263   6.325  67.104  1.00  0.00    -0.109 C  
BRANCH  19  20
HETATM   20  N   UNK A   0      -7.690   7.540  66.501  1.00  0.00    -0.095 NA 
HETATM   21  H   UNK A   0      -6.804   7.516  65.997  1.00  0.00     0.000 HD 
BRANCH  20  22
HETATM   22  C   UNK A   0      -8.414   8.728  66.649  1.00  0.00    -0.108 A  
HETATM   23  C   UNK A   0     -10.259  10.122  65.878  1.00  0.00    -0.281 A  
HETATM   24  C   UNK A   0     -10.118  10.936  67.006  1.00  0.00    -0.244 A  
HETATM   25  C   UNK A   0      -8.212   9.627  67.703  1.00  0.00    -0.114 A  
HETATM   26  C   UNK A   0      -9.400   9.029  65.701  1.00  0.00    -0.289 A  
HETATM   27  C   UNK A   0      -9.058  10.718  67.890  1.00  0.00    -0.150 A  
BRANCH  24  28
HETATM   28  C   UNK A   0     -11.092  12.023  67.261  1.00  0.00    -0.285 C  
ATOM     29  H   GLU A   1     -10.026  12.630  68.962  1.00  0.00     0.000 HD 
ATOM     30  N   GLU A   1     -10.869  12.777  68.406  1.00  0.00    -0.240 N  
HETATM   31  O   UNK A   0     -12.044  12.204  66.513  1.00  0.00    -0.627 OA 
BRANCH  30  32
ATOM     32  CA  GLU A   1     -11.859  13.792  68.814  1.00  0.00    -0.363 C  
ATOM     33  C   GLU A   1     -11.304  15.197  68.515  1.00  0.00    -0.309 C  
ATOM     34  O   GLU A   1      -9.949  15.235  68.473  1.00  0.00    -0.213 OA 
ATOM     35  OXT GLU A   1     -11.985  16.212  68.475  1.00  0.00    -0.214 OA 
BRANCH  32  36
ATOM     36  CB  GLU A   1     -12.170  13.659  70.312  1.00  0.00    -0.423 C  
BRANCH  36  37
ATOM     37  CG  GLU A   1     -12.405  12.209  70.749  1.00  0.00    -0.391 C  
ATOM     38  CD  GLU A   1     -13.171  12.112  72.044  1.00  0.00    -0.391 C  
ATOM     39  OE2 GLU A   1     -13.561  13.063  72.702  1.00  0.00    -0.573 OA 
ATOM     40  OE1 GLU A   1     -13.397  10.828  72.407  1.00  0.00    -0.269 OA 
ENDBRANCH  36  37
ENDBRANCH  32  36
ENDBRANCH  30  32
ENDBRANCH  24  28
ENDBRANCH  20  22
ENDBRANCH  19  20
ENDBRANCH   4  19
TORSDOF 7
ENDMDL
MODEL       71
REMARK 921   NORMALIZED FREE ENERGY PREDICTED BY IDOCK:   -6.31 KCAL/MOL
REMARK 922        TOTAL FREE ENERGY PREDICTED BY IDOCK:  -10.16 KCAL/MOL
REMARK 923 INTER-LIGAND FREE ENERGY PREDICTED BY IDOCK:   -9.15 KCAL/MOL
REMARK 924 INTRA-LIGAND FREE ENERGY PREDICTED BY IDOCK:   -1.02 KCAL/MOL
REMARK 927      BINDING AFFINITY PREDICTED BY RF-SCORE:    0.00 PKD
ROOT
HETATM    1  C   UNK A   0      -8.539   6.325  69.221  1.00  0.00    -0.124 C  
HETATM    2  N   UNK A   0      -8.939   7.321  70.100  1.00  0.00    -0.148 N  
HETATM    3  O   UNK A   0      -7.417   6.175  68.746  1.00  0.00    -0.083 OA 
HETATM    4  C   UNK A   0      -7.977   8.377  70.586  1.00  0.00    -0.101 C  
HETATM    5  C   UNK A   0      -8.188   8.585  72.104  1.00  0.00    -0.112 C  
HETATM    6  C   UNK A   0     -12.818   7.653  71.617  1.00  0.00    -0.349 C  
HETATM    7  H   UNK A   0     -13.377   6.195  70.287  1.00  0.00     0.000 HD 
HETATM    8  N   UNK A   0      -9.591   8.886  72.330  1.00  0.00    -0.300 NA 
HETATM    9  H   UNK A   0      -9.846   9.616  72.995  1.00  0.00     0.000 HD 
HETATM   10  H2  UNK A   0     -14.857   7.248  71.645  1.00  0.00     0.000 HD 
HETATM   11  C   UNK A   0     -10.589   8.199  71.657  1.00  0.00    -0.232 C  
HETATM   12  O   UNK A   0     -11.366   6.193  68.830  1.00  0.00    -0.367 OA 
HETATM   13  C   UNK A   0     -10.270   7.435  70.577  1.00  0.00    -0.193 C  
HETATM   14  H1  UNK A   0     -14.242   8.410  72.846  1.00  0.00     0.000 HD 
HETATM   15  C   UNK A   0     -11.426   6.745  69.925  1.00  0.00    -0.300 C  
HETATM   16  N   UNK A   0     -11.861   8.327  72.157  1.00  0.00    -0.344 NA 
HETATM   17  N   UNK A   0     -14.089   7.771  72.065  1.00  0.00    -0.559 NA 
HETATM   18  N   UNK A   0     -12.616   6.806  70.582  1.00  0.00    -0.476 N  
ENDROOT
BRANCH   4  19
HETATM   19  C   UNK A   0      -6.479   8.144  70.290  1.00  0.00    -0.036 C  
BRANCH  19  20
HETATM   20  N   UNK A   0      -5.983   9.034  69.227  1.00  0.00    -0.041 NA 
HETATM   21  H   UNK A   0      -4.994   9.066  68.979  1.00  0.00     0.000 HD 
BRANCH  20  22
HETATM   22  C   UNK A   0      -6.926   9.834  68.572  1.00  0.00    -0.064 A  
HETATM   23  C   UNK A   0      -8.565  10.031  66.779  1.00  0.00    -0.129 A  
HETATM   24  C   UNK A   0      -9.033  11.225  67.336  1.00  0.00    -0.144 A  
HETATM   25  C   UNK A   0      -7.328  11.092  69.040  1.00  0.00    -0.123 A  
HETATM   26  C   UNK A   0      -7.507   9.348  67.394  1.00  0.00    -0.091 A  
HETATM   27  C   UNK A   0      -8.377  11.781  68.437  1.00  0.00    -0.153 A  
BRANCH  24  28
HETATM   28  C   UNK A   0     -10.223  11.894  66.760  1.00  0.00    -0.206 C  
ATOM     29  H   GLU A   1      -9.006  13.109  65.559  1.00  0.00     0.000 HD 
ATOM     30  N   GLU A   1      -9.962  12.919  65.858  1.00  0.00    -0.275 N  
HETATM   31  O   UNK A   0     -11.354  11.569  67.097  1.00  0.00    -0.328 OA 
BRANCH  30  32
ATOM     32  CA  GLU A   1     -11.078  13.730  65.336  1.00  0.00    -0.302 C  
ATOM     33  C   GLU A   1     -11.594  13.107  64.025  1.00  0.00    -0.428 C  
ATOM     34  O   GLU A   1     -10.660  12.356  63.391  1.00  0.00    -0.436 OA 
ATOM     35  OXT GLU A   1     -12.671  13.376  63.512  1.00  0.00    -0.703 OA 
BRANCH  32  36
ATOM     36  CB  GLU A   1     -10.614  15.173  65.084  1.00  0.00    -0.447 C  
BRANCH  36  37
ATOM     37  CG  GLU A   1     -10.051  15.849  66.339  1.00  0.00    -0.306 C  
ATOM     38  CD  GLU A   1     -10.157  17.351  66.283  1.00  0.00    -0.322 C  
ATOM     39  OE2 GLU A   1     -10.620  17.989  65.351  1.00  0.00    -0.648 OA 
ATOM     40  OE1 GLU A   1      -9.682  17.937  67.406  1.00  0.00    -0.276 OA 
ENDBRANCH  36  37
ENDBRANCH  32  36
ENDBRANCH  30  32
ENDBRANCH  24  28
ENDBRANCH  20  22
ENDBRANCH  19  20
ENDBRANCH   4  19
TORSDOF 7
ENDMDL
MODEL       72
REMARK 921   NORMALIZED FREE ENERGY PREDICTED BY IDOCK:   -6.30 KCAL/MOL
REMARK 922        TOTAL FREE ENERGY PREDICTED BY IDOCK:  -10.15 KCAL/MOL
REMARK 923 INTER-LIGAND FREE ENERGY PREDICTED BY IDOCK:   -8.83 KCAL/MOL
REMARK 924 INTRA-LIGAND FREE ENERGY PREDICTED BY IDOCK:   -1.32 KCAL/MOL
REMARK 927      BINDING AFFINITY PREDICTED BY RF-SCORE:    0.00 PKD
ROOT
HETATM    1  C   UNK A   0      -8.265   6.277  68.363  1.00  0.00    -0.116 C  
HETATM    2  N   UNK A   0      -8.629   7.332  69.188  1.00  0.00    -0.133 N  
HETATM    3  O   UNK A   0      -7.210   6.161  67.746  1.00  0.00    -0.078 OA 
HETATM    4  C   UNK A   0      -7.709   8.506  69.420  1.00  0.00    -0.092 C  
HETATM    5  C   UNK A   0      -7.727   8.864  70.925  1.00  0.00    -0.122 C  
HETATM    6  C   UNK A   0     -12.277   7.536  71.215  1.00  0.00    -0.329 C  
HETATM    7  H   UNK A   0     -12.879   5.901  70.133  1.00  0.00     0.000 HD 
HETATM    8  N   UNK A   0      -9.107   9.081  71.322  1.00  0.00    -0.247 NA 
HETATM    9  H   UNK A   0      -9.334   9.859  71.942  1.00  0.00     0.000 HD 
HETATM   10  H2  UNK A   0     -14.247   6.983  71.581  1.00  0.00     0.000 HD 
HETATM   11  C   UNK A   0     -10.122   8.250  70.874  1.00  0.00    -0.190 C  
HETATM   12  O   UNK A   0     -11.095   5.889  68.405  1.00  0.00    -0.268 OA 
HETATM   13  C   UNK A   0      -9.887   7.397  69.841  1.00  0.00    -0.178 C  
HETATM   14  H1  UNK A   0     -13.581   8.315  72.559  1.00  0.00     0.000 HD 
HETATM   15  C   UNK A   0     -11.054   6.554  69.436  1.00  0.00    -0.348 C  
HETATM   16  N   UNK A   0     -11.319   8.336  71.540  1.00  0.00    -0.257 NA 
HETATM   17  N   UNK A   0     -13.479   7.607  71.831  1.00  0.00    -0.489 NA 
HETATM   18  N   UNK A   0     -12.143   6.597  70.251  1.00  0.00    -0.574 N  
ENDROOT
BRANCH   4  19
HETATM   19  C   UNK A   0      -6.252   8.355  68.933  1.00  0.00    -0.044 C  
BRANCH  19  20
HETATM   20  N   UNK A   0      -6.055   8.938  67.595  1.00  0.00    -0.047 NA 
HETATM   21  H   UNK A   0      -5.175   8.829  67.092  1.00  0.00     0.000 HD 
BRANCH  20  22
HETATM   22  C   UNK A   0      -7.129   9.647  67.044  1.00  0.00    -0.086 A  
HETATM   23  C   UNK A   0      -8.312  11.769  66.858  1.00  0.00    -0.170 A  
HETATM   24  C   UNK A   0      -9.071  11.255  65.802  1.00  0.00    -0.216 A  
HETATM   25  C   UNK A   0      -7.984   9.116  66.070  1.00  0.00    -0.103 A  
HETATM   26  C   UNK A   0      -7.353  10.959  67.480  1.00  0.00    -0.096 A  
HETATM   27  C   UNK A   0      -8.943   9.911  65.446  1.00  0.00    -0.220 A  
BRANCH  24  28
HETATM   28  C   UNK A   0     -10.005  12.138  65.063  1.00  0.00    -0.220 C  
ATOM     29  H   GLU A   1      -9.761  13.654  66.492  1.00  0.00     0.000 HD 
ATOM     30  N   GLU A   1     -10.268  13.367  65.655  1.00  0.00    -0.290 N  
HETATM   31  O   UNK A   0     -10.525  11.771  64.018  1.00  0.00    -0.300 OA 
BRANCH  30  32
ATOM     32  CA  GLU A   1     -11.287  14.255  65.064  1.00  0.00    -0.365 C  
ATOM     33  C   GLU A   1     -10.694  15.666  64.885  1.00  0.00    -0.382 C  
ATOM     34  O   GLU A   1      -9.666  15.921  65.733  1.00  0.00    -0.323 OA 
ATOM     35  OXT GLU A   1     -11.182  16.533  64.175  1.00  0.00    -1.004 OA 
BRANCH  32  36
ATOM     36  CB  GLU A   1     -12.527  14.319  65.969  1.00  0.00    -0.392 C  
BRANCH  36  37
ATOM     37  CG  GLU A   1     -12.377  13.490  67.249  1.00  0.00    -0.179 C  
ATOM     38  CD  GLU A   1     -12.029  14.335  68.448  1.00  0.00    -0.309 C  
ATOM     39  OE2 GLU A   1     -11.865  15.545  68.431  1.00  0.00    -0.351 OA 
ATOM     40  OE1 GLU A   1     -11.926  13.599  69.578  1.00  0.00    -0.309 OA 
ENDBRANCH  36  37
ENDBRANCH  32  36
ENDBRANCH  30  32
ENDBRANCH  24  28
ENDBRANCH  20  22
ENDBRANCH  19  20
ENDBRANCH   4  19
TORSDOF 7
ENDMDL
MODEL       73
REMARK 921   NORMALIZED FREE ENERGY PREDICTED BY IDOCK:   -6.29 KCAL/MOL
REMARK 922        TOTAL FREE ENERGY PREDICTED BY IDOCK:  -10.13 KCAL/MOL
REMARK 923 INTER-LIGAND FREE ENERGY PREDICTED BY IDOCK:   -9.25 KCAL/MOL
REMARK 924 INTRA-LIGAND FREE ENERGY PREDICTED BY IDOCK:   -0.88 KCAL/MOL
REMARK 927      BINDING AFFINITY PREDICTED BY RF-SCORE:    0.00 PKD
ROOT
HETATM    1  C   UNK A   0     -10.285  18.164  65.843  1.00  0.00    -0.234 C  
HETATM    2  N   UNK A   0      -9.356  17.385  66.519  1.00  0.00    -0.264 N  
HETATM    3  O   UNK A   0     -11.108  17.774  65.021  1.00  0.00    -0.717 OA 
HETATM    4  C   UNK A   0      -9.266  15.895  66.295  1.00  0.00    -0.337 C  
HETATM    5  C   UNK A   0      -9.100  15.194  67.663  1.00  0.00    -0.180 C  
HETATM    6  C   UNK A   0      -6.634  18.909  69.297  1.00  0.00    -0.283 C  
HETATM    7  H   UNK A   0      -7.220  20.788  68.721  1.00  0.00     0.000 HD 
HETATM    8  N   UNK A   0      -7.955  15.781  68.337  1.00  0.00    -0.137 NA 
HETATM    9  H   UNK A   0      -7.302  15.177  68.836  1.00  0.00     0.000 HD 
HETATM   10  H2  UNK A   0      -5.566  20.428  70.229  1.00  0.00     0.000 HD 
HETATM   11  C   UNK A   0      -7.734  17.149  68.314  1.00  0.00    -0.220 C  
HETATM   12  O   UNK A   0      -8.450  20.202  66.645  1.00  0.00    -0.313 OA 
HETATM   13  C   UNK A   0      -8.419  17.928  67.434  1.00  0.00    -0.235 C  
HETATM   14  H1  UNK A   0      -5.225  18.759  70.747  1.00  0.00     0.000 HD 
HETATM   15  C   UNK A   0      -8.095  19.387  67.491  1.00  0.00    -0.281 C  
HETATM   16  N   UNK A   0      -6.827  17.636  69.223  1.00  0.00    -0.233 NA 
HETATM   17  N   UNK A   0      -5.731  19.424  70.163  1.00  0.00    -0.243 NA 
HETATM   18  N   UNK A   0      -7.307  19.791  68.524  1.00  0.00    -0.324 N  
ENDROOT
BRANCH   4  19
HETATM   19  C   UNK A   0     -10.419  15.239  65.504  1.00  0.00    -0.374 C  
BRANCH  19  20
HETATM   20  N   UNK A   0     -10.015  13.956  64.905  1.00  0.00    -0.615 NA 
HETATM   21  H   UNK A   0      -9.622  13.908  63.965  1.00  0.00     0.000 HD 
BRANCH  20  22
HETATM   22  C   UNK A   0     -10.193  12.805  65.680  1.00  0.00    -0.279 A  
HETATM   23  C   UNK A   0      -9.261  10.699  66.480  1.00  0.00    -0.187 A  
HETATM   24  C   UNK A   0     -10.304  10.587  67.405  1.00  0.00    -0.269 A  
HETATM   25  C   UNK A   0     -11.292  12.608  66.526  1.00  0.00    -0.377 A  
HETATM   26  C   UNK A   0      -9.218  11.802  65.616  1.00  0.00    -0.109 A  
HETATM   27  C   UNK A   0     -11.348  11.515  67.389  1.00  0.00    -0.367 A  
BRANCH  24  28
HETATM   28  C   UNK A   0     -10.297   9.487  68.398  1.00  0.00    -0.206 C  
ATOM     29  H   GLU A   1     -11.033  10.773  69.882  1.00  0.00     0.000 HD 
ATOM     30  N   GLU A   1     -10.681   9.836  69.686  1.00  0.00    -0.229 N  
HETATM   31  O   UNK A   0      -9.940   8.359  68.086  1.00  0.00    -0.177 OA 
BRANCH  30  32
ATOM     32  CA  GLU A   1     -10.577   8.841  70.771  1.00  0.00    -0.220 C  
ATOM     33  C   GLU A   1     -11.704   9.079  71.793  1.00  0.00    -0.369 C  
ATOM     34  O   GLU A   1     -12.164  10.355  71.790  1.00  0.00    -0.319 OA 
ATOM     35  OXT GLU A   1     -12.053   8.263  72.636  1.00  0.00    -0.384 OA 
BRANCH  32  36
ATOM     36  CB  GLU A   1      -9.210   8.951  71.463  1.00  0.00    -0.322 C  
BRANCH  36  37
ATOM     37  CG  GLU A   1      -8.338   7.705  71.269  1.00  0.00    -0.108 C  
ATOM     38  CD  GLU A   1      -8.382   6.779  72.458  1.00  0.00    -0.111 C  
ATOM     39  OE2 GLU A   1      -9.018   6.978  73.481  1.00  0.00    -0.132 OA 
ATOM     40  OE1 GLU A   1      -7.632   5.670  72.267  1.00  0.00    -0.097 OA 
ENDBRANCH  36  37
ENDBRANCH  32  36
ENDBRANCH  30  32
ENDBRANCH  24  28
ENDBRANCH  20  22
ENDBRANCH  19  20
ENDBRANCH   4  19
TORSDOF 7
ENDMDL
MODEL       74
REMARK 921   NORMALIZED FREE ENERGY PREDICTED BY IDOCK:   -6.28 KCAL/MOL
REMARK 922        TOTAL FREE ENERGY PREDICTED BY IDOCK:  -10.12 KCAL/MOL
REMARK 923 INTER-LIGAND FREE ENERGY PREDICTED BY IDOCK:   -9.14 KCAL/MOL
REMARK 924 INTRA-LIGAND FREE ENERGY PREDICTED BY IDOCK:   -0.98 KCAL/MOL
REMARK 927      BINDING AFFINITY PREDICTED BY RF-SCORE:    0.00 PKD
ROOT
HETATM    1  C   UNK A   0     -11.010   9.195  69.798  1.00  0.00    -0.181 C  
HETATM    2  N   UNK A   0     -10.361   9.004  68.586  1.00  0.00    -0.206 N  
HETATM    3  O   UNK A   0     -11.023  10.224  70.467  1.00  0.00    -0.307 OA 
HETATM    4  C   UNK A   0      -9.564  10.108  67.936  1.00  0.00    -0.148 C  
HETATM    5  C   UNK A   0      -9.880  10.128  66.423  1.00  0.00    -0.222 C  
HETATM    6  C   UNK A   0     -10.447   5.413  66.451  1.00  0.00    -0.267 C  
HETATM    7  H   UNK A   0     -11.347   4.557  68.084  1.00  0.00     0.000 HD 
HETATM    8  N   UNK A   0      -9.631   8.799  65.890  1.00  0.00    -0.411 NA 
HETATM    9  H   UNK A   0      -9.164   8.700  64.989  1.00  0.00     0.000 HD 
HETATM   10  H2  UNK A   0     -10.775   3.372  66.237  1.00  0.00     0.000 HD 
HETATM   11  C   UNK A   0     -10.016   7.665  66.586  1.00  0.00    -0.214 C  
HETATM   12  O   UNK A   0     -10.914   6.340  69.757  1.00  0.00    -0.302 OA 
HETATM   13  C   UNK A   0     -10.376   7.766  67.894  1.00  0.00    -0.217 C  
HETATM   14  H1  UNK A   0     -10.111   4.241  64.831  1.00  0.00     0.000 HD 
HETATM   15  C   UNK A   0     -10.766   6.478  68.547  1.00  0.00    -0.273 C  
HETATM   16  N   UNK A   0     -10.027   6.489  65.877  1.00  0.00    -0.264 NA 
HETATM   17  N   UNK A   0     -10.450   4.231  65.794  1.00  0.00    -0.479 NA 
HETATM   18  N   UNK A   0     -10.897   5.400  67.727  1.00  0.00    -0.090 N  
ENDROOT
BRANCH   4  19
HETATM   19  C   UNK A   0      -9.728  11.526  68.527  1.00  0.00    -0.189 C  
BRANCH  19  20
HETATM   20  N   UNK A   0     -10.335  12.457  67.561  1.00  0.00    -0.213 NA 
HETATM   21  H   UNK A   0     -11.262  12.289  67.170  1.00  0.00     0.000 HD 
BRANCH  20  22
HETATM   22  C   UNK A   0      -9.586  13.584  67.203  1.00  0.00    -0.241 A  
HETATM   23  C   UNK A   0      -9.578  15.840  66.281  1.00  0.00    -0.343 A  
HETATM   24  C   UNK A   0      -8.252  16.005  66.694  1.00  0.00    -0.324 A  
HETATM   25  C   UNK A   0      -8.224  13.728  67.495  1.00  0.00    -0.194 A  
HETATM   26  C   UNK A   0     -10.233  14.627  66.529  1.00  0.00    -0.282 A  
HETATM   27  C   UNK A   0      -7.560  14.928  67.252  1.00  0.00    -0.213 A  
BRANCH  24  28
HETATM   28  C   UNK A   0      -7.587  17.321  66.540  1.00  0.00    -0.288 C  
ATOM     29  H   GLU A   1      -8.135  17.868  68.489  1.00  0.00     0.000 HD 
ATOM     30  N   GLU A   1      -7.701  18.185  67.622  1.00  0.00    -0.221 N  
HETATM   31  O   UNK A   0      -7.010  17.617  65.502  1.00  0.00    -0.351 OA 
BRANCH  30  32
ATOM     32  CA  GLU A   1      -7.188  19.564  67.509  1.00  0.00    -0.224 C  
ATOM     33  C   GLU A   1      -6.399  19.921  68.782  1.00  0.00    -0.291 C  
ATOM     34  O   GLU A   1      -6.773  19.191  69.862  1.00  0.00    -0.160 OA 
ATOM     35  OXT GLU A   1      -5.628  20.867  68.872  1.00  0.00    -0.330 OA 
BRANCH  32  36
ATOM     36  CB  GLU A   1      -8.352  20.549  67.319  1.00  0.00    -0.355 C  
BRANCH  36  37
ATOM     37  CG  GLU A   1      -9.082  20.364  65.984  1.00  0.00    -0.042 C  
ATOM     38  CD  GLU A   1     -10.425  19.701  66.148  1.00  0.00    -0.524 C  
ATOM     39  OE2 GLU A   1     -10.901  19.328  67.209  1.00  0.00    -0.479 OA 
ATOM     40  OE1 GLU A   1     -11.074  19.566  64.968  1.00  0.00    -0.292 OA 
ENDBRANCH  36  37
ENDBRANCH  32  36
ENDBRANCH  30  32
ENDBRANCH  24  28
ENDBRANCH  20  22
ENDBRANCH  19  20
ENDBRANCH   4  19
TORSDOF 7
ENDMDL
MODEL       75
REMARK 921   NORMALIZED FREE ENERGY PREDICTED BY IDOCK:   -6.28 KCAL/MOL
REMARK 922        TOTAL FREE ENERGY PREDICTED BY IDOCK:  -10.12 KCAL/MOL
REMARK 923 INTER-LIGAND FREE ENERGY PREDICTED BY IDOCK:   -9.06 KCAL/MOL
REMARK 924 INTRA-LIGAND FREE ENERGY PREDICTED BY IDOCK:   -1.06 KCAL/MOL
REMARK 927      BINDING AFFINITY PREDICTED BY RF-SCORE:    0.00 PKD
ROOT
HETATM    1  C   UNK A   0      -9.349   4.027  69.651  1.00  0.00    -0.173 C  
HETATM    2  N   UNK A   0      -9.751   4.803  68.573  1.00  0.00    -0.156 N  
HETATM    3  O   UNK A   0      -9.234   4.395  70.816  1.00  0.00    -0.119 OA 
HETATM    4  C   UNK A   0     -10.108   6.260  68.741  1.00  0.00    -0.161 C  
HETATM    5  C   UNK A   0     -11.387   6.557  67.924  1.00  0.00     0.012 C  
HETATM    6  C   UNK A   0     -10.089   3.352  64.670  1.00  0.00    -0.081 C  
HETATM    7  H   UNK A   0      -9.179   1.631  65.316  1.00  0.00     0.000 HD 
HETATM    8  N   UNK A   0     -11.157   6.138  66.552  1.00  0.00    -0.749 NA 
HETATM    9  H   UNK A   0     -11.481   6.728  65.786  1.00  0.00     0.000 HD 
HETATM   10  H2  UNK A   0      -9.739   1.981  63.147  1.00  0.00     0.000 HD 
HETATM   11  C   UNK A   0     -10.506   4.949  66.266  1.00  0.00    -0.304 C  
HETATM   12  O   UNK A   0      -8.336   2.427  67.512  1.00  0.00    -0.069 OA 
HETATM   13  C   UNK A   0      -9.827   4.298  67.250  1.00  0.00    -0.146 C  
HETATM   14  H1  UNK A   0     -10.636   3.460  62.720  1.00  0.00     0.000 HD 
HETATM   15  C   UNK A   0      -9.156   3.030  66.827  1.00  0.00    -0.161 C  
HETATM   16  N   UNK A   0     -10.613   4.489  64.977  1.00  0.00    -0.525 NA 
HETATM   17  N   UNK A   0     -10.153   2.877  63.405  1.00  0.00    -0.141 NA 
HETATM   18  N   UNK A   0      -9.449   2.579  65.577  1.00  0.00    -0.354 N  
ENDROOT
BRANCH   4  19
HETATM   19  C   UNK A   0     -10.276   6.773  70.187  1.00  0.00    -0.195 C  
BRANCH  19  20
HETATM   20  N   UNK A   0      -9.504   8.004  70.427  1.00  0.00    -0.166 NA 
HETATM   21  H   UNK A   0      -8.667   8.002  71.009  1.00  0.00     0.000 HD 
BRANCH  20  22
HETATM   22  C   UNK A   0      -9.969   9.177  69.821  1.00  0.00    -0.193 A  
HETATM   23  C   UNK A   0     -11.754  10.825  69.631  1.00  0.00    -0.395 A  
HETATM   24  C   UNK A   0     -10.909  11.658  68.891  1.00  0.00    -0.264 A  
HETATM   25  C   UNK A   0      -9.184   9.971  68.975  1.00  0.00    -0.180 A  
HETATM   26  C   UNK A   0     -11.283   9.585  70.082  1.00  0.00    -0.275 A  
HETATM   27  C   UNK A   0      -9.641  11.205  68.519  1.00  0.00    -0.193 A  
BRANCH  24  28
HETATM   28  C   UNK A   0     -11.359  13.018  68.508  1.00  0.00    -0.288 C  
ATOM     29  H   GLU A   1     -10.550  13.822  70.268  1.00  0.00     0.000 HD 
ATOM     30  N   GLU A   1     -11.101  14.021  69.433  1.00  0.00    -0.235 N  
HETATM   31  O   UNK A   0     -11.947  13.212  67.453  1.00  0.00    -0.365 OA 
BRANCH  30  32
ATOM     32  CA  GLU A   1     -11.630  15.378  69.200  1.00  0.00    -0.339 C  
ATOM     33  C   GLU A   1     -10.457  16.362  69.032  1.00  0.00    -0.288 C  
ATOM     34  O   GLU A   1      -9.317  15.937  69.629  1.00  0.00    -0.249 OA 
ATOM     35  OXT GLU A   1     -10.562  17.484  68.554  1.00  0.00    -0.357 OA 
BRANCH  32  36
ATOM     36  CB  GLU A   1     -12.515  15.814  70.379  1.00  0.00    -0.331 C  
BRANCH  36  37
ATOM     37  CG  GLU A   1     -12.242  15.017  71.659  1.00  0.00    -0.411 C  
ATOM     38  CD  GLU A   1     -13.232  15.324  72.753  1.00  0.00    -0.482 C  
ATOM     39  OE2 GLU A   1     -14.150  16.125  72.666  1.00  0.00    -0.337 OA 
ATOM     40  OE1 GLU A   1     -13.000  14.596  73.869  1.00  0.00    -0.389 OA 
ENDBRANCH  36  37
ENDBRANCH  32  36
ENDBRANCH  30  32
ENDBRANCH  24  28
ENDBRANCH  20  22
ENDBRANCH  19  20
ENDBRANCH   4  19
TORSDOF 7
ENDMDL
MODEL       76
REMARK 921   NORMALIZED FREE ENERGY PREDICTED BY IDOCK:   -6.26 KCAL/MOL
REMARK 922        TOTAL FREE ENERGY PREDICTED BY IDOCK:  -10.09 KCAL/MOL
REMARK 923 INTER-LIGAND FREE ENERGY PREDICTED BY IDOCK:   -9.40 KCAL/MOL
REMARK 924 INTRA-LIGAND FREE ENERGY PREDICTED BY IDOCK:   -0.69 KCAL/MOL
REMARK 927      BINDING AFFINITY PREDICTED BY RF-SCORE:    0.00 PKD
ROOT
HETATM    1  C   UNK A   0     -10.487   8.470  68.295  1.00  0.00    -0.171 C  
HETATM    2  N   UNK A   0     -11.227   8.632  69.458  1.00  0.00    -0.438 N  
HETATM    3  O   UNK A   0     -10.381   9.277  67.376  1.00  0.00    -0.228 OA 
HETATM    4  C   UNK A   0     -12.018   9.891  69.719  1.00  0.00     0.124 C  
HETATM    5  C   UNK A   0     -11.809  10.314  71.192  1.00  0.00    -0.362 C  
HETATM    6  C   UNK A   0     -11.450   5.759  72.483  1.00  0.00    -0.296 C  
HETATM    7  H   UNK A   0     -10.477   4.469  71.219  1.00  0.00     0.000 HD 
HETATM    8  N   UNK A   0     -12.153   9.188  72.042  1.00  0.00    -0.372 NA 
HETATM    9  H   UNK A   0     -12.686   9.349  72.896  1.00  0.00     0.000 HD 
HETATM   10  H2  UNK A   0     -11.229   3.847  73.266  1.00  0.00     0.000 HD 
HETATM   11  C   UNK A   0     -11.770   7.898  71.711  1.00  0.00    -0.287 C  
HETATM   12  O   UNK A   0     -10.711   5.737  69.098  1.00  0.00    -0.281 OA 
HETATM   13  C   UNK A   0     -11.315   7.630  70.457  1.00  0.00    -0.250 C  
HETATM   14  H1  UNK A   0     -11.950   5.082  74.327  1.00  0.00     0.000 HD 
HETATM   15  C   UNK A   0     -10.938   6.204  70.210  1.00  0.00    -0.349 C  
HETATM   16  N   UNK A   0     -11.861   6.960  72.710  1.00  0.00    -0.502 NA 
HETATM   17  N   UNK A   0     -11.546   4.801  73.434  1.00  0.00    -0.418 NA 
HETATM   18  N   UNK A   0     -10.913   5.388  71.298  1.00  0.00    -0.133 N  
ENDROOT
BRANCH   4  19
HETATM   19  C   UNK A   0     -11.750  11.089  68.783  1.00  0.00    -0.314 C  
BRANCH  19  20
HETATM   20  N   UNK A   0     -11.313  12.282  69.527  1.00  0.00    -0.438 NA 
HETATM   21  H   UNK A   0     -11.628  12.459  70.481  1.00  0.00     0.000 HD 
BRANCH  20  22
HETATM   22  C   UNK A   0     -10.447  13.163  68.870  1.00  0.00    -0.092 A  
HETATM   23  C   UNK A   0      -9.649  15.451  68.611  1.00  0.00    -0.204 A  
HETATM   24  C   UNK A   0      -8.583  14.992  67.830  1.00  0.00    -0.155 A  
HETATM   25  C   UNK A   0      -9.446  12.743  67.985  1.00  0.00    -0.213 A  
HETATM   26  C   UNK A   0     -10.580  14.535  69.117  1.00  0.00    -0.242 A  
HETATM   27  C   UNK A   0      -8.515  13.644  67.473  1.00  0.00    -0.190 A  
BRANCH  24  28
HETATM   28  C   UNK A   0      -7.531  15.937  67.386  1.00  0.00    -0.186 C  
ATOM     29  H   GLU A   1      -8.812  17.568  67.694  1.00  0.00     0.000 HD 
ATOM     30  N   GLU A   1      -7.900  17.275  67.344  1.00  0.00    -0.178 N  
HETATM   31  O   UNK A   0      -6.424  15.535  67.052  1.00  0.00    -0.285 OA 
BRANCH  30  32
ATOM     32  CA  GLU A   1      -6.964  18.271  66.787  1.00  0.00    -0.196 C  
ATOM     33  C   GLU A   1      -6.241  18.992  67.940  1.00  0.00    -0.207 C  
ATOM     34  O   GLU A   1      -6.942  18.973  69.101  1.00  0.00    -0.316 OA 
ATOM     35  OXT GLU A   1      -5.222  19.656  67.806  1.00  0.00    -0.176 OA 
BRANCH  32  36
ATOM     36  CB  GLU A   1      -7.723  19.290  65.924  1.00  0.00    -0.235 C  
BRANCH  36  37
ATOM     37  CG  GLU A   1      -8.941  19.888  66.636  1.00  0.00    -0.452 C  
ATOM     38  CD  GLU A   1     -10.220  19.163  66.303  1.00  0.00    -0.452 C  
ATOM     39  OE2 GLU A   1     -10.311  18.213  65.543  1.00  0.00    -0.589 OA 
ATOM     40  OE1 GLU A   1     -11.284  19.681  66.957  1.00  0.00    -0.319 OA 
ENDBRANCH  36  37
ENDBRANCH  32  36
ENDBRANCH  30  32
ENDBRANCH  24  28
ENDBRANCH  20  22
ENDBRANCH  19  20
ENDBRANCH   4  19
TORSDOF 7
ENDMDL
MODEL       77
REMARK 921   NORMALIZED FREE ENERGY PREDICTED BY IDOCK:   -6.26 KCAL/MOL
REMARK 922        TOTAL FREE ENERGY PREDICTED BY IDOCK:  -10.09 KCAL/MOL
REMARK 923 INTER-LIGAND FREE ENERGY PREDICTED BY IDOCK:   -9.67 KCAL/MOL
REMARK 924 INTRA-LIGAND FREE ENERGY PREDICTED BY IDOCK:   -0.43 KCAL/MOL
REMARK 927      BINDING AFFINITY PREDICTED BY RF-SCORE:    0.00 PKD
ROOT
HETATM    1  C   UNK A   0     -10.423   9.464  67.253  1.00  0.00    -0.264 C  
HETATM    2  N   UNK A   0     -11.106  10.015  68.329  1.00  0.00    -0.452 N  
HETATM    3  O   UNK A   0     -10.303   9.953  66.134  1.00  0.00    -0.230 OA 
HETATM    4  C   UNK A   0     -11.806  11.347  68.218  1.00  0.00    -0.249 C  
HETATM    5  C   UNK A   0     -11.514  12.172  69.493  1.00  0.00    -0.265 C  
HETATM    6  C   UNK A   0     -11.390   8.189  72.076  1.00  0.00    -0.316 C  
HETATM    7  H   UNK A   0     -10.549   6.517  71.236  1.00  0.00     0.000 HD 
HETATM    8  N   UNK A   0     -11.894  11.374  70.646  1.00  0.00    -0.440 NA 
HETATM    9  H   UNK A   0     -12.382  11.819  71.424  1.00  0.00     0.000 HD 
HETATM   10  H2  UNK A   0     -11.258   6.583  73.388  1.00  0.00     0.000 HD 
HETATM   11  C   UNK A   0     -11.606  10.021  70.708  1.00  0.00    -0.360 C  
HETATM   12  O   UNK A   0     -10.786   7.114  68.837  1.00  0.00    -0.200 OA 
HETATM   13  C   UNK A   0     -11.217   9.362  69.582  1.00  0.00    -0.074 C  
HETATM   14  H1  UNK A   0     -11.859   8.125  74.047  1.00  0.00     0.000 HD 
HETATM   15  C   UNK A   0     -10.940   7.904  69.764  1.00  0.00    -0.148 C  
HETATM   16  N   UNK A   0     -11.716   9.429  71.942  1.00  0.00    -0.363 NA 
HETATM   17  N   UNK A   0     -11.508   7.565  73.270  1.00  0.00    -0.632 NA 
HETATM   18  N   UNK A   0     -10.923   7.446  71.046  1.00  0.00    -0.247 N  
ENDROOT
BRANCH   4  19
HETATM   19  C   UNK A   0     -11.501  12.193  66.963  1.00  0.00    -0.350 C  
BRANCH  19  20
HETATM   20  N   UNK A   0     -11.926  13.593  67.125  1.00  0.00    -0.396 NA 
HETATM   21  H   UNK A   0     -12.912  13.853  67.123  1.00  0.00     0.000 HD 
BRANCH  20  22
HETATM   22  C   UNK A   0     -10.919  14.552  67.283  1.00  0.00    -0.305 A  
HETATM   23  C   UNK A   0     -10.041  16.417  68.583  1.00  0.00    -0.244 A  
HETATM   24  C   UNK A   0      -8.836  16.344  67.876  1.00  0.00    -0.184 A  
HETATM   25  C   UNK A   0      -9.754  14.580  66.507  1.00  0.00    -0.301 A  
HETATM   26  C   UNK A   0     -11.079  15.527  68.275  1.00  0.00    -0.322 A  
HETATM   27  C   UNK A   0      -8.715  15.461  66.801  1.00  0.00    -0.304 A  
BRANCH  24  28
HETATM   28  C   UNK A   0      -7.694  17.203  68.270  1.00  0.00    -0.220 C  
ATOM     29  H   GLU A   1      -7.910  18.353  66.530  1.00  0.00     0.000 HD 
ATOM     30  N   GLU A   1      -7.340  18.191  67.361  1.00  0.00    -0.209 N  
HETATM   31  O   UNK A   0      -7.096  17.012  69.321  1.00  0.00    -0.237 OA 
BRANCH  30  32
ATOM     32  CA  GLU A   1      -6.134  19.005  67.604  1.00  0.00    -0.209 C  
ATOM     33  C   GLU A   1      -6.549  20.380  68.160  1.00  0.00    -0.303 C  
ATOM     34  O   GLU A   1      -7.813  20.733  67.817  1.00  0.00    -0.196 OA 
ATOM     35  OXT GLU A   1      -5.785  21.156  68.717  1.00  0.00    -0.336 OA 
BRANCH  32  36
ATOM     36  CB  GLU A   1      -5.342  19.184  66.300  1.00  0.00    -0.171 C  
BRANCH  36  37
ATOM     37  CG  GLU A   1      -5.700  20.474  65.554  1.00  0.00    -0.232 C  
ATOM     38  CD  GLU A   1      -6.063  20.226  64.112  1.00  0.00    -0.263 C  
ATOM     39  OE2 GLU A   1      -6.065  19.134  63.566  1.00  0.00    -0.317 OA 
ATOM     40  OE1 GLU A   1      -6.404  21.366  63.469  1.00  0.00    -0.330 OA 
ENDBRANCH  36  37
ENDBRANCH  32  36
ENDBRANCH  30  32
ENDBRANCH  24  28
ENDBRANCH  20  22
ENDBRANCH  19  20
ENDBRANCH   4  19
TORSDOF 7
ENDMDL
MODEL       78
REMARK 921   NORMALIZED FREE ENERGY PREDICTED BY IDOCK:   -6.26 KCAL/MOL
REMARK 922        TOTAL FREE ENERGY PREDICTED BY IDOCK:  -10.09 KCAL/MOL
REMARK 923 INTER-LIGAND FREE ENERGY PREDICTED BY IDOCK:   -8.84 KCAL/MOL
REMARK 924 INTRA-LIGAND FREE ENERGY PREDICTED BY IDOCK:   -1.26 KCAL/MOL
REMARK 927      BINDING AFFINITY PREDICTED BY RF-SCORE:    0.00 PKD
ROOT
HETATM    1  C   UNK A   0     -11.132  14.950  66.755  1.00  0.00    -0.335 C  
HETATM    2  N   UNK A   0     -11.125  14.168  67.902  1.00  0.00    -0.260 N  
HETATM    3  O   UNK A   0     -10.951  14.564  65.604  1.00  0.00    -0.303 OA 
HETATM    4  C   UNK A   0     -10.882  12.680  67.839  1.00  0.00    -0.219 C  
HETATM    5  C   UNK A   0     -11.884  11.971  68.779  1.00  0.00    -0.302 C  
HETATM    6  C   UNK A   0     -11.773  15.679  71.743  1.00  0.00    -0.454 C  
HETATM    7  H   UNK A   0     -11.665  17.561  70.934  1.00  0.00     0.000 HD 
HETATM    8  N   UNK A   0     -11.757  12.555  70.102  1.00  0.00    -0.537 NA 
HETATM    9  H   UNK A   0     -11.771  11.949  70.922  1.00  0.00     0.000 HD 
HETATM   10  H2  UNK A   0     -11.905  17.194  73.159  1.00  0.00     0.000 HD 
HETATM   11  C   UNK A   0     -11.616  13.923  70.271  1.00  0.00    -0.147 C  
HETATM   12  O   UNK A   0     -10.710  16.986  68.715  1.00  0.00    -0.337 OA 
HETATM   13  C   UNK A   0     -11.314  14.707  69.199  1.00  0.00    -0.281 C  
HETATM   14  H1  UNK A   0     -12.111  15.522  73.736  1.00  0.00     0.000 HD 
HETATM   15  C   UNK A   0     -11.179  16.166  69.499  1.00  0.00    -0.337 C  
HETATM   16  N   UNK A   0     -11.818  14.406  71.540  1.00  0.00    -0.433 NA 
HETATM   17  N   UNK A   0     -11.943  16.190  72.984  1.00  0.00    -0.496 NA 
HETATM   18  N   UNK A   0     -11.551  16.565  70.745  1.00  0.00    -0.525 N  
ENDROOT
BRANCH   4  19
HETATM   19  C   UNK A   0     -10.919  12.026  66.440  1.00  0.00    -0.296 C  
BRANCH  19  20
HETATM   20  N   UNK A   0      -9.711  11.228  66.173  1.00  0.00    -0.212 NA 
HETATM   21  H   UNK A   0      -9.013  11.531  65.494  1.00  0.00     0.000 HD 
BRANCH  20  22
HETATM   22  C   UNK A   0      -9.562  10.037  66.891  1.00  0.00    -0.175 A  
HETATM   23  C   UNK A   0      -8.276   8.771  68.530  1.00  0.00    -0.117 A  
HETATM   24  C   UNK A   0      -9.295   7.815  68.594  1.00  0.00    -0.148 A  
HETATM   25  C   UNK A   0     -10.510   9.005  66.879  1.00  0.00    -0.293 A  
HETATM   26  C   UNK A   0      -8.411   9.870  67.672  1.00  0.00    -0.114 A  
HETATM   27  C   UNK A   0     -10.387   7.906  67.727  1.00  0.00    -0.289 A  
BRANCH  24  28
HETATM   28  C   UNK A   0      -9.215   6.712  69.580  1.00  0.00    -0.143 C  
ATOM     29  H   GLU A   1     -10.601   7.675  70.825  1.00  0.00     0.000 HD 
ATOM     30  N   GLU A   1      -9.968   6.879  70.735  1.00  0.00    -0.190 N  
HETATM   31  O   UNK A   0      -8.498   5.740  69.381  1.00  0.00    -0.110 OA 
BRANCH  30  32
ATOM     32  CA  GLU A   1      -9.847   5.899  71.831  1.00  0.00    -0.162 C  
ATOM     33  C   GLU A   1     -11.219   5.716  72.507  1.00  0.00    -0.293 C  
ATOM     34  O   GLU A   1     -12.035   6.788  72.351  1.00  0.00    -0.236 OA 
ATOM     35  OXT GLU A   1     -11.504   4.783  73.245  1.00  0.00    -0.332 OA 
BRANCH  32  36
ATOM     36  CB  GLU A   1      -8.814   6.380  72.862  1.00  0.00    -0.124 C  
BRANCH  36  37
ATOM     37  CG  GLU A   1      -8.418   7.848  72.674  1.00  0.00    -0.203 C  
ATOM     38  CD  GLU A   1      -6.929   8.031  72.527  1.00  0.00    -0.083 C  
ATOM     39  OE2 GLU A   1      -6.104   7.132  72.565  1.00  0.00    -0.041 OA 
ATOM     40  OE1 GLU A   1      -6.591   9.326  72.334  1.00  0.00    -0.307 OA 
ENDBRANCH  36  37
ENDBRANCH  32  36
ENDBRANCH  30  32
ENDBRANCH  24  28
ENDBRANCH  20  22
ENDBRANCH  19  20
ENDBRANCH   4  19
TORSDOF 7
ENDMDL
MODEL       79
REMARK 921   NORMALIZED FREE ENERGY PREDICTED BY IDOCK:   -6.26 KCAL/MOL
REMARK 922        TOTAL FREE ENERGY PREDICTED BY IDOCK:  -10.09 KCAL/MOL
REMARK 923 INTER-LIGAND FREE ENERGY PREDICTED BY IDOCK:   -9.21 KCAL/MOL
REMARK 924 INTRA-LIGAND FREE ENERGY PREDICTED BY IDOCK:   -0.89 KCAL/MOL
REMARK 927      BINDING AFFINITY PREDICTED BY RF-SCORE:    0.00 PKD
ROOT
HETATM    1  C   UNK A   0     -11.058  12.103  68.815  1.00  0.00    -0.250 C  
HETATM    2  N   UNK A   0     -11.650  11.889  70.052  1.00  0.00    -0.501 N  
HETATM    3  O   UNK A   0     -10.456  11.273  68.139  1.00  0.00    -0.177 OA 
HETATM    4  C   UNK A   0     -11.610  10.537  70.722  1.00  0.00    -0.338 C  
HETATM    5  C   UNK A   0     -13.005  10.233  71.316  1.00  0.00    -0.420 C  
HETATM    6  C   UNK A   0     -13.669  14.852  72.197  1.00  0.00    -0.444 C  
HETATM    7  H   UNK A   0     -12.968  16.208  70.828  1.00  0.00     0.000 HD 
HETATM    8  N   UNK A   0     -13.379  11.336  72.185  1.00  0.00    -0.569 NA 
HETATM    9  H   UNK A   0     -13.826  11.139  73.080  1.00  0.00     0.000 HD 
HETATM   10  H2  UNK A   0     -14.186  16.815  72.642  1.00  0.00     0.000 HD 
HETATM   11  C   UNK A   0     -13.138  12.650  71.818  1.00  0.00    -0.360 C  
HETATM   12  O   UNK A   0     -11.243  14.805  69.724  1.00  0.00    -0.260 OA 
HETATM   13  C   UNK A   0     -12.302  12.918  70.778  1.00  0.00    -0.299 C  
HETATM   14  H1  UNK A   0     -14.847  15.541  73.697  1.00  0.00     0.000 HD 
HETATM   15  C   UNK A   0     -12.110  14.370  70.476  1.00  0.00    -0.334 C  
HETATM   16  N   UNK A   0     -13.797  13.615  72.540  1.00  0.00    -0.721 NA 
HETATM   17  N   UNK A   0     -14.283  15.833  72.898  1.00  0.00    -0.487 NA 
HETATM   18  N   UNK A   0     -12.921  15.238  71.139  1.00  0.00    -0.418 N  
ENDROOT
BRANCH   4  19
HETATM   19  C   UNK A   0     -11.133   9.347  69.862  1.00  0.00    -0.200 C  
BRANCH  19  20
HETATM   20  N   UNK A   0     -11.739   8.077  70.294  1.00  0.00    -0.474 NA 
HETATM   21  H   UNK A   0     -12.550   8.058  70.913  1.00  0.00     0.000 HD 
BRANCH  20  22
HETATM   22  C   UNK A   0     -11.156   6.897  69.820  1.00  0.00    -0.271 A  
HETATM   23  C   UNK A   0     -10.425   5.594  67.894  1.00  0.00    -0.274 A  
HETATM   24  C   UNK A   0      -9.759   4.707  68.745  1.00  0.00    -0.230 A  
HETATM   25  C   UNK A   0     -10.588   5.928  70.656  1.00  0.00    -0.334 A  
HETATM   26  C   UNK A   0     -11.128   6.678  68.437  1.00  0.00    -0.281 A  
HETATM   27  C   UNK A   0      -9.888   4.845  70.129  1.00  0.00    -0.309 A  
BRANCH  24  28
HETATM   28  C   UNK A   0      -8.919   3.626  68.177  1.00  0.00    -0.130 C  
ATOM     29  H   GLU A   1      -8.574   4.754  66.444  1.00  0.00     0.000 HD 
ATOM     30  N   GLU A   1      -8.429   3.852  66.897  1.00  0.00    -0.103 N  
HETATM   31  O   UNK A   0      -8.712   2.594  68.803  1.00  0.00    -0.069 OA 
BRANCH  30  32
ATOM     32  CA  GLU A   1      -7.697   2.779  66.198  1.00  0.00    -0.077 C  
ATOM     33  C   GLU A   1      -6.182   3.029  66.322  1.00  0.00    -0.025 C  
ATOM     34  O   GLU A   1      -5.874   4.333  66.531  1.00  0.00    -0.021 OA 
ATOM     35  OXT GLU A   1      -5.325   2.186  66.099  1.00  0.00    -0.008 OA 
BRANCH  32  36
ATOM     36  CB  GLU A   1      -8.103   2.736  64.717  1.00  0.00    -0.086 C  
BRANCH  36  37
ATOM     37  CG  GLU A   1      -9.509   2.170  64.497  1.00  0.00    -0.112 C  
ATOM     38  CD  GLU A   1     -10.272   2.914  63.431  1.00  0.00    -0.169 C  
ATOM     39  OE2 GLU A   1      -9.850   3.874  62.806  1.00  0.00    -0.134 OA 
ATOM     40  OE1 GLU A   1     -11.502   2.390  63.225  1.00  0.00    -0.321 OA 
ENDBRANCH  36  37
ENDBRANCH  32  36
ENDBRANCH  30  32
ENDBRANCH  24  28
ENDBRANCH  20  22
ENDBRANCH  19  20
ENDBRANCH   4  19
TORSDOF 7
ENDMDL
MODEL       80
REMARK 921   NORMALIZED FREE ENERGY PREDICTED BY IDOCK:   -6.25 KCAL/MOL
REMARK 922        TOTAL FREE ENERGY PREDICTED BY IDOCK:  -10.08 KCAL/MOL
REMARK 923 INTER-LIGAND FREE ENERGY PREDICTED BY IDOCK:   -8.78 KCAL/MOL
REMARK 924 INTRA-LIGAND FREE ENERGY PREDICTED BY IDOCK:   -1.30 KCAL/MOL
REMARK 927      BINDING AFFINITY PREDICTED BY RF-SCORE:    0.00 PKD
ROOT
HETATM    1  C   UNK A   0     -10.926  14.502  68.007  1.00  0.00    -0.260 C  
HETATM    2  N   UNK A   0     -11.188  15.385  66.968  1.00  0.00    -0.279 N  
HETATM    3  O   UNK A   0     -11.290  13.332  68.082  1.00  0.00    -0.255 OA 
HETATM    4  C   UNK A   0     -11.991  14.966  65.761  1.00  0.00    -0.052 C  
HETATM    5  C   UNK A   0     -11.303  15.516  64.490  1.00  0.00    -0.314 C  
HETATM    6  C   UNK A   0      -9.845  19.341  66.896  1.00  0.00    -0.342 C  
HETATM    7  H   UNK A   0      -9.249  19.090  68.843  1.00  0.00     0.000 HD 
HETATM    8  N   UNK A   0     -11.139  16.950  64.647  1.00  0.00    -0.990 NA 
HETATM    9  H   UNK A   0     -11.326  17.566  63.856  1.00  0.00     0.000 HD 
HETATM   10  H2  UNK A   0      -9.077  21.071  67.754  1.00  0.00     0.000 HD 
HETATM   11  C   UNK A   0     -10.731  17.497  65.853  1.00  0.00    -0.119 C  
HETATM   12  O   UNK A   0     -10.444  16.974  69.355  1.00  0.00    -0.321 OA 
HETATM   13  C   UNK A   0     -10.750  16.734  66.980  1.00  0.00    -0.161 C  
HETATM   14  H1  UNK A   0      -9.511  21.142  66.028  1.00  0.00     0.000 HD 
HETATM   15  C   UNK A   0     -10.297  17.428  68.224  1.00  0.00    -0.374 C  
HETATM   16  N   UNK A   0     -10.305  18.802  65.819  1.00  0.00    -0.582 NA 
HETATM   17  N   UNK A   0      -9.439  20.631  66.908  1.00  0.00    -0.651 NA 
HETATM   18  N   UNK A   0      -9.748  18.663  68.062  1.00  0.00    -0.307 N  
ENDROOT
BRANCH   4  19
HETATM   19  C   UNK A   0     -12.267  13.456  65.599  1.00  0.00    -0.463 C  
BRANCH  19  20
HETATM   20  N   UNK A   0     -11.866  12.962  64.271  1.00  0.00    -0.369 NA 
HETATM   21  H   UNK A   0     -12.180  13.421  63.416  1.00  0.00     0.000 HD 
BRANCH  20  22
HETATM   22  C   UNK A   0     -11.037  11.836  64.232  1.00  0.00    -0.355 A  
HETATM   23  C   UNK A   0      -9.519  10.444  62.929  1.00  0.00    -0.354 A  
HETATM   24  C   UNK A   0      -9.134   9.771  64.093  1.00  0.00    -0.289 A  
HETATM   25  C   UNK A   0     -10.729  11.066  65.361  1.00  0.00    -0.222 A  
HETATM   26  C   UNK A   0     -10.475  11.465  63.004  1.00  0.00    -0.224 A  
HETATM   27  C   UNK A   0      -9.781  10.047  65.299  1.00  0.00    -0.373 A  
BRANCH  24  28
HETATM   28  C   UNK A   0      -8.043   8.770  64.043  1.00  0.00    -0.164 C  
ATOM     29  H   GLU A   1      -9.176   7.421  65.180  1.00  0.00     0.000 HD 
ATOM     30  N   GLU A   1      -8.269   7.594  64.748  1.00  0.00    -0.115 N  
HETATM   31  O   UNK A   0      -7.003   9.001  63.439  1.00  0.00    -0.090 OA 
BRANCH  30  32
ATOM     32  CA  GLU A   1      -7.188   6.598  64.867  1.00  0.00    -0.074 C  
ATOM     33  C   GLU A   1      -7.775   5.184  64.703  1.00  0.00    -0.086 C  
ATOM     34  O   GLU A   1      -9.093   5.116  65.016  1.00  0.00    -0.147 OA 
ATOM     35  OXT GLU A   1      -7.110   4.184  64.471  1.00  0.00    -0.049 OA 
BRANCH  32  36
ATOM     36  CB  GLU A   1      -6.497   6.723  66.234  1.00  0.00    -0.047 C  
BRANCH  36  37
ATOM     37  CG  GLU A   1      -7.428   7.257  67.328  1.00  0.00    -0.099 C  
ATOM     38  CD  GLU A   1      -7.184   8.713  67.635  1.00  0.00    -0.084 C  
ATOM     39  OE2 GLU A   1      -6.337   9.411  67.100  1.00  0.00    -0.064 OA 
ATOM     40  OE1 GLU A   1      -8.028   9.182  68.582  1.00  0.00    -0.099 OA 
ENDBRANCH  36  37
ENDBRANCH  32  36
ENDBRANCH  30  32
ENDBRANCH  24  28
ENDBRANCH  20  22
ENDBRANCH  19  20
ENDBRANCH   4  19
TORSDOF 7
ENDMDL
MODEL       81
REMARK 921   NORMALIZED FREE ENERGY PREDICTED BY IDOCK:   -6.24 KCAL/MOL
REMARK 922        TOTAL FREE ENERGY PREDICTED BY IDOCK:  -10.07 KCAL/MOL
REMARK 923 INTER-LIGAND FREE ENERGY PREDICTED BY IDOCK:   -9.62 KCAL/MOL
REMARK 924 INTRA-LIGAND FREE ENERGY PREDICTED BY IDOCK:   -0.45 KCAL/MOL
REMARK 927      BINDING AFFINITY PREDICTED BY RF-SCORE:    0.00 PKD
ROOT
HETATM    1  C   UNK A   0     -11.362   7.841  70.360  1.00  0.00    -0.207 C  
HETATM    2  N   UNK A   0     -10.773   7.943  69.108  1.00  0.00    -0.375 N  
HETATM    3  O   UNK A   0     -11.620   8.766  71.125  1.00  0.00    -0.270 OA 
HETATM    4  C   UNK A   0     -10.369   9.279  68.533  1.00  0.00    -0.209 C  
HETATM    5  C   UNK A   0     -10.783   9.326  67.044  1.00  0.00    -0.129 C  
HETATM    6  C   UNK A   0      -9.985   4.662  66.644  1.00  0.00    -0.236 C  
HETATM    7  H   UNK A   0     -10.488   3.456  68.224  1.00  0.00     0.000 HD 
HETATM    8  N   UNK A   0     -10.205   8.173  66.375  1.00  0.00    -0.472 NA 
HETATM    9  H   UNK A   0      -9.794   8.285  65.448  1.00  0.00     0.000 HD 
HETATM   10  H2  UNK A   0      -9.735   2.637  66.249  1.00  0.00     0.000 HD 
HETATM   11  C   UNK A   0     -10.203   6.924  66.975  1.00  0.00    -0.248 C  
HETATM   12  O   UNK A   0     -10.463   5.148  70.041  1.00  0.00    -0.293 OA 
HETATM   13  C   UNK A   0     -10.484   6.813  68.302  1.00  0.00    -0.206 C  
HETATM   14  H1  UNK A   0      -9.445   3.770  64.905  1.00  0.00     0.000 HD 
HETATM   15  C   UNK A   0     -10.446   5.419  68.844  1.00  0.00    -0.168 C  
HETATM   16  N   UNK A   0      -9.930   5.855  66.157  1.00  0.00    -0.376 NA 
HETATM   17  N   UNK A   0      -9.699   3.586  65.876  1.00  0.00    -0.382 NA 
HETATM   18  N   UNK A   0     -10.322   4.418  67.930  1.00  0.00     0.172 N  
ENDROOT
BRANCH   4  19
HETATM   19  C   UNK A   0     -10.887  10.537  69.263  1.00  0.00    -0.243 C  
BRANCH  19  20
HETATM   20  N   UNK A   0     -11.767  11.348  68.406  1.00  0.00    -0.454 NA 
HETATM   21  H   UNK A   0     -12.764  11.150  68.328  1.00  0.00     0.000 HD 
BRANCH  20  22
HETATM   22  C   UNK A   0     -11.175  12.404  67.702  1.00  0.00    -0.288 A  
HETATM   23  C   UNK A   0     -11.462  14.238  66.123  1.00  0.00    -0.357 A  
HETATM   24  C   UNK A   0     -10.185  14.713  66.442  1.00  0.00    -0.296 A  
HETATM   25  C   UNK A   0      -9.857  12.826  67.911  1.00  0.00    -0.223 A  
HETATM   26  C   UNK A   0     -11.945  13.081  66.748  1.00  0.00    -0.434 A  
HETATM   27  C   UNK A   0      -9.363  13.974  67.296  1.00  0.00    -0.230 A  
BRANCH  24  28
HETATM   28  C   UNK A   0      -9.711  15.997  65.874  1.00  0.00    -0.343 C  
ATOM     29  H   GLU A   1      -7.969  15.911  67.039  1.00  0.00     0.000 HD 
ATOM     30  N   GLU A   1      -8.512  16.477  66.387  1.00  0.00    -0.295 N  
HETATM   31  O   UNK A   0     -10.368  16.595  65.032  1.00  0.00    -0.623 OA 
BRANCH  30  32
ATOM     32  CA  GLU A   1      -8.029  17.811  65.981  1.00  0.00    -0.129 C  
ATOM     33  C   GLU A   1      -6.492  17.793  65.894  1.00  0.00    -0.229 C  
ATOM     34  O   GLU A   1      -5.926  16.834  66.668  1.00  0.00    -0.270 OA 
ATOM     35  OXT GLU A   1      -5.825  18.644  65.321  1.00  0.00    -0.205 OA 
BRANCH  32  36
ATOM     36  CB  GLU A   1      -8.485  18.872  66.995  1.00  0.00    -0.292 C  
BRANCH  36  37
ATOM     37  CG  GLU A   1      -7.587  18.939  68.235  1.00  0.00    -0.317 C  
ATOM     38  CD  GLU A   1      -6.924  20.283  68.396  1.00  0.00    -0.234 C  
ATOM     39  OE2 GLU A   1      -7.054  21.227  67.633  1.00  0.00    -0.425 OA 
ATOM     40  OE1 GLU A   1      -6.155  20.342  69.508  1.00  0.00    -0.332 OA 
ENDBRANCH  36  37
ENDBRANCH  32  36
ENDBRANCH  30  32
ENDBRANCH  24  28
ENDBRANCH  20  22
ENDBRANCH  19  20
ENDBRANCH   4  19
TORSDOF 7
ENDMDL
MODEL       82
REMARK 921   NORMALIZED FREE ENERGY PREDICTED BY IDOCK:   -6.24 KCAL/MOL
REMARK 922        TOTAL FREE ENERGY PREDICTED BY IDOCK:  -10.06 KCAL/MOL
REMARK 923 INTER-LIGAND FREE ENERGY PREDICTED BY IDOCK:   -8.89 KCAL/MOL
REMARK 924 INTRA-LIGAND FREE ENERGY PREDICTED BY IDOCK:   -1.18 KCAL/MOL
REMARK 927      BINDING AFFINITY PREDICTED BY RF-SCORE:    0.00 PKD
ROOT
HETATM    1  C   UNK A   0     -11.869  13.201  68.344  1.00  0.00    -0.351 C  
HETATM    2  N   UNK A   0     -12.095  12.834  69.663  1.00  0.00    -0.264 N  
HETATM    3  O   UNK A   0     -11.467  12.474  67.440  1.00  0.00    -0.298 OA 
HETATM    4  C   UNK A   0     -11.855  11.422  70.140  1.00  0.00    -0.355 C  
HETATM    5  C   UNK A   0     -13.029  10.998  71.053  1.00  0.00    -0.276 C  
HETATM    6  C   UNK A   0     -13.480  15.465  72.597  1.00  0.00    -0.529 C  
HETATM    7  H   UNK A   0     -13.200  16.987  71.251  1.00  0.00     0.000 HD 
HETATM    8  N   UNK A   0     -13.162  11.986  72.109  1.00  0.00    -0.491 NA 
HETATM    9  H   UNK A   0     -13.343  11.677  73.065  1.00  0.00     0.000 HD 
HETATM   10  H2  UNK A   0     -13.879  17.347  73.384  1.00  0.00     0.000 HD 
HETATM   11  C   UNK A   0     -13.047  13.341  71.842  1.00  0.00    -0.388 C  
HETATM   12  O   UNK A   0     -11.829  15.783  69.568  1.00  0.00    -0.354 OA 
HETATM   13  C   UNK A   0     -12.534  13.752  70.650  1.00  0.00    -0.359 C  
HETATM   14  H1  UNK A   0     -14.207  15.942  74.429  1.00  0.00     0.000 HD 
HETATM   15  C   UNK A   0     -12.450  15.234  70.474  1.00  0.00    -0.405 C  
HETATM   16  N   UNK A   0     -13.493  14.195  72.819  1.00  0.00    -0.640 NA 
HETATM   17  N   UNK A   0     -13.888  16.340  73.545  1.00  0.00    -0.751 NA 
HETATM   18  N   UNK A   0     -13.058  15.993  71.426  1.00  0.00    -0.500 N  
ENDROOT
BRANCH   4  19
HETATM   19  C   UNK A   0     -11.620  10.350  69.053  1.00  0.00    -0.150 C  
BRANCH  19  20
HETATM   20  N   UNK A   0     -10.190  10.194  68.735  1.00  0.00    -0.177 NA 
HETATM   21  H   UNK A   0      -9.483  10.794  69.159  1.00  0.00     0.000 HD 
BRANCH  20  22
HETATM   22  C   UNK A   0      -9.845   9.187  67.827  1.00  0.00    -0.174 A  
HETATM   23  C   UNK A   0      -8.133   8.209  66.394  1.00  0.00    -0.106 A  
HETATM   24  C   UNK A   0      -8.932   7.077  66.209  1.00  0.00    -0.175 A  
HETATM   25  C   UNK A   0     -10.677   8.102  67.526  1.00  0.00    -0.227 A  
HETATM   26  C   UNK A   0      -8.598   9.262  67.194  1.00  0.00    -0.130 A  
HETATM   27  C   UNK A   0     -10.227   7.049  66.732  1.00  0.00    -0.282 A  
BRANCH  24  28
HETATM   28  C   UNK A   0      -8.404   5.911  65.461  1.00  0.00    -0.145 C  
ATOM     29  H   GLU A   1     -10.234   4.908  65.658  1.00  0.00     0.000 HD 
ATOM     30  N   GLU A   1      -9.270   4.834  65.333  1.00  0.00    -0.153 N  
HETATM   31  O   UNK A   0      -7.261   5.910  65.023  1.00  0.00    -0.062 OA 
BRANCH  30  32
ATOM     32  CA  GLU A   1      -8.787   3.580  64.723  1.00  0.00    -0.120 C  
ATOM     33  C   GLU A   1      -9.817   3.083  63.692  1.00  0.00    -0.138 C  
ATOM     34  O   GLU A   1     -11.073   3.533  63.936  1.00  0.00    -0.312 OA 
ATOM     35  OXT GLU A   1      -9.582   2.244  62.833  1.00  0.00    -0.090 OA 
BRANCH  32  36
ATOM     36  CB  GLU A   1      -8.570   2.511  65.806  1.00  0.00    -0.115 C  
BRANCH  36  37
ATOM     37  CG  GLU A   1      -9.158   2.908  67.164  1.00  0.00    -0.194 C  
ATOM     38  CD  GLU A   1      -8.096   3.111  68.216  1.00  0.00    -0.069 C  
ATOM     39  OE2 GLU A   1      -6.897   2.969  68.040  1.00  0.00    -0.047 OA 
ATOM     40  OE1 GLU A   1      -8.622   3.487  69.404  1.00  0.00    -0.063 OA 
ENDBRANCH  36  37
ENDBRANCH  32  36
ENDBRANCH  30  32
ENDBRANCH  24  28
ENDBRANCH  20  22
ENDBRANCH  19  20
ENDBRANCH   4  19
TORSDOF 7
ENDMDL
MODEL       83
REMARK 921   NORMALIZED FREE ENERGY PREDICTED BY IDOCK:   -6.22 KCAL/MOL
REMARK 922        TOTAL FREE ENERGY PREDICTED BY IDOCK:  -10.03 KCAL/MOL
REMARK 923 INTER-LIGAND FREE ENERGY PREDICTED BY IDOCK:   -8.76 KCAL/MOL
REMARK 924 INTRA-LIGAND FREE ENERGY PREDICTED BY IDOCK:   -1.27 KCAL/MOL
REMARK 927      BINDING AFFINITY PREDICTED BY RF-SCORE:    0.00 PKD
ROOT
HETATM    1  C   UNK A   0     -12.162  14.187  65.139  1.00  0.00    -0.433 C  
HETATM    2  N   UNK A   0     -11.412  14.574  66.241  1.00  0.00    -0.353 N  
HETATM    3  O   UNK A   0     -12.526  13.047  64.865  1.00  0.00    -0.447 OA 
HETATM    4  C   UNK A   0     -10.946  13.572  67.269  1.00  0.00    -0.280 C  
HETATM    5  C   UNK A   0     -11.159  14.169  68.679  1.00  0.00    -0.262 C  
HETATM    6  C   UNK A   0     -10.279  18.523  67.001  1.00  0.00    -0.380 C  
HETATM    7  H   UNK A   0     -10.978  18.999  65.133  1.00  0.00     0.000 HD 
HETATM    8  N   UNK A   0     -10.489  15.456  68.733  1.00  0.00    -0.225 NA 
HETATM    9  H   UNK A   0      -9.959  15.712  69.567  1.00  0.00     0.000 HD 
HETATM   10  H2  UNK A   0      -9.963  20.511  66.484  1.00  0.00     0.000 HD 
HETATM   11  C   UNK A   0     -10.556  16.344  67.671  1.00  0.00    -0.313 C  
HETATM   12  O   UNK A   0     -11.207  16.710  64.198  1.00  0.00    -1.103 OA 
HETATM   13  C   UNK A   0     -11.010  15.916  66.462  1.00  0.00    -0.121 C  
HETATM   14  H1  UNK A   0      -9.506  20.017  68.133  1.00  0.00     0.000 HD 
HETATM   15  C   UNK A   0     -11.033  16.956  65.388  1.00  0.00    -0.026 C  
HETATM   16  N   UNK A   0     -10.169  17.635  67.931  1.00  0.00    -0.339 NA 
HETATM   17  N   UNK A   0      -9.885  19.800  67.211  1.00  0.00    -0.358 NA 
HETATM   18  N   UNK A   0     -10.782  18.235  65.779  1.00  0.00    -0.273 N  
ENDROOT
BRANCH   4  19
HETATM   19  C   UNK A   0     -11.566  12.160  67.195  1.00  0.00    -0.335 C  
BRANCH  19  20
HETATM   20  N   UNK A   0     -10.548  11.123  66.960  1.00  0.00    -0.239 NA 
HETATM   21  H   UNK A   0     -10.356  10.769  66.023  1.00  0.00     0.000 HD 
BRANCH  20  22
HETATM   22  C   UNK A   0      -9.855  10.644  68.077  1.00  0.00    -0.160 A  
HETATM   23  C   UNK A   0      -9.973   9.702  70.322  1.00  0.00    -0.326 A  
HETATM   24  C   UNK A   0      -8.606   9.408  70.272  1.00  0.00    -0.249 A  
HETATM   25  C   UNK A   0      -8.467  10.453  68.100  1.00  0.00    -0.121 A  
HETATM   26  C   UNK A   0     -10.586  10.328  69.229  1.00  0.00    -0.254 A  
HETATM   27  C   UNK A   0      -7.845   9.833  69.181  1.00  0.00    -0.095 A  
BRANCH  24  28
HETATM   28  C   UNK A   0      -7.973   8.645  71.373  1.00  0.00    -0.137 C  
ATOM     29  H   GLU A   1      -9.418   7.134  71.208  1.00  0.00     0.000 HD 
ATOM     30  N   GLU A   1      -8.618   7.472  71.744  1.00  0.00    -0.113 N  
HETATM   31  O   UNK A   0      -6.964   9.060  71.928  1.00  0.00    -0.274 OA 
BRANCH  30  32
ATOM     32  CA  GLU A   1      -8.138   6.717  72.917  1.00  0.00    -0.107 C  
ATOM     33  C   GLU A   1      -7.495   5.398  72.447  1.00  0.00    -0.096 C  
ATOM     34  O   GLU A   1      -7.956   4.981  71.242  1.00  0.00    -0.103 OA 
ATOM     35  OXT GLU A   1      -6.765   4.703  73.141  1.00  0.00    -0.056 OA 
BRANCH  32  36
ATOM     36  CB  GLU A   1      -9.304   6.420  73.872  1.00  0.00    -0.161 C  
BRANCH  36  37
ATOM     37  CG  GLU A   1     -10.653   6.918  73.342  1.00  0.00    -0.372 C  
ATOM     38  CD  GLU A   1     -11.417   5.845  72.608  1.00  0.00    -0.272 C  
ATOM     39  OE2 GLU A   1     -11.026   4.703  72.426  1.00  0.00    -0.124 OA 
ATOM     40  OE1 GLU A   1     -12.618   6.286  72.168  1.00  0.00    -0.257 OA 
ENDBRANCH  36  37
ENDBRANCH  32  36
ENDBRANCH  30  32
ENDBRANCH  24  28
ENDBRANCH  20  22
ENDBRANCH  19  20
ENDBRANCH   4  19
TORSDOF 7
ENDMDL
MODEL       84
REMARK 921   NORMALIZED FREE ENERGY PREDICTED BY IDOCK:   -6.19 KCAL/MOL
REMARK 922        TOTAL FREE ENERGY PREDICTED BY IDOCK:   -9.99 KCAL/MOL
REMARK 923 INTER-LIGAND FREE ENERGY PREDICTED BY IDOCK:   -9.64 KCAL/MOL
REMARK 924 INTRA-LIGAND FREE ENERGY PREDICTED BY IDOCK:   -0.35 KCAL/MOL
REMARK 927      BINDING AFFINITY PREDICTED BY RF-SCORE:    0.00 PKD
ROOT
HETATM    1  C   UNK A   0     -10.902   5.743  69.775  1.00  0.00    -0.349 C  
HETATM    2  N   UNK A   0     -10.274   5.276  70.922  1.00  0.00    -0.224 N  
HETATM    3  O   UNK A   0     -11.818   6.557  69.722  1.00  0.00    -0.345 OA 
HETATM    4  C   UNK A   0     -10.682   5.754  72.294  1.00  0.00    -0.234 C  
HETATM    5  C   UNK A   0      -9.408   6.029  73.125  1.00  0.00    -0.139 C  
HETATM    6  C   UNK A   0      -7.153   2.499  70.888  1.00  0.00    -0.033 C  
HETATM    7  H   UNK A   0      -7.518   2.233  68.888  1.00  0.00     0.000 HD 
HETATM    8  N   UNK A   0      -8.592   4.827  73.115  1.00  0.00    -0.106 NA 
HETATM    9  H   UNK A   0      -8.134   4.524  73.975  1.00  0.00     0.000 HD 
HETATM   10  H2  UNK A   0      -5.966   1.030  70.021  1.00  0.00     0.000 HD 
HETATM   11  C   UNK A   0      -8.424   4.085  71.957  1.00  0.00    -0.104 C  
HETATM   12  O   UNK A   0      -9.727   3.356  68.733  1.00  0.00    -0.114 OA 
HETATM   13  C   UNK A   0      -9.238   4.308  70.889  1.00  0.00    -0.137 C  
HETATM   14  H1  UNK A   0      -5.647   1.431  71.727  1.00  0.00     0.000 HD 
HETATM   15  C   UNK A   0      -8.972   3.446  69.697  1.00  0.00    -0.113 C  
HETATM   16  N   UNK A   0      -7.403   3.167  71.963  1.00  0.00    -0.049 NA 
HETATM   17  N   UNK A   0      -6.171   1.568  70.863  1.00  0.00    -0.018 NA 
HETATM   18  N   UNK A   0      -7.847   2.681  69.742  1.00  0.00    -0.043 N  
ENDROOT
BRANCH   4  19
HETATM   19  C   UNK A   0     -11.623   6.977  72.353  1.00  0.00    -0.245 C  
BRANCH  19  20
HETATM   20  N   UNK A   0     -10.880   8.235  72.539  1.00  0.00    -0.355 NA 
HETATM   21  H   UNK A   0     -10.281   8.384  73.351  1.00  0.00     0.000 HD 
BRANCH  20  22
HETATM   22  C   UNK A   0     -11.032   9.217  71.555  1.00  0.00    -0.375 A  
HETATM   23  C   UNK A   0     -10.164  10.239  69.519  1.00  0.00    -0.261 A  
HETATM   24  C   UNK A   0     -11.356  10.956  69.369  1.00  0.00    -0.347 A  
HETATM   25  C   UNK A   0     -12.162  10.037  71.451  1.00  0.00    -0.510 A  
HETATM   26  C   UNK A   0     -10.005   9.382  70.616  1.00  0.00    -0.349 A  
HETATM   27  C   UNK A   0     -12.332  10.895  70.367  1.00  0.00    -0.436 A  
BRANCH  24  28
HETATM   28  C   UNK A   0     -11.579  11.776  68.155  1.00  0.00    -0.323 C  
ATOM     29  H   GLU A   1     -10.843  10.237  66.936  1.00  0.00     0.000 HD 
ATOM     30  N   GLU A   1     -11.176  11.200  66.957  1.00  0.00    -0.275 N  
HETATM   31  O   UNK A   0     -12.059  12.899  68.232  1.00  0.00    -0.294 OA 
BRANCH  30  32
ATOM     32  CA  GLU A   1     -11.234  11.993  65.713  1.00  0.00    -0.334 C  
ATOM     33  C   GLU A   1     -10.703  11.145  64.542  1.00  0.00    -0.297 C  
ATOM     34  O   GLU A   1      -9.857  10.162  64.938  1.00  0.00    -0.307 OA 
ATOM     35  OXT GLU A   1     -10.884  11.412  63.362  1.00  0.00    -0.385 OA 
BRANCH  32  36
ATOM     36  CB  GLU A   1     -10.395  13.271  65.858  1.00  0.00    -0.293 C  
BRANCH  36  37
ATOM     37  CG  GLU A   1     -10.744  14.338  64.815  1.00  0.00    -0.435 C  
ATOM     38  CD  GLU A   1     -12.224  14.620  64.750  1.00  0.00    -0.394 C  
ATOM     39  OE2 GLU A   1     -13.075  14.067  65.427  1.00  0.00    -0.763 OA 
ATOM     40  OE1 GLU A   1     -12.519  15.583  63.847  1.00  0.00    -0.656 OA 
ENDBRANCH  36  37
ENDBRANCH  32  36
ENDBRANCH  30  32
ENDBRANCH  24  28
ENDBRANCH  20  22
ENDBRANCH  19  20
ENDBRANCH   4  19
TORSDOF 7
ENDMDL
MODEL       85
REMARK 921   NORMALIZED FREE ENERGY PREDICTED BY IDOCK:   -6.19 KCAL/MOL
REMARK 922        TOTAL FREE ENERGY PREDICTED BY IDOCK:   -9.99 KCAL/MOL
REMARK 923 INTER-LIGAND FREE ENERGY PREDICTED BY IDOCK:   -8.81 KCAL/MOL
REMARK 924 INTRA-LIGAND FREE ENERGY PREDICTED BY IDOCK:   -1.18 KCAL/MOL
REMARK 927      BINDING AFFINITY PREDICTED BY RF-SCORE:    0.00 PKD
ROOT
HETATM    1  C   UNK A   0     -11.563   8.752  70.631  1.00  0.00    -0.205 C  
HETATM    2  N   UNK A   0     -10.896   7.556  70.407  1.00  0.00    -0.240 N  
HETATM    3  O   UNK A   0     -11.691   9.679  69.835  1.00  0.00    -0.117 OA 
HETATM    4  C   UNK A   0     -10.227   7.262  69.086  1.00  0.00    -0.197 C  
HETATM    5  C   UNK A   0     -10.542   5.803  68.681  1.00  0.00    -0.235 C  
HETATM    6  C   UNK A   0     -10.580   4.512  73.250  1.00  0.00    -0.216 C  
HETATM    7  H   UNK A   0     -11.379   5.815  74.618  1.00  0.00     0.000 HD 
HETATM    8  N   UNK A   0     -10.146   4.933  69.775  1.00  0.00    -0.248 NA 
HETATM    9  H   UNK A   0      -9.671   4.054  69.569  1.00  0.00     0.000 HD 
HETATM   10  H2  UNK A   0     -10.678   3.732  75.175  1.00  0.00     0.000 HD 
HETATM   11  C   UNK A   0     -10.403   5.276  71.092  1.00  0.00    -0.221 C  
HETATM   12  O   UNK A   0     -11.149   7.928  73.335  1.00  0.00    -0.277 OA 
HETATM   13  C   UNK A   0     -10.773   6.549  71.398  1.00  0.00    -0.238 C  
HETATM   14  H1  UNK A   0     -10.115   2.642  73.883  1.00  0.00     0.000 HD 
HETATM   15  C   UNK A   0     -11.016   6.808  72.851  1.00  0.00    -0.263 C  
HETATM   16  N   UNK A   0     -10.283   4.270  72.019  1.00  0.00    -0.177 NA 
HETATM   17  N   UNK A   0     -10.451   3.553  74.197  1.00  0.00    -0.184 NA 
HETATM   18  N   UNK A   0     -11.026   5.719  73.666  1.00  0.00    -0.428 N  
ENDROOT
BRANCH   4  19
HETATM   19  C   UNK A   0     -10.548   8.215  67.915  1.00  0.00    -0.147 C  
BRANCH  19  20
HETATM   20  N   UNK A   0      -9.400   9.069  67.569  1.00  0.00    -0.135 NA 
HETATM   21  H   UNK A   0      -8.442   8.728  67.646  1.00  0.00     0.000 HD 
BRANCH  20  22
HETATM   22  C   UNK A   0      -9.679  10.367  67.128  1.00  0.00    -0.172 A  
HETATM   23  C   UNK A   0      -9.505  12.762  67.545  1.00  0.00    -0.187 A  
HETATM   24  C   UNK A   0      -9.931  13.022  66.239  1.00  0.00    -0.283 A  
HETATM   25  C   UNK A   0     -10.222  10.654  65.869  1.00  0.00    -0.314 A  
HETATM   26  C   UNK A   0      -9.391  11.436  67.985  1.00  0.00    -0.171 A  
HETATM   27  C   UNK A   0     -10.341  11.967  65.420  1.00  0.00    -0.301 A  
BRANCH  24  28
HETATM   28  C   UNK A   0      -9.944  14.413  65.727  1.00  0.00    -0.329 C  
ATOM     29  H   GLU A   1      -8.597  15.013  67.218  1.00  0.00     0.000 HD 
ATOM     30  N   GLU A   1      -9.189  15.328  66.449  1.00  0.00    -0.287 N  
HETATM   31  O   UNK A   0     -10.613  14.718  64.749  1.00  0.00    -0.413 OA 
BRANCH  30  32
ATOM     32  CA  GLU A   1      -9.248  16.760  66.097  1.00  0.00    -0.249 C  
ATOM     33  C   GLU A   1      -7.839  17.372  66.207  1.00  0.00    -0.295 C  
ATOM     34  O   GLU A   1      -7.029  16.692  67.056  1.00  0.00    -0.166 OA 
ATOM     35  OXT GLU A   1      -7.514  18.444  65.716  1.00  0.00    -0.484 OA 
BRANCH  32  36
ATOM     36  CB  GLU A   1     -10.215  17.498  67.034  1.00  0.00    -0.327 C  
BRANCH  36  37
ATOM     37  CG  GLU A   1      -9.968  17.190  68.514  1.00  0.00    -0.309 C  
ATOM     38  CD  GLU A   1     -10.976  16.222  69.079  1.00  0.00    -0.325 C  
ATOM     39  OE2 GLU A   1     -11.905  15.732  68.457  1.00  0.00    -0.363 OA 
ATOM     40  OE1 GLU A   1     -10.733  15.934  70.378  1.00  0.00    -0.310 OA 
ENDBRANCH  36  37
ENDBRANCH  32  36
ENDBRANCH  30  32
ENDBRANCH  24  28
ENDBRANCH  20  22
ENDBRANCH  19  20
ENDBRANCH   4  19
TORSDOF 7
ENDMDL
MODEL       86
REMARK 921   NORMALIZED FREE ENERGY PREDICTED BY IDOCK:   -6.18 KCAL/MOL
REMARK 922        TOTAL FREE ENERGY PREDICTED BY IDOCK:   -9.98 KCAL/MOL
REMARK 923 INTER-LIGAND FREE ENERGY PREDICTED BY IDOCK:   -8.94 KCAL/MOL
REMARK 924 INTRA-LIGAND FREE ENERGY PREDICTED BY IDOCK:   -1.03 KCAL/MOL
REMARK 927      BINDING AFFINITY PREDICTED BY RF-SCORE:    0.00 PKD
ROOT
HETATM    1  C   UNK A   0      -7.899   7.855  69.841  1.00  0.00    -0.103 C  
HETATM    2  N   UNK A   0      -9.055   7.173  69.489  1.00  0.00    -0.146 N  
HETATM    3  O   UNK A   0      -6.831   7.847  69.236  1.00  0.00    -0.046 OA 
HETATM    4  C   UNK A   0      -9.113   6.304  68.256  1.00  0.00    -0.113 C  
HETATM    5  C   UNK A   0     -10.450   6.564  67.524  1.00  0.00    -0.240 C  
HETATM    6  C   UNK A   0     -12.607   7.342  71.682  1.00  0.00    -0.368 C  
HETATM    7  H   UNK A   0     -11.565   8.337  73.142  1.00  0.00     0.000 HD 
HETATM    8  N   UNK A   0     -11.533   6.356  68.470  1.00  0.00    -0.494 NA 
HETATM    9  H   UNK A   0     -12.373   5.862  68.169  1.00  0.00     0.000 HD 
HETATM   10  H2  UNK A   0     -13.743   7.752  73.373  1.00  0.00     0.000 HD 
HETATM   11  C   UNK A   0     -11.444   6.816  69.773  1.00  0.00    -0.263 C  
HETATM   12  O   UNK A   0      -9.252   7.885  72.357  1.00  0.00    -0.149 OA 
HETATM   13  C   UNK A   0     -10.240   7.218  70.266  1.00  0.00    -0.199 C  
HETATM   14  H1  UNK A   0     -14.581   7.001  71.993  1.00  0.00     0.000 HD 
HETATM   15  C   UNK A   0     -10.261   7.688  71.686  1.00  0.00    -0.185 C  
HETATM   16  N   UNK A   0     -12.615   6.854  70.488  1.00  0.00    -0.553 NA 
HETATM   17  N   UNK A   0     -13.736   7.374  72.426  1.00  0.00    -0.385 NA 
HETATM   18  N   UNK A   0     -11.487   7.837  72.256  1.00  0.00    -0.309 N  
ENDROOT
BRANCH   4  19
HETATM   19  C   UNK A   0      -7.936   6.426  67.263  1.00  0.00    -0.112 C  
BRANCH  19  20
HETATM   20  N   UNK A   0      -8.303   7.206  66.068  1.00  0.00    -0.128 NA 
HETATM   21  H   UNK A   0      -8.635   6.751  65.218  1.00  0.00     0.000 HD 
BRANCH  20  22
HETATM   22  C   UNK A   0      -8.177   8.597  66.150  1.00  0.00    -0.121 A  
HETATM   23  C   UNK A   0      -9.271  10.742  66.526  1.00  0.00    -0.187 A  
HETATM   24  C   UNK A   0      -8.022  11.366  66.611  1.00  0.00    -0.148 A  
HETATM   25  C   UNK A   0      -6.945   9.262  66.116  1.00  0.00    -0.086 A  
HETATM   26  C   UNK A   0      -9.341   9.363  66.286  1.00  0.00    -0.253 A  
HETATM   27  C   UNK A   0      -6.862  10.633  66.352  1.00  0.00    -0.129 A  
BRANCH  24  28
HETATM   28  C   UNK A   0      -7.934  12.799  66.978  1.00  0.00    -0.038 C  
ATOM     29  H   GLU A   1     -10.002  13.032  66.714  1.00  0.00     0.000 HD 
ATOM     30  N   GLU A   1      -9.124  13.513  66.911  1.00  0.00    -0.245 N  
HETATM   31  O   UNK A   0      -6.864  13.306  67.286  1.00  0.00    -0.134 OA 
BRANCH  30  32
ATOM     32  CA  GLU A   1      -9.110  14.972  67.128  1.00  0.00    -0.215 C  
ATOM     33  C   GLU A   1      -9.662  15.286  68.531  1.00  0.00    -0.211 C  
ATOM     34  O   GLU A   1     -10.485  14.319  69.007  1.00  0.00    -0.239 OA 
ATOM     35  OXT GLU A   1      -9.517  16.357  69.104  1.00  0.00    -0.258 OA 
BRANCH  32  36
ATOM     36  CB  GLU A   1      -9.961  15.676  66.059  1.00  0.00    -0.359 C  
BRANCH  36  37
ATOM     37  CG  GLU A   1     -11.014  14.758  65.432  1.00  0.00    -0.365 C  
ATOM     38  CD  GLU A   1     -11.776  15.429  64.317  1.00  0.00    -0.206 C  
ATOM     39  OE2 GLU A   1     -11.606  16.578  63.943  1.00  0.00    -1.175 OA 
ATOM     40  OE1 GLU A   1     -12.684  14.602  63.751  1.00  0.00    -0.778 OA 
ENDBRANCH  36  37
ENDBRANCH  32  36
ENDBRANCH  30  32
ENDBRANCH  24  28
ENDBRANCH  20  22
ENDBRANCH  19  20
ENDBRANCH   4  19
TORSDOF 7
ENDMDL
MODEL       87
REMARK 921   NORMALIZED FREE ENERGY PREDICTED BY IDOCK:   -6.17 KCAL/MOL
REMARK 922        TOTAL FREE ENERGY PREDICTED BY IDOCK:   -9.97 KCAL/MOL
REMARK 923 INTER-LIGAND FREE ENERGY PREDICTED BY IDOCK:   -8.91 KCAL/MOL
REMARK 924 INTRA-LIGAND FREE ENERGY PREDICTED BY IDOCK:   -1.05 KCAL/MOL
REMARK 927      BINDING AFFINITY PREDICTED BY RF-SCORE:    0.00 PKD
ROOT
HETATM    1  C   UNK A   0      -9.337   4.601  68.002  1.00  0.00    -0.135 C  
HETATM    2  N   UNK A   0     -10.155   5.173  68.966  1.00  0.00    -0.195 N  
HETATM    3  O   UNK A   0      -9.287   4.901  66.813  1.00  0.00    -0.126 OA 
HETATM    4  C   UNK A   0     -11.117   6.286  68.624  1.00  0.00    -0.325 C  
HETATM    5  C   UNK A   0     -11.046   7.363  69.731  1.00  0.00    -0.152 C  
HETATM    6  C   UNK A   0     -10.171   4.013  72.979  1.00  0.00    -0.159 C  
HETATM    7  H   UNK A   0      -8.970   2.438  72.446  1.00  0.00     0.000 HD 
HETATM    8  N   UNK A   0     -11.288   6.718  71.009  1.00  0.00    -0.290 NA 
HETATM    9  H   UNK A   0     -11.883   7.177  71.698  1.00  0.00     0.000 HD 
HETATM   10  H2  UNK A   0      -9.747   2.727  74.556  1.00  0.00     0.000 HD 
HETATM   11  C   UNK A   0     -10.723   5.489  71.309  1.00  0.00    -0.218 C  
HETATM   12  O   UNK A   0      -9.250   2.542  69.981  1.00  0.00    -0.106 OA 
HETATM   13  C   UNK A   0     -10.168   4.741  70.316  1.00  0.00    -0.192 C  
HETATM   14  H1  UNK A   0     -10.680   4.197  74.933  1.00  0.00     0.000 HD 
HETATM   15  C   UNK A   0      -9.596   3.430  70.753  1.00  0.00    -0.166 C  
HETATM   16  N   UNK A   0     -10.746   5.113  72.629  1.00  0.00    -0.226 NA 
HETATM   17  N   UNK A   0     -10.194   3.597  74.267  1.00  0.00    -0.165 NA 
HETATM   18  N   UNK A   0      -9.526   3.219  72.096  1.00  0.00    -0.119 N  
ENDROOT
BRANCH   4  19
HETATM   19  C   UNK A   0     -10.955   6.944  67.237  1.00  0.00    -0.336 C  
BRANCH  19  20
HETATM   20  N   UNK A   0      -9.812   7.871  67.197  1.00  0.00    -0.187 NA 
HETATM   21  H   UNK A   0      -8.890   7.593  67.532  1.00  0.00     0.000 HD 
BRANCH  20  22
HETATM   22  C   UNK A   0     -10.046   9.151  66.680  1.00  0.00    -0.273 A  
HETATM   23  C   UNK A   0     -10.824  11.424  67.091  1.00  0.00    -0.316 A  
HETATM   24  C   UNK A   0     -10.309  11.825  65.854  1.00  0.00    -0.280 A  
HETATM   25  C   UNK A   0      -9.651   9.547  65.397  1.00  0.00    -0.342 A  
HETATM   26  C   UNK A   0     -10.698  10.087  67.492  1.00  0.00    -0.339 A  
HETATM   27  C   UNK A   0      -9.771  10.873  64.985  1.00  0.00    -0.319 A  
BRANCH  24  28
HETATM   28  C   UNK A   0     -10.334  13.256  65.471  1.00  0.00    -0.291 C  
ATOM     29  H   GLU A   1      -9.286  13.779  67.211  1.00  0.00     0.000 HD 
ATOM     30  N   GLU A   1      -9.767  14.135  66.385  1.00  0.00    -0.289 N  
HETATM   31  O   UNK A   0     -10.857  13.620  64.426  1.00  0.00    -0.396 OA 
BRANCH  30  32
ATOM     32  CA  GLU A   1      -9.866  15.589  66.153  1.00  0.00    -0.316 C  
ATOM     33  C   GLU A   1      -8.458  16.212  66.208  1.00  0.00    -0.322 C  
ATOM     34  O   GLU A   1      -7.581  15.479  66.938  1.00  0.00    -0.209 OA 
ATOM     35  OXT GLU A   1      -8.180  17.325  65.783  1.00  0.00    -0.533 OA 
BRANCH  32  36
ATOM     36  CB  GLU A   1     -10.767  16.237  67.216  1.00  0.00    -0.265 C  
BRANCH  36  37
ATOM     37  CG  GLU A   1     -11.534  15.210  68.057  1.00  0.00    -0.355 C  
ATOM     38  CD  GLU A   1     -11.466  15.507  69.533  1.00  0.00    -0.333 C  
ATOM     39  OE2 GLU A   1     -10.864  16.443  70.035  1.00  0.00    -0.345 OA 
ATOM     40  OE1 GLU A   1     -12.168  14.612  70.265  1.00  0.00    -0.293 OA 
ENDBRANCH  36  37
ENDBRANCH  32  36
ENDBRANCH  30  32
ENDBRANCH  24  28
ENDBRANCH  20  22
ENDBRANCH  19  20
ENDBRANCH   4  19
TORSDOF 7
ENDMDL
MODEL       88
REMARK 921   NORMALIZED FREE ENERGY PREDICTED BY IDOCK:   -6.14 KCAL/MOL
REMARK 922        TOTAL FREE ENERGY PREDICTED BY IDOCK:   -9.93 KCAL/MOL
REMARK 923 INTER-LIGAND FREE ENERGY PREDICTED BY IDOCK:   -8.67 KCAL/MOL
REMARK 924 INTRA-LIGAND FREE ENERGY PREDICTED BY IDOCK:   -1.26 KCAL/MOL
REMARK 927      BINDING AFFINITY PREDICTED BY RF-SCORE:    0.00 PKD
ROOT
HETATM    1  C   UNK A   0     -10.922   4.931  72.143  1.00  0.00     0.002 C  
HETATM    2  N   UNK A   0     -10.434   5.334  70.908  1.00  0.00    -0.236 N  
HETATM    3  O   UNK A   0     -11.764   5.511  72.822  1.00  0.00    -0.297 OA 
HETATM    4  C   UNK A   0     -10.920   6.599  70.243  1.00  0.00    -0.303 C  
HETATM    5  C   UNK A   0     -11.154   6.314  68.741  1.00  0.00    -0.346 C  
HETATM    6  C   UNK A   0      -7.566   3.205  68.741  1.00  0.00    -0.048 C  
HETATM    7  H   UNK A   0      -7.315   2.016  70.394  1.00  0.00     0.000 HD 
HETATM    8  N   UNK A   0      -9.929   5.764  68.187  1.00  0.00    -0.138 NA 
HETATM    9  H   UNK A   0      -9.610   6.075  67.269  1.00  0.00     0.000 HD 
HETATM   10  H2  UNK A   0      -6.064   1.785  68.517  1.00  0.00     0.000 HD 
HETATM   11  C   UNK A   0      -9.186   4.825  68.884  1.00  0.00    -0.124 C  
HETATM   12  O   UNK A   0      -8.504   3.410  72.070  1.00  0.00    -0.079 OA 
HETATM   13  C   UNK A   0      -9.436   4.613  70.205  1.00  0.00    -0.176 C  
HETATM   14  H1  UNK A   0      -6.451   2.790  67.099  1.00  0.00     0.000 HD 
HETATM   15  C   UNK A   0      -8.569   3.583  70.857  1.00  0.00    -0.071 C  
HETATM   16  N   UNK A   0      -8.237   4.142  68.164  1.00  0.00    -0.091 NA 
HETATM   17  N   UNK A   0      -6.606   2.525  68.072  1.00  0.00    -0.035 NA 
HETATM   18  N   UNK A   0      -7.771   2.853  70.031  1.00  0.00    -0.043 N  
ENDROOT
BRANCH   4  19
HETATM   19  C   UNK A   0     -12.170   7.269  70.852  1.00  0.00    -0.270 C  
BRANCH  19  20
HETATM   20  N   UNK A   0     -11.823   8.450  71.660  1.00  0.00    -0.287 NA 
HETATM   21  H   UNK A   0     -11.644   8.375  72.662  1.00  0.00     0.000 HD 
BRANCH  20  22
HETATM   22  C   UNK A   0     -11.747   9.679  70.996  1.00  0.00    -0.353 A  
HETATM   23  C   UNK A   0     -10.659  11.026  69.280  1.00  0.00    -0.236 A  
HETATM   24  C   UNK A   0     -11.664  11.991  69.398  1.00  0.00    -0.402 A  
HETATM   25  C   UNK A   0     -12.672  10.714  71.183  1.00  0.00    -0.522 A  
HETATM   26  C   UNK A   0     -10.701   9.881  70.087  1.00  0.00    -0.361 A  
HETATM   27  C   UNK A   0     -12.640  11.858  70.388  1.00  0.00    -0.153 A  
BRANCH  24  28
HETATM   28  C   UNK A   0     -11.692  13.147  68.471  1.00  0.00    -0.352 C  
ATOM     29  H   GLU A   1     -11.734  11.864  66.813  1.00  0.00     0.000 HD 
ATOM     30  N   GLU A   1     -11.673  12.836  67.117  1.00  0.00    -0.369 N  
HETATM   31  O   UNK A   0     -11.698  14.295  68.896  1.00  0.00    -0.289 OA 
BRANCH  30  32
ATOM     32  CA  GLU A   1     -11.563  13.920  66.123  1.00  0.00    -0.359 C  
ATOM     33  C   GLU A   1     -12.680  13.768  65.074  1.00  0.00    -0.336 C  
ATOM     34  O   GLU A   1     -13.135  12.495  64.964  1.00  0.00    -0.765 OA 
ATOM     35  OXT GLU A   1     -13.024  14.651  64.301  1.00  0.00    -0.508 OA 
BRANCH  32  36
ATOM     36  CB  GLU A   1     -10.189  13.874  65.436  1.00  0.00    -0.356 C  
BRANCH  36  37
ATOM     37  CG  GLU A   1      -9.567  12.474  65.435  1.00  0.00    -0.015 C  
ATOM     38  CD  GLU A   1      -9.768  11.754  64.125  1.00  0.00    -0.151 C  
ATOM     39  OE2 GLU A   1     -10.367  12.203  63.161  1.00  0.00    -0.389 OA 
ATOM     40  OE1 GLU A   1      -9.192  10.530  64.124  1.00  0.00    -0.208 OA 
ENDBRANCH  36  37
ENDBRANCH  32  36
ENDBRANCH  30  32
ENDBRANCH  24  28
ENDBRANCH  20  22
ENDBRANCH  19  20
ENDBRANCH   4  19
TORSDOF 7
ENDMDL
MODEL       89
REMARK 921   NORMALIZED FREE ENERGY PREDICTED BY IDOCK:   -6.11 KCAL/MOL
REMARK 922        TOTAL FREE ENERGY PREDICTED BY IDOCK:   -9.88 KCAL/MOL
REMARK 923 INTER-LIGAND FREE ENERGY PREDICTED BY IDOCK:   -8.52 KCAL/MOL
REMARK 924 INTRA-LIGAND FREE ENERGY PREDICTED BY IDOCK:   -1.36 KCAL/MOL
REMARK 927      BINDING AFFINITY PREDICTED BY RF-SCORE:    0.00 PKD
ROOT
HETATM    1  C   UNK A   0     -11.507  10.522  67.496  1.00  0.00     0.082 C  
HETATM    2  N   UNK A   0     -10.831  11.192  66.486  1.00  0.00    -0.269 N  
HETATM    3  O   UNK A   0     -12.247  11.023  68.338  1.00  0.00    -0.586 OA 
HETATM    4  C   UNK A   0     -10.948  12.687  66.316  1.00  0.00    -0.283 C  
HETATM    5  C   UNK A   0     -11.108  13.007  64.812  1.00  0.00    -0.322 C  
HETATM    6  C   UNK A   0      -8.360   9.297  63.700  1.00  0.00    -0.185 C  
HETATM    7  H   UNK A   0      -8.542   7.589  64.820  1.00  0.00     0.000 HD 
HETATM    8  N   UNK A   0     -10.001  12.395  64.097  1.00  0.00    -0.553 NA 
HETATM    9  H   UNK A   0      -9.538  12.913  63.350  1.00  0.00     0.000 HD 
HETATM   10  H2  UNK A   0      -7.219   7.715  62.983  1.00  0.00     0.000 HD 
HETATM   11  C   UNK A   0      -9.563  11.119  64.412  1.00  0.00    -0.250 C  
HETATM   12  O   UNK A   0      -9.515   8.567  66.884  1.00  0.00    -0.158 OA 
HETATM   13  C   UNK A   0      -9.971  10.533  65.571  1.00  0.00    -0.279 C  
HETATM   14  H1  UNK A   0      -7.233   9.211  62.017  1.00  0.00     0.000 HD 
HETATM   15  C   UNK A   0      -9.430   9.159  65.812  1.00  0.00    -0.254 C  
HETATM   16  N   UNK A   0      -8.740  10.512  63.495  1.00  0.00    -0.183 NA 
HETATM   17  N   UNK A   0      -7.531   8.674  62.832  1.00  0.00    -0.101 NA 
HETATM   18  N   UNK A   0      -8.756   8.585  64.779  1.00  0.00    -0.391 N  
ENDROOT
BRANCH   4  19
HETATM   19  C   UNK A   0     -12.055  13.395  67.126  1.00  0.00    -0.318 C  
BRANCH  19  20
HETATM   20  N   UNK A   0     -11.591  13.787  68.467  1.00  0.00    -0.314 NA 
HETATM   21  H   UNK A   0     -11.968  13.352  69.309  1.00  0.00     0.000 HD 
BRANCH  20  22
HETATM   22  C   UNK A   0     -10.610  14.783  68.537  1.00  0.00    -0.248 A  
HETATM   23  C   UNK A   0      -8.377  15.421  69.276  1.00  0.00    -0.254 A  
HETATM   24  C   UNK A   0      -8.457  16.590  68.513  1.00  0.00    -0.226 A  
HETATM   25  C   UNK A   0     -10.716  16.017  67.883  1.00  0.00    -0.316 A  
HETATM   26  C   UNK A   0      -9.458  14.530  69.292  1.00  0.00     0.069 A  
HETATM   27  C   UNK A   0      -9.649  16.912  67.860  1.00  0.00    -0.244 A  
BRANCH  24  28
HETATM   28  C   UNK A   0      -7.278  17.481  68.398  1.00  0.00    -0.226 C  
ATOM     29  H   GLU A   1      -8.193  18.912  69.628  1.00  0.00     0.000 HD 
ATOM     30  N   GLU A   1      -7.384  18.708  69.042  1.00  0.00    -0.272 N  
HETATM   31  O   UNK A   0      -6.298  17.149  67.744  1.00  0.00    -0.137 OA 
BRANCH  30  32
ATOM     32  CA  GLU A   1      -6.318  19.713  68.872  1.00  0.00    -0.286 C  
ATOM     33  C   GLU A   1      -6.144  20.501  70.183  1.00  0.00    -0.185 C  
ATOM     34  O   GLU A   1      -7.260  20.502  70.955  1.00  0.00     0.151 OA 
ATOM     35  OXT GLU A   1      -5.170  21.193  70.448  1.00  0.00    -0.556 OA 
BRANCH  32  36
ATOM     36  CB  GLU A   1      -6.671  20.673  67.726  1.00  0.00    -0.373 C  
BRANCH  36  37
ATOM     37  CG  GLU A   1      -8.170  20.980  67.641  1.00  0.00     0.057 C  
ATOM     38  CD  GLU A   1      -8.856  20.211  66.541  1.00  0.00    -0.282 C  
ATOM     39  OE2 GLU A   1      -8.304  19.435  65.776  1.00  0.00    -0.430 OA 
ATOM     40  OE1 GLU A   1     -10.183  20.467  66.492  1.00  0.00    -0.405 OA 
ENDBRANCH  36  37
ENDBRANCH  32  36
ENDBRANCH  30  32
ENDBRANCH  24  28
ENDBRANCH  20  22
ENDBRANCH  19  20
ENDBRANCH   4  19
TORSDOF 7
ENDMDL
MODEL       90
REMARK 921   NORMALIZED FREE ENERGY PREDICTED BY IDOCK:   -6.10 KCAL/MOL
REMARK 922        TOTAL FREE ENERGY PREDICTED BY IDOCK:   -9.87 KCAL/MOL
REMARK 923 INTER-LIGAND FREE ENERGY PREDICTED BY IDOCK:   -8.72 KCAL/MOL
REMARK 924 INTRA-LIGAND FREE ENERGY PREDICTED BY IDOCK:   -1.15 KCAL/MOL
REMARK 927      BINDING AFFINITY PREDICTED BY RF-SCORE:    0.00 PKD
ROOT
HETATM    1  C   UNK A   0     -11.143   6.524  68.069  1.00  0.00    -0.238 C  
HETATM    2  N   UNK A   0     -10.190   7.204  68.814  1.00  0.00    -0.174 N  
HETATM    3  O   UNK A   0     -11.237   6.503  66.846  1.00  0.00    -0.387 OA 
HETATM    4  C   UNK A   0      -9.114   8.031  68.152  1.00  0.00    -0.134 C  
HETATM    5  C   UNK A   0      -7.768   7.757  68.861  1.00  0.00    -0.113 C  
HETATM    6  C   UNK A   0     -10.033   7.141  72.989  1.00  0.00    -0.208 C  
HETATM    7  H   UNK A   0     -11.849   6.188  72.963  1.00  0.00     0.000 HD 
HETATM    8  N   UNK A   0      -7.943   8.007  70.282  1.00  0.00    -0.102 NA 
HETATM    9  H   UNK A   0      -7.214   8.497  70.799  1.00  0.00     0.000 HD 
HETATM   10  H2  UNK A   0     -10.812   6.799  74.885  1.00  0.00     0.000 HD 
HETATM   11  C   UNK A   0      -9.086   7.591  70.946  1.00  0.00    -0.153 C  
HETATM   12  O   UNK A   0     -12.477   6.592  70.595  1.00  0.00    -0.289 OA 
HETATM   13  C   UNK A   0     -10.175   7.196  70.232  1.00  0.00    -0.198 C  
HETATM   14  H1  UNK A   0      -9.182   7.510  74.792  1.00  0.00     0.000 HD 
HETATM   15  C   UNK A   0     -11.353   6.775  71.053  1.00  0.00    -0.309 C  
HETATM   16  N   UNK A   0      -9.026   7.588  72.318  1.00  0.00    -0.130 NA 
HETATM   17  N   UNK A   0     -10.021   7.145  74.342  1.00  0.00    -0.441 NA 
HETATM   18  N   UNK A   0     -11.145   6.656  72.392  1.00  0.00    -0.249 N  
ENDROOT
BRANCH   4  19
HETATM   19  C   UNK A   0      -8.949   7.864  66.626  1.00  0.00    -0.151 C  
BRANCH  19  20
HETATM   20  N   UNK A   0      -9.677   8.902  65.877  1.00  0.00    -0.423 NA 
HETATM   21  H   UNK A   0     -10.197   8.680  65.029  1.00  0.00     0.000 HD 
BRANCH  20  22
HETATM   22  C   UNK A   0      -9.624  10.207  66.380  1.00  0.00    -0.191 A  
HETATM   23  C   UNK A   0     -10.703  11.945  67.705  1.00  0.00    -0.243 A  
HETATM   24  C   UNK A   0      -9.526  12.701  67.675  1.00  0.00    -0.189 A  
HETATM   25  C   UNK A   0      -8.501  11.035  66.258  1.00  0.00    -0.165 A  
HETATM   26  C   UNK A   0     -10.748  10.708  67.049  1.00  0.00    -0.317 A  
HETATM   27  C   UNK A   0      -8.444  12.268  66.905  1.00  0.00    -0.159 A  
BRANCH  24  28
HETATM   28  C   UNK A   0      -9.430  13.954  68.460  1.00  0.00    -0.174 C  
ATOM     29  H   GLU A   1     -11.437  13.784  69.045  1.00  0.00     0.000 HD 
ATOM     30  N   GLU A   1     -10.605  14.373  69.072  1.00  0.00    -0.244 N  
HETATM   31  O   UNK A   0      -8.380  14.580  68.522  1.00  0.00    -0.149 OA 
BRANCH  30  32
ATOM     32  CA  GLU A   1     -10.640  15.677  69.761  1.00  0.00    -0.304 C  
ATOM     33  C   GLU A   1     -11.758  15.665  70.821  1.00  0.00    -0.375 C  
ATOM     34  O   GLU A   1     -12.740  14.770  70.547  1.00  0.00    -0.344 OA 
ATOM     35  OXT GLU A   1     -11.853  16.476  71.732  1.00  0.00    -0.423 OA 
BRANCH  32  36
ATOM     36  CB  GLU A   1     -10.888  16.807  68.750  1.00  0.00    -0.318 C  
BRANCH  36  37
ATOM     37  CG  GLU A   1      -9.769  17.853  68.734  1.00  0.00    -0.326 C  
ATOM     38  CD  GLU A   1     -10.076  19.015  67.824  1.00  0.00    -0.379 C  
ATOM     39  OE2 GLU A   1     -11.088  19.131  67.150  1.00  0.00    -0.396 OA 
ATOM     40  OE1 GLU A   1      -9.096  19.946  67.838  1.00  0.00    -0.321 OA 
ENDBRANCH  36  37
ENDBRANCH  32  36
ENDBRANCH  30  32
ENDBRANCH  24  28
ENDBRANCH  20  22
ENDBRANCH  19  20
ENDBRANCH   4  19
TORSDOF 7
ENDMDL
MODEL       91
REMARK 921   NORMALIZED FREE ENERGY PREDICTED BY IDOCK:   -6.10 KCAL/MOL
REMARK 922        TOTAL FREE ENERGY PREDICTED BY IDOCK:   -9.86 KCAL/MOL
REMARK 923 INTER-LIGAND FREE ENERGY PREDICTED BY IDOCK:   -9.39 KCAL/MOL
REMARK 924 INTRA-LIGAND FREE ENERGY PREDICTED BY IDOCK:   -0.48 KCAL/MOL
REMARK 927      BINDING AFFINITY PREDICTED BY RF-SCORE:    0.00 PKD
ROOT
HETATM    1  C   UNK A   0     -10.915  16.700  69.650  1.00  0.00    -0.221 C  
HETATM    2  N   UNK A   0     -10.565  16.638  68.308  1.00  0.00    -0.321 N  
HETATM    3  O   UNK A   0     -11.622  15.903  70.259  1.00  0.00    -0.320 OA 
HETATM    4  C   UNK A   0     -11.049  15.519  67.418  1.00  0.00    -0.285 C  
HETATM    5  C   UNK A   0      -9.874  15.041  66.535  1.00  0.00    -0.260 C  
HETATM    6  C   UNK A   0      -8.129  19.455  66.416  1.00  0.00    -0.318 C  
HETATM    7  H   UNK A   0      -8.261  20.594  68.117  1.00  0.00     0.000 HD 
HETATM    8  N   UNK A   0      -9.337  16.193  65.831  1.00  0.00    -0.405 NA 
HETATM    9  H   UNK A   0      -9.078  16.104  64.848  1.00  0.00     0.000 HD 
HETATM   10  H2  UNK A   0      -7.171  21.292  66.255  1.00  0.00     0.000 HD 
HETATM   11  C   UNK A   0      -9.171  17.410  66.472  1.00  0.00    -0.266 C  
HETATM   12  O   UNK A   0     -10.138  19.418  69.238  1.00  0.00    -0.378 OA 
HETATM   13  C   UNK A   0      -9.764  17.623  67.678  1.00  0.00    -0.277 C  
HETATM   14  H1  UNK A   0      -7.015  20.171  64.880  1.00  0.00     0.000 HD 
HETATM   15  C   UNK A   0      -9.523  18.974  68.273  1.00  0.00    -0.348 C  
HETATM   16  N   UNK A   0      -8.379  18.332  65.833  1.00  0.00    -0.498 NA 
HETATM   17  N   UNK A   0      -7.373  20.398  65.808  1.00  0.00    -0.502 NA 
HETATM   18  N   UNK A   0      -8.603  19.756  67.646  1.00  0.00    -0.318 N  
ENDROOT
BRANCH   4  19
HETATM   19  C   UNK A   0     -11.709  14.310  68.116  1.00  0.00    -0.350 C  
BRANCH  19  20
HETATM   20  N   UNK A   0     -11.152  13.031  67.646  1.00  0.00    -0.257 NA 
HETATM   21  H   UNK A   0     -10.936  12.875  66.661  1.00  0.00     0.000 HD 
BRANCH  20  22
HETATM   22  C   UNK A   0     -10.932  12.038  68.607  1.00  0.00    -0.240 A  
HETATM   23  C   UNK A   0     -11.823  10.750  70.474  1.00  0.00    -0.453 A  
HETATM   24  C   UNK A   0     -10.725   9.887  70.404  1.00  0.00    -0.379 A  
HETATM   25  C   UNK A   0      -9.784  11.237  68.638  1.00  0.00    -0.200 A  
HETATM   26  C   UNK A   0     -11.915  11.827  69.582  1.00  0.00    -0.378 A  
HETATM   27  C   UNK A   0      -9.680  10.164  69.521  1.00  0.00    -0.251 A  
BRANCH  24  28
HETATM   28  C   UNK A   0     -10.675   8.681  71.265  1.00  0.00    -0.254 C  
ATOM     29  H   GLU A   1      -8.610   8.498  70.953  1.00  0.00     0.000 HD 
ATOM     30  N   GLU A   1      -9.434   8.067  71.373  1.00  0.00    -0.150 N  
HETATM   31  O   UNK A   0     -11.685   8.254  71.810  1.00  0.00    -0.270 OA 
BRANCH  30  32
ATOM     32  CA  GLU A   1      -9.316   6.788  72.097  1.00  0.00    -0.140 C  
ATOM     33  C   GLU A   1      -7.876   6.628  72.620  1.00  0.00    -0.101 C  
ATOM     34  O   GLU A   1      -6.969   7.339  71.905  1.00  0.00    -0.059 OA 
ATOM     35  OXT GLU A   1      -7.541   5.828  73.483  1.00  0.00    -0.100 OA 
BRANCH  32  36
ATOM     36  CB  GLU A   1      -9.669   5.616  71.168  1.00  0.00    -0.218 C  
BRANCH  36  37
ATOM     37  CG  GLU A   1      -9.819   4.285  71.913  1.00  0.00    -0.248 C  
ATOM     38  CD  GLU A   1     -10.940   4.310  72.920  1.00  0.00    -0.112 C  
ATOM     39  OE2 GLU A   1     -11.656   5.271  73.151  1.00  0.00    -0.297 OA 
ATOM     40  OE1 GLU A   1     -11.082   3.122  73.553  1.00  0.00    -0.213 OA 
ENDBRANCH  36  37
ENDBRANCH  32  36
ENDBRANCH  30  32
ENDBRANCH  24  28
ENDBRANCH  20  22
ENDBRANCH  19  20
ENDBRANCH   4  19
TORSDOF 7
ENDMDL
MODEL       92
REMARK 921   NORMALIZED FREE ENERGY PREDICTED BY IDOCK:   -6.08 KCAL/MOL
REMARK 922        TOTAL FREE ENERGY PREDICTED BY IDOCK:   -9.83 KCAL/MOL
REMARK 923 INTER-LIGAND FREE ENERGY PREDICTED BY IDOCK:   -8.38 KCAL/MOL
REMARK 924 INTRA-LIGAND FREE ENERGY PREDICTED BY IDOCK:   -1.45 KCAL/MOL
REMARK 927      BINDING AFFINITY PREDICTED BY RF-SCORE:    0.00 PKD
ROOT
HETATM    1  C   UNK A   0      -8.279  15.069  68.158  1.00  0.00    -0.140 C  
HETATM    2  N   UNK A   0      -8.949  16.284  68.109  1.00  0.00    -0.185 N  
HETATM    3  O   UNK A   0      -8.608  14.077  68.802  1.00  0.00    -0.133 OA 
HETATM    4  C   UNK A   0     -10.221  16.514  68.888  1.00  0.00    -0.268 C  
HETATM    5  C   UNK A   0     -11.231  17.259  67.985  1.00  0.00     0.094 C  
HETATM    6  C   UNK A   0      -7.668  19.548  65.838  1.00  0.00    -0.275 C  
HETATM    7  H   UNK A   0      -5.930  18.518  65.484  1.00  0.00     0.000 HD 
HETATM    8  N   UNK A   0     -10.592  18.465  67.488  1.00  0.00    -0.424 NA 
HETATM    9  H   UNK A   0     -11.122  19.336  67.453  1.00  0.00     0.000 HD 
HETATM   10  H2  UNK A   0      -6.274  20.633  64.744  1.00  0.00     0.000 HD 
HETATM   11  C   UNK A   0      -9.275  18.453  67.059  1.00  0.00    -0.274 C  
HETATM   12  O   UNK A   0      -6.167  16.737  67.198  1.00  0.00    -0.149 OA 
HETATM   13  C   UNK A   0      -8.478  17.390  67.357  1.00  0.00    -0.206 C  
HETATM   14  H1  UNK A   0      -7.867  21.385  65.003  1.00  0.00     0.000 HD 
HETATM   15  C   UNK A   0      -7.074  17.488  66.852  1.00  0.00    -0.190 C  
HETATM   16  N   UNK A   0      -8.862  19.537  66.326  1.00  0.00    -0.362 NA 
HETATM   17  N   UNK A   0      -7.217  20.609  65.131  1.00  0.00    -0.506 NA 
HETATM   18  N   UNK A   0      -6.806  18.520  66.007  1.00  0.00    -0.247 N  
ENDROOT
BRANCH   4  19
HETATM   19  C   UNK A   0     -10.891  15.270  69.512  1.00  0.00    -0.271 C  
BRANCH  19  20
HETATM   20  N   UNK A   0     -11.936  14.711  68.638  1.00  0.00    -0.510 NA 
HETATM   21  H   UNK A   0     -12.803  15.215  68.457  1.00  0.00     0.000 HD 
BRANCH  20  22
HETATM   22  C   UNK A   0     -11.687  13.458  68.067  1.00  0.00    -0.356 A  
HETATM   23  C   UNK A   0     -11.061  12.191  66.080  1.00  0.00    -0.354 A  
HETATM   24  C   UNK A   0     -10.897  11.044  66.862  1.00  0.00    -0.324 A  
HETATM   25  C   UNK A   0     -11.636  12.269  68.806  1.00  0.00    -0.380 A  
HETATM   26  C   UNK A   0     -11.465  13.389  66.686  1.00  0.00    -0.376 A  
HETATM   27  C   UNK A   0     -11.237  11.072  68.216  1.00  0.00    -0.340 A  
BRANCH  24  28
HETATM   28  C   UNK A   0     -10.360   9.804  66.253  1.00  0.00    -0.165 C  
ATOM     29  H   GLU A   1     -11.072   8.661  67.861  1.00  0.00     0.000 HD 
ATOM     30  N   GLU A   1     -10.526   8.644  66.999  1.00  0.00    -0.300 N  
HETATM   31  O   UNK A   0      -9.782   9.831  65.175  1.00  0.00    -0.294 OA 
BRANCH  30  32
ATOM     32  CA  GLU A   1      -9.907   7.387  66.537  1.00  0.00    -0.139 C  
ATOM     33  C   GLU A   1     -10.644   6.192  67.170  1.00  0.00    -0.305 C  
ATOM     34  O   GLU A   1     -11.270   6.507  68.332  1.00  0.00    -0.283 OA 
ATOM     35  OXT GLU A   1     -10.555   5.038  66.772  1.00  0.00    -0.252 OA 
BRANCH  32  36
ATOM     36  CB  GLU A   1      -8.421   7.352  66.926  1.00  0.00    -0.123 C  
BRANCH  36  37
ATOM     37  CG  GLU A   1      -8.185   7.628  68.414  1.00  0.00    -0.125 C  
ATOM     38  CD  GLU A   1      -7.446   8.921  68.652  1.00  0.00    -0.088 C  
ATOM     39  OE2 GLU A   1      -7.054   9.677  67.778  1.00  0.00    -0.079 OA 
ATOM     40  OE1 GLU A   1      -7.266   9.169  69.969  1.00  0.00    -0.054 OA 
ENDBRANCH  36  37
ENDBRANCH  32  36
ENDBRANCH  30  32
ENDBRANCH  24  28
ENDBRANCH  20  22
ENDBRANCH  19  20
ENDBRANCH   4  19
TORSDOF 7
ENDMDL
MODEL       93
REMARK 921   NORMALIZED FREE ENERGY PREDICTED BY IDOCK:   -6.07 KCAL/MOL
REMARK 922        TOTAL FREE ENERGY PREDICTED BY IDOCK:   -9.82 KCAL/MOL
REMARK 923 INTER-LIGAND FREE ENERGY PREDICTED BY IDOCK:   -8.86 KCAL/MOL
REMARK 924 INTRA-LIGAND FREE ENERGY PREDICTED BY IDOCK:   -0.95 KCAL/MOL
REMARK 927      BINDING AFFINITY PREDICTED BY RF-SCORE:    0.00 PKD
ROOT
HETATM    1  C   UNK A   0      -7.486  10.043  66.414  1.00  0.00    -0.104 C  
HETATM    2  N   UNK A   0      -8.792   9.727  66.759  1.00  0.00    -0.137 N  
HETATM    3  O   UNK A   0      -6.932  11.129  66.562  1.00  0.00    -0.138 OA 
HETATM    4  C   UNK A   0      -9.711  10.747  67.387  1.00  0.00    -0.171 C  
HETATM    5  C   UNK A   0     -10.487  10.074  68.543  1.00  0.00    -0.202 C  
HETATM    6  C   UNK A   0     -10.493   5.955  66.181  1.00  0.00     0.098 C  
HETATM    7  H   UNK A   0      -8.819   5.453  65.108  1.00  0.00     0.000 HD 
HETATM    8  N   UNK A   0     -11.152   8.895  68.017  1.00  0.00    -0.468 NA 
HETATM    9  H   UNK A   0     -12.108   8.687  68.306  1.00  0.00     0.000 HD 
HETATM   10  H2  UNK A   0     -10.587   4.053  65.349  1.00  0.00     0.000 HD 
HETATM   11  C   UNK A   0     -10.509   8.046  67.130  1.00  0.00    -0.338 C  
HETATM   12  O   UNK A   0      -7.852   7.718  64.795  1.00  0.00    -0.115 OA 
HETATM   13  C   UNK A   0      -9.360   8.449  66.524  1.00  0.00    -0.201 C  
HETATM   14  H1  UNK A   0     -11.934   4.546  66.405  1.00  0.00     0.000 HD 
HETATM   15  C   UNK A   0      -8.758   7.456  65.581  1.00  0.00    -0.075 C  
HETATM   16  N   UNK A   0     -11.085   6.814  66.939  1.00  0.00    -0.667 NA 
HETATM   17  N   UNK A   0     -11.042   4.740  65.949  1.00  0.00    -0.792 NA 
HETATM   18  N   UNK A   0      -9.311   6.213  65.578  1.00  0.00    -0.366 N  
ENDROOT
BRANCH   4  19
HETATM   19  C   UNK A   0      -9.061  12.058  67.881  1.00  0.00    -0.183 C  
BRANCH  19  20
HETATM   20  N   UNK A   0     -10.069  13.073  68.230  1.00  0.00    -0.236 NA 
HETATM   21  H   UNK A   0     -10.963  12.814  68.647  1.00  0.00     0.000 HD 
BRANCH  20  22
HETATM   22  C   UNK A   0      -9.747  14.409  67.967  1.00  0.00    -0.221 A  
HETATM   23  C   UNK A   0      -8.540  15.995  66.563  1.00  0.00    -0.344 A  
HETATM   24  C   UNK A   0      -9.236  17.053  67.158  1.00  0.00    -0.242 A  
HETATM   25  C   UNK A   0     -10.338  15.490  68.632  1.00  0.00    -0.219 A  
HETATM   26  C   UNK A   0      -8.792  14.681  66.979  1.00  0.00    -0.262 A  
HETATM   27  C   UNK A   0     -10.095  16.802  68.230  1.00  0.00    -0.274 A  
BRANCH  24  28
HETATM   28  C   UNK A   0      -9.062  18.433  66.648  1.00  0.00    -0.297 C  
ATOM     29  H   GLU A   1      -7.023  18.087  66.301  1.00  0.00     0.000 HD 
ATOM     30  N   GLU A   1      -7.766  18.786  66.292  1.00  0.00    -0.272 N  
HETATM   31  O   UNK A   0     -10.009  19.206  66.584  1.00  0.00    -0.327 OA 
BRANCH  30  32
ATOM     32  CA  GLU A   1      -7.472  20.178  65.902  1.00  0.00    -0.261 C  
ATOM     33  C   GLU A   1      -6.531  20.179  64.682  1.00  0.00    -0.238 C  
ATOM     34  O   GLU A   1      -5.794  19.045  64.579  1.00  0.00    -0.268 OA 
ATOM     35  OXT GLU A   1      -6.337  21.149  63.963  1.00  0.00    -0.316 OA 
BRANCH  32  36
ATOM     36  CB  GLU A   1      -6.816  20.930  67.070  1.00  0.00    -0.398 C  
BRANCH  36  37
ATOM     37  CG  GLU A   1      -5.893  20.042  67.911  1.00  0.00    -0.232 C  
ATOM     38  CD  GLU A   1      -6.514  19.644  69.226  1.00  0.00    -0.330 C  
ATOM     39  OE2 GLU A   1      -7.620  19.987  69.613  1.00  0.00    -0.043 OA 
ATOM     40  OE1 GLU A   1      -5.703  18.839  69.949  1.00  0.00    -0.228 OA 
ENDBRANCH  36  37
ENDBRANCH  32  36
ENDBRANCH  30  32
ENDBRANCH  24  28
ENDBRANCH  20  22
ENDBRANCH  19  20
ENDBRANCH   4  19
TORSDOF 7
ENDMDL
MODEL       94
REMARK 921   NORMALIZED FREE ENERGY PREDICTED BY IDOCK:   -6.06 KCAL/MOL
REMARK 922        TOTAL FREE ENERGY PREDICTED BY IDOCK:   -9.80 KCAL/MOL
REMARK 923 INTER-LIGAND FREE ENERGY PREDICTED BY IDOCK:   -9.30 KCAL/MOL
REMARK 924 INTRA-LIGAND FREE ENERGY PREDICTED BY IDOCK:   -0.51 KCAL/MOL
REMARK 927      BINDING AFFINITY PREDICTED BY RF-SCORE:    0.00 PKD
ROOT
HETATM    1  C   UNK A   0      -8.229   9.141  69.170  1.00  0.00    -0.117 C  
HETATM    2  N   UNK A   0      -8.996   7.985  69.137  1.00  0.00    -0.145 N  
HETATM    3  O   UNK A   0      -7.210   9.361  68.522  1.00  0.00    -0.070 OA 
HETATM    4  C   UNK A   0      -8.630   6.820  68.250  1.00  0.00    -0.124 C  
HETATM    5  C   UNK A   0      -9.914   6.285  67.574  1.00  0.00    -0.134 C  
HETATM    6  C   UNK A   0     -12.451   7.433  71.421  1.00  0.00    -0.368 C  
HETATM    7  H   UNK A   0     -11.979   9.166  72.410  1.00  0.00     0.000 HD 
HETATM    8  N   UNK A   0     -10.881   5.981  68.615  1.00  0.00    -0.303 NA 
HETATM    9  H   UNK A   0     -11.438   5.129  68.548  1.00  0.00     0.000 HD 
HETATM   10  H2  UNK A   0     -13.758   7.879  72.974  1.00  0.00     0.000 HD 
HETATM   11  C   UNK A   0     -11.061   6.829  69.696  1.00  0.00    -0.292 C  
HETATM   12  O   UNK A   0      -9.634   9.437  71.640  1.00  0.00    -0.260 OA 
HETATM   13  C   UNK A   0     -10.148   7.806  69.946  1.00  0.00    -0.203 C  
HETATM   14  H1  UNK A   0     -14.145   6.461  71.968  1.00  0.00     0.000 HD 
HETATM   15  C   UNK A   0     -10.439   8.656  71.142  1.00  0.00    -0.227 C  
HETATM   16  N   UNK A   0     -12.193   6.628  70.446  1.00  0.00    -0.523 NA 
HETATM   17  N   UNK A   0     -13.544   7.253  72.198  1.00  0.00    -0.533 NA 
HETATM   18  N   UNK A   0     -11.656   8.483  71.724  1.00  0.00    -0.290 N  
ENDROOT
BRANCH   4  19
HETATM   19  C   UNK A   0      -7.541   7.072  67.185  1.00  0.00    -0.107 C  
BRANCH  19  20
HETATM   20  N   UNK A   0      -8.087   7.035  65.819  1.00  0.00    -0.116 NA 
HETATM   21  H   UNK A   0      -8.062   6.183  65.258  1.00  0.00     0.000 HD 
BRANCH  20  22
HETATM   22  C   UNK A   0      -8.644   8.219  65.322  1.00  0.00    -0.132 A  
HETATM   23  C   UNK A   0     -10.249  10.026  65.635  1.00  0.00    -0.258 A  
HETATM   24  C   UNK A   0      -9.658  10.735  64.585  1.00  0.00    -0.320 A  
HETATM   25  C   UNK A   0      -8.150   8.890  64.196  1.00  0.00    -0.160 A  
HETATM   26  C   UNK A   0      -9.745   8.768  65.991  1.00  0.00    -0.276 A  
HETATM   27  C   UNK A   0      -8.643  10.140  63.831  1.00  0.00    -0.197 A  
BRANCH  24  28
HETATM   28  C   UNK A   0     -10.108  12.113  64.276  1.00  0.00    -0.290 C  
ATOM     29  H   GLU A   1     -10.066  12.622  66.310  1.00  0.00     0.000 HD 
ATOM     30  N   GLU A   1     -10.312  12.941  65.373  1.00  0.00    -0.293 N  
HETATM   31  O   UNK A   0     -10.311  12.466  63.122  1.00  0.00    -0.302 OA 
BRANCH  30  32
ATOM     32  CA  GLU A   1     -10.888  14.284  65.173  1.00  0.00    -0.378 C  
ATOM     33  C   GLU A   1      -9.848  15.350  65.566  1.00  0.00    -0.324 C  
ATOM     34  O   GLU A   1      -8.928  14.893  66.451  1.00  0.00    -0.270 OA 
ATOM     35  OXT GLU A   1      -9.918  16.530  65.251  1.00  0.00    -0.531 OA 
BRANCH  32  36
ATOM     36  CB  GLU A   1     -12.157  14.451  66.023  1.00  0.00    -0.370 C  
BRANCH  36  37
ATOM     37  CG  GLU A   1     -12.138  13.602  67.298  1.00  0.00    -0.385 C  
ATOM     38  CD  GLU A   1     -11.892  14.424  68.537  1.00  0.00    -0.334 C  
ATOM     39  OE2 GLU A   1     -11.709  15.631  68.555  1.00  0.00    -0.371 OA 
ATOM     40  OE1 GLU A   1     -11.905  13.670  69.660  1.00  0.00    -0.297 OA 
ENDBRANCH  36  37
ENDBRANCH  32  36
ENDBRANCH  30  32
ENDBRANCH  24  28
ENDBRANCH  20  22
ENDBRANCH  19  20
ENDBRANCH   4  19
TORSDOF 7
ENDMDL
MODEL       95
REMARK 921   NORMALIZED FREE ENERGY PREDICTED BY IDOCK:   -6.05 KCAL/MOL
REMARK 922        TOTAL FREE ENERGY PREDICTED BY IDOCK:   -9.79 KCAL/MOL
REMARK 923 INTER-LIGAND FREE ENERGY PREDICTED BY IDOCK:   -8.73 KCAL/MOL
REMARK 924 INTRA-LIGAND FREE ENERGY PREDICTED BY IDOCK:   -1.07 KCAL/MOL
REMARK 927      BINDING AFFINITY PREDICTED BY RF-SCORE:    0.00 PKD
ROOT
HETATM    1  C   UNK A   0     -12.211  13.278  64.049  1.00  0.00    -0.410 C  
HETATM    2  N   UNK A   0     -11.016  13.551  64.700  1.00  0.00    -0.366 N  
HETATM    3  O   UNK A   0     -12.590  12.184  63.643  1.00  0.00    -0.623 OA 
HETATM    4  C   UNK A   0     -10.009  12.464  64.988  1.00  0.00    -0.197 C  
HETATM    5  C   UNK A   0      -9.475  12.648  66.427  1.00  0.00    -0.231 C  
HETATM    6  C   UNK A   0      -9.911  17.358  66.019  1.00  0.00    -0.183 C  
HETATM    7  H   UNK A   0     -11.529  18.095  64.995  1.00  0.00     0.000 HD 
HETATM    8  N   UNK A   0      -8.964  14.002  66.552  1.00  0.00    -0.459 NA 
HETATM    9  H   UNK A   0      -8.089  14.164  67.051  1.00  0.00     0.000 HD 
HETATM   10  H2  UNK A   0     -10.050  19.431  66.076  1.00  0.00     0.000 HD 
HETATM   11  C   UNK A   0      -9.646  15.078  66.006  1.00  0.00    -0.325 C  
HETATM   12  O   UNK A   0     -12.072  16.100  63.621  1.00  0.00    -0.800 OA 
HETATM   13  C   UNK A   0     -10.646  14.857  65.110  1.00  0.00    -0.428 C  
HETATM   14  H1  UNK A   0      -8.752  18.676  67.034  1.00  0.00     0.000 HD 
HETATM   15  C   UNK A   0     -11.306  16.090  64.580  1.00  0.00    -0.295 C  
HETATM   16  N   UNK A   0      -9.264  16.324  66.437  1.00  0.00    -0.273 NA 
HETATM   17  N   UNK A   0      -9.550  18.604  66.402  1.00  0.00    -0.343 NA 
HETATM   18  N   UNK A   0     -10.968  17.263  65.181  1.00  0.00    -0.097 N  
ENDROOT
BRANCH   4  19
HETATM   19  C   UNK A   0     -10.480  11.007  64.783  1.00  0.00    -0.316 C  
BRANCH  19  20
HETATM   20  N   UNK A   0      -9.360  10.054  64.842  1.00  0.00    -0.245 NA 
HETATM   21  H   UNK A   0      -8.624  10.052  64.136  1.00  0.00     0.000 HD 
BRANCH  20  22
HETATM   22  C   UNK A   0      -9.347   9.149  65.910  1.00  0.00    -0.243 A  
HETATM   23  C   UNK A   0      -8.023   7.767  67.418  1.00  0.00    -0.119 A  
HETATM   24  C   UNK A   0      -9.153   7.546  68.211  1.00  0.00    -0.132 A  
HETATM   25  C   UNK A   0     -10.488   8.813  66.649  1.00  0.00    -0.240 A  
HETATM   26  C   UNK A   0      -8.129   8.558  66.267  1.00  0.00    -0.107 A  
HETATM   27  C   UNK A   0     -10.397   8.026  67.795  1.00  0.00    -0.294 A  
BRANCH  24  28
HETATM   28  C   UNK A   0      -9.028   6.807  69.490  1.00  0.00    -0.139 C  
ATOM     29  H   GLU A   1     -10.283   8.184  70.452  1.00  0.00     0.000 HD 
ATOM     30  N   GLU A   1      -9.683   7.369  70.578  1.00  0.00    -0.176 N  
HETATM   31  O   UNK A   0      -8.356   5.786  69.564  1.00  0.00    -0.109 OA 
BRANCH  30  32
ATOM     32  CA  GLU A   1      -9.504   6.779  71.919  1.00  0.00    -0.145 C  
ATOM     33  C   GLU A   1     -10.884   6.557  72.567  1.00  0.00    -0.239 C  
ATOM     34  O   GLU A   1     -11.842   7.378  72.071  1.00  0.00    -0.284 OA 
ATOM     35  OXT GLU A   1     -11.081   5.838  73.537  1.00  0.00    -0.233 OA 
BRANCH  32  36
ATOM     36  CB  GLU A   1      -8.654   7.708  72.799  1.00  0.00    -0.177 C  
BRANCH  36  37
ATOM     37  CG  GLU A   1      -7.152   7.585  72.524  1.00  0.00    -0.071 C  
ATOM     38  CD  GLU A   1      -6.626   8.714  71.674  1.00  0.00    -0.074 C  
ATOM     39  OE2 GLU A   1      -7.298   9.630  71.228  1.00  0.00    -0.322 OA 
ATOM     40  OE1 GLU A   1      -5.294   8.612  71.459  1.00  0.00    -0.033 OA 
ENDBRANCH  36  37
ENDBRANCH  32  36
ENDBRANCH  30  32
ENDBRANCH  24  28
ENDBRANCH  20  22
ENDBRANCH  19  20
ENDBRANCH   4  19
TORSDOF 7
ENDMDL
MODEL       96
REMARK 921   NORMALIZED FREE ENERGY PREDICTED BY IDOCK:   -6.04 KCAL/MOL
REMARK 922        TOTAL FREE ENERGY PREDICTED BY IDOCK:   -9.78 KCAL/MOL
REMARK 923 INTER-LIGAND FREE ENERGY PREDICTED BY IDOCK:   -8.72 KCAL/MOL
REMARK 924 INTRA-LIGAND FREE ENERGY PREDICTED BY IDOCK:   -1.06 KCAL/MOL
REMARK 927      BINDING AFFINITY PREDICTED BY RF-SCORE:    0.00 PKD
ROOT
HETATM    1  C   UNK A   0      -9.690  10.742  68.414  1.00  0.00    -0.174 C  
HETATM    2  N   UNK A   0      -9.652  10.111  69.649  1.00  0.00    -0.303 N  
HETATM    3  O   UNK A   0      -8.730  10.997  67.692  1.00  0.00    -0.127 OA 
HETATM    4  C   UNK A   0      -8.351   9.649  70.259  1.00  0.00    -0.186 C  
HETATM    5  C   UNK A   0      -8.556   8.240  70.861  1.00  0.00    -0.137 C  
HETATM    6  C   UNK A   0     -13.047   9.325  71.955  1.00  0.00    -0.415 C  
HETATM    7  H   UNK A   0     -14.112  10.479  70.635  1.00  0.00     0.000 HD 
HETATM    8  N   UNK A   0      -9.676   8.298  71.784  1.00  0.00    -0.191 NA 
HETATM    9  H   UNK A   0      -9.617   7.809  72.676  1.00  0.00     0.000 HD 
HETATM   10  H2  UNK A   0     -15.040   9.568  72.493  1.00  0.00     0.000 HD 
HETATM   11  C   UNK A   0     -10.825   9.007  71.471  1.00  0.00    -0.346 C  
HETATM   12  O   UNK A   0     -12.225  11.566  69.443  1.00  0.00    -0.289 OA 
HETATM   13  C   UNK A   0     -10.814   9.884  70.430  1.00  0.00    -0.319 C  
HETATM   14  H1  UNK A   0     -14.051   8.483  73.502  1.00  0.00     0.000 HD 
HETATM   15  C   UNK A   0     -12.105  10.599  70.189  1.00  0.00    -0.333 C  
HETATM   16  N   UNK A   0     -11.930   8.750  72.244  1.00  0.00    -0.364 NA 
HETATM   17  N   UNK A   0     -14.151   9.116  72.708  1.00  0.00    -1.013 NA 
HETATM   18  N   UNK A   0     -13.179  10.164  70.902  1.00  0.00    -0.513 N  
ENDROOT
BRANCH   4  19
HETATM   19  C   UNK A   0      -7.111   9.654  69.340  1.00  0.00    -0.062 C  
BRANCH  19  20
HETATM   20  N   UNK A   0      -6.048  10.535  69.854  1.00  0.00    -0.066 NA 
HETATM   21  H   UNK A   0      -5.359  10.200  70.527  1.00  0.00     0.000 HD 
BRANCH  20  22
HETATM   22  C   UNK A   0      -6.025  11.851  69.379  1.00  0.00    -0.084 A  
HETATM   23  C   UNK A   0      -5.854  13.342  67.459  1.00  0.00    -0.026 A  
HETATM   24  C   UNK A   0      -6.234  14.422  68.262  1.00  0.00    -0.120 A  
HETATM   25  C   UNK A   0      -6.281  12.966  70.187  1.00  0.00    -0.026 A  
HETATM   26  C   UNK A   0      -5.742  12.065  68.025  1.00  0.00    -0.055 A  
HETATM   27  C   UNK A   0      -6.394  14.241  69.638  1.00  0.00    -0.136 A  
BRANCH  24  28
HETATM   28  C   UNK A   0      -6.467  15.753  67.651  1.00  0.00    -0.164 C  
ATOM     29  H   GLU A   1      -8.116  16.081  68.905  1.00  0.00     0.000 HD 
ATOM     30  N   GLU A   1      -7.574  16.447  68.121  1.00  0.00    -0.151 N  
HETATM   31  O   UNK A   0      -5.735  16.177  66.767  1.00  0.00    -0.306 OA 
BRANCH  30  32
ATOM     32  CA  GLU A   1      -7.963  17.717  67.480  1.00  0.00    -0.203 C  
ATOM     33  C   GLU A   1      -7.264  18.887  68.197  1.00  0.00    -0.253 C  
ATOM     34  O   GLU A   1      -6.925  18.598  69.479  1.00  0.00    -0.185 OA 
ATOM     35  OXT GLU A   1      -7.159  20.015  67.735  1.00  0.00    -0.262 OA 
BRANCH  32  36
ATOM     36  CB  GLU A   1      -9.487  17.899  67.542  1.00  0.00    -0.258 C  
BRANCH  36  37
ATOM     37  CG  GLU A   1     -10.122  18.114  66.164  1.00  0.00    -0.338 C  
ATOM     38  CD  GLU A   1     -10.356  16.820  65.427  1.00  0.00    -0.146 C  
ATOM     39  OE2 GLU A   1     -10.069  15.710  65.848  1.00  0.00    -0.302 OA 
ATOM     40  OE1 GLU A   1     -10.941  17.017  64.224  1.00  0.00    -0.864 OA 
ENDBRANCH  36  37
ENDBRANCH  32  36
ENDBRANCH  30  32
ENDBRANCH  24  28
ENDBRANCH  20  22
ENDBRANCH  19  20
ENDBRANCH   4  19
TORSDOF 7
ENDMDL
MODEL       97
REMARK 921   NORMALIZED FREE ENERGY PREDICTED BY IDOCK:   -6.00 KCAL/MOL
REMARK 922        TOTAL FREE ENERGY PREDICTED BY IDOCK:   -9.72 KCAL/MOL
REMARK 923 INTER-LIGAND FREE ENERGY PREDICTED BY IDOCK:   -8.81 KCAL/MOL
REMARK 924 INTRA-LIGAND FREE ENERGY PREDICTED BY IDOCK:   -0.91 KCAL/MOL
REMARK 927      BINDING AFFINITY PREDICTED BY RF-SCORE:    0.00 PKD
ROOT
HETATM    1  C   UNK A   0     -11.847  15.519  68.350  1.00  0.00    -0.224 C  
HETATM    2  N   UNK A   0     -11.396  15.643  67.043  1.00  0.00    -0.138 N  
HETATM    3  O   UNK A   0     -11.581  16.263  69.290  1.00  0.00    -0.293 OA 
HETATM    4  C   UNK A   0     -10.484  16.772  66.628  1.00  0.00    -0.258 C  
HETATM    5  C   UNK A   0     -10.969  17.331  65.270  1.00  0.00     0.091 C  
HETATM    6  C   UNK A   0     -12.429  13.002  63.975  1.00  0.00    -0.292 C  
HETATM    7  H   UNK A   0     -13.275  11.799  65.404  1.00  0.00     0.000 HD 
HETATM    8  N   UNK A   0     -11.047  16.229  64.327  1.00  0.00    -1.192 NA 
HETATM    9  H   UNK A   0     -10.719  16.364  63.370  1.00  0.00     0.000 HD 
HETATM   10  H2  UNK A   0     -13.168  11.214  63.216  1.00  0.00     0.000 HD 
HETATM   11  C   UNK A   0     -11.558  14.998  64.704  1.00  0.00    -0.386 C  
HETATM   12  O   UNK A   0     -12.310  12.852  67.434  1.00  0.00    -0.286 OA 
HETATM   13  C   UNK A   0     -11.733  14.716  66.024  1.00  0.00    -0.306 C  
HETATM   14  H1  UNK A   0     -12.522  12.390  62.044  1.00  0.00     0.000 HD 
HETATM   15  C   UNK A   0     -12.283  13.356  66.315  1.00  0.00    -0.398 C  
HETATM   16  N   UNK A   0     -11.881  14.134  63.687  1.00  0.00    -0.724 NA 
HETATM   17  N   UNK A   0     -12.738  12.114  63.002  1.00  0.00    -0.732 NA 
HETATM   18  N   UNK A   0     -12.717  12.637  65.245  1.00  0.00    -0.370 N  
ENDROOT
BRANCH   4  19
HETATM   19  C   UNK A   0     -10.300  17.926  67.637  1.00  0.00    -0.381 C  
BRANCH  19  20
HETATM   20  N   UNK A   0      -8.991  17.867  68.308  1.00  0.00    -0.269 NA 
HETATM   21  H   UNK A   0      -8.592  18.684  68.770  1.00  0.00     0.000 HD 
BRANCH  20  22
HETATM   22  C   UNK A   0      -8.316  16.641  68.284  1.00  0.00    -0.198 A  
HETATM   23  C   UNK A   0      -8.041  14.426  69.264  1.00  0.00     0.092 A  
HETATM   24  C   UNK A   0      -7.239  14.046  68.182  1.00  0.00    -0.129 A  
HETATM   25  C   UNK A   0      -7.412  16.278  67.278  1.00  0.00    -0.212 A  
HETATM   26  C   UNK A   0      -8.566  15.724  69.313  1.00  0.00    -0.259 A  
HETATM   27  C   UNK A   0      -6.881  14.991  67.218  1.00  0.00    -0.038 A  
BRANCH  24  28
HETATM   28  C   UNK A   0      -6.774  12.644  68.063  1.00  0.00    -0.095 C  
ATOM     29  H   GLU A   1      -8.750  11.944  68.125  1.00  0.00     0.000 HD 
ATOM     30  N   GLU A   1      -7.767  11.673  68.108  1.00  0.00    -0.114 N  
HETATM   31  O   UNK A   0      -5.583  12.381  67.964  1.00  0.00    -0.058 OA 
BRANCH  30  32
ATOM     32  CA  GLU A   1      -7.390  10.247  68.132  1.00  0.00    -0.085 C  
ATOM     33  C   GLU A   1      -8.159   9.496  67.029  1.00  0.00    -0.113 C  
ATOM     34  O   GLU A   1      -9.316  10.110  66.676  1.00  0.00    -0.156 OA 
ATOM     35  OXT GLU A   1      -7.860   8.384  66.616  1.00  0.00    -0.092 OA 
BRANCH  32  36
ATOM     36  CB  GLU A   1      -7.710   9.635  69.504  1.00  0.00    -0.109 C  
BRANCH  36  37
ATOM     37  CG  GLU A   1      -9.204   9.360  69.703  1.00  0.00    -0.195 C  
ATOM     38  CD  GLU A   1      -9.554   9.083  71.143  1.00  0.00    -0.286 C  
ATOM     39  OE2 GLU A   1      -8.758   9.059  72.068  1.00  0.00    -0.367 OA 
ATOM     40  OE1 GLU A   1     -10.879   8.868  71.313  1.00  0.00    -0.243 OA 
ENDBRANCH  36  37
ENDBRANCH  32  36
ENDBRANCH  30  32
ENDBRANCH  24  28
ENDBRANCH  20  22
ENDBRANCH  19  20
ENDBRANCH   4  19
TORSDOF 7
ENDMDL
MODEL       98
REMARK 921   NORMALIZED FREE ENERGY PREDICTED BY IDOCK:   -6.00 KCAL/MOL
REMARK 922        TOTAL FREE ENERGY PREDICTED BY IDOCK:   -9.72 KCAL/MOL
REMARK 923 INTER-LIGAND FREE ENERGY PREDICTED BY IDOCK:   -9.07 KCAL/MOL
REMARK 924 INTRA-LIGAND FREE ENERGY PREDICTED BY IDOCK:   -0.65 KCAL/MOL
REMARK 927      BINDING AFFINITY PREDICTED BY RF-SCORE:    0.00 PKD
ROOT
HETATM    1  C   UNK A   0      -9.672  11.349  64.451  1.00  0.00    -0.232 C  
HETATM    2  N   UNK A   0     -10.507  11.051  65.519  1.00  0.00    -0.257 N  
HETATM    3  O   UNK A   0      -9.828  12.247  63.628  1.00  0.00    -0.328 OA 
HETATM    4  C   UNK A   0     -11.759  11.849  65.787  1.00  0.00    -0.139 C  
HETATM    5  C   UNK A   0     -11.861  12.122  67.306  1.00  0.00    -0.223 C  
HETATM    6  C   UNK A   0      -9.791   7.949  68.224  1.00  0.00    -0.169 C  
HETATM    7  H   UNK A   0      -8.278   7.326  66.986  1.00  0.00     0.000 HD 
HETATM    8  N   UNK A   0     -11.787  10.849  68.002  1.00  0.00    -0.759 NA 
HETATM    9  H   UNK A   0     -12.407  10.672  68.792  1.00  0.00     0.000 HD 
HETATM   10  H2  UNK A   0      -8.877   6.192  68.856  1.00  0.00     0.000 HD 
HETATM   11  C   UNK A   0     -10.887   9.870  67.610  1.00  0.00    -0.257 C  
HETATM   12  O   UNK A   0      -8.833   8.669  64.973  1.00  0.00    -0.165 OA 
HETATM   13  C   UNK A   0     -10.262   9.972  66.406  1.00  0.00    -0.221 C  
HETATM   14  H1  UNK A   0     -10.122   6.891  69.922  1.00  0.00     0.000 HD 
HETATM   15  C   UNK A   0      -9.319   8.856  66.084  1.00  0.00    -0.239 C  
HETATM   16  N   UNK A   0     -10.671   8.849  68.502  1.00  0.00    -0.411 NA 
HETATM   17  N   UNK A   0      -9.567   6.914  69.066  1.00  0.00    -0.137 NA 
HETATM   18  N   UNK A   0      -9.054   7.979  67.090  1.00  0.00    -0.134 N  
ENDROOT
BRANCH   4  19
HETATM   19  C   UNK A   0     -11.925  13.169  65.003  1.00  0.00    -0.383 C  
BRANCH  19  20
HETATM   20  N   UNK A   0     -12.281  14.293  65.885  1.00  0.00    -0.420 NA 
HETATM   21  H   UNK A   0     -13.251  14.485  66.136  1.00  0.00     0.000 HD 
BRANCH  20  22
HETATM   22  C   UNK A   0     -11.232  15.085  66.364  1.00  0.00    -0.310 A  
HETATM   23  C   UNK A   0     -10.242  16.262  68.255  1.00  0.00    -0.253 A  
HETATM   24  C   UNK A   0      -9.062  16.443  67.527  1.00  0.00    -0.196 A  
HETATM   25  C   UNK A   0     -10.089  15.387  65.614  1.00  0.00    -0.406 A  
HETATM   26  C   UNK A   0     -11.324  15.593  67.666  1.00  0.00    -0.228 A  
HETATM   27  C   UNK A   0      -9.008  16.053  66.187  1.00  0.00    -0.381 A  
BRANCH  24  28
HETATM   28  C   UNK A   0      -7.875  17.047  68.178  1.00  0.00    -0.196 C  
ATOM     29  H   GLU A   1      -7.912  18.658  66.837  1.00  0.00     0.000 HD 
ATOM     30  N   GLU A   1      -7.399  18.216  67.600  1.00  0.00    -0.211 N  
HETATM   31  O   UNK A   0      -7.347  16.511  69.144  1.00  0.00    -0.217 OA 
BRANCH  30  32
ATOM     32  CA  GLU A   1      -6.145  18.814  68.095  1.00  0.00    -0.212 C  
ATOM     33  C   GLU A   1      -6.443  20.199  68.699  1.00  0.00    -0.306 C  
ATOM     34  O   GLU A   1      -7.568  20.767  68.198  1.00  0.00    -0.042 OA 
ATOM     35  OXT GLU A   1      -5.677  20.810  69.432  1.00  0.00    -0.354 OA 
BRANCH  32  36
ATOM     36  CB  GLU A   1      -5.131  18.949  66.949  1.00  0.00    -0.143 C  
BRANCH  36  37
ATOM     37  CG  GLU A   1      -5.343  20.211  66.107  1.00  0.00    -0.178 C  
ATOM     38  CD  GLU A   1      -6.014  19.920  64.789  1.00  0.00    -0.247 C  
ATOM     39  OE2 GLU A   1      -6.350  18.813  64.401  1.00  0.00    -0.402 OA 
ATOM     40  OE1 GLU A   1      -6.223  21.043  64.065  1.00  0.00    -0.312 OA 
ENDBRANCH  36  37
ENDBRANCH  32  36
ENDBRANCH  30  32
ENDBRANCH  24  28
ENDBRANCH  20  22
ENDBRANCH  19  20
ENDBRANCH   4  19
TORSDOF 7
ENDMDL
MODEL       99
REMARK 921   NORMALIZED FREE ENERGY PREDICTED BY IDOCK:   -5.99 KCAL/MOL
REMARK 922        TOTAL FREE ENERGY PREDICTED BY IDOCK:   -9.71 KCAL/MOL
REMARK 923 INTER-LIGAND FREE ENERGY PREDICTED BY IDOCK:   -8.77 KCAL/MOL
REMARK 924 INTRA-LIGAND FREE ENERGY PREDICTED BY IDOCK:   -0.94 KCAL/MOL
REMARK 927      BINDING AFFINITY PREDICTED BY RF-SCORE:    0.00 PKD
ROOT
HETATM    1  C   UNK A   0     -10.696  16.708  69.870  1.00  0.00    -0.202 C  
HETATM    2  N   UNK A   0     -10.354  16.475  68.545  1.00  0.00    -0.271 N  
HETATM    3  O   UNK A   0     -11.343  15.963  70.601  1.00  0.00    -0.341 OA 
HETATM    4  C   UNK A   0     -10.768  15.209  67.836  1.00  0.00    -0.268 C  
HETATM    5  C   UNK A   0      -9.569  14.686  67.011  1.00  0.00    -0.240 C  
HETATM    6  C   UNK A   0      -8.130  19.141  66.222  1.00  0.00    -0.297 C  
HETATM    7  H   UNK A   0      -8.326  20.504  67.742  1.00  0.00     0.000 HD 
HETATM    8  N   UNK A   0      -9.117  15.756  66.138  1.00  0.00    -0.334 NA 
HETATM    9  H   UNK A   0      -8.860  15.542  65.174  1.00  0.00     0.000 HD 
HETATM   10  H2  UNK A   0      -7.301  20.995  65.781  1.00  0.00     0.000 HD 
HETATM   11  C   UNK A   0      -9.030  17.062  66.592  1.00  0.00    -0.254 C  
HETATM   12  O   UNK A   0     -10.111  19.383  69.055  1.00  0.00    -0.430 OA 
HETATM   13  C   UNK A   0      -9.626  17.409  67.765  1.00  0.00    -0.264 C  
HETATM   14  H1  UNK A   0      -7.079  19.698  64.580  1.00  0.00     0.000 HD 
HETATM   15  C   UNK A   0      -9.474  18.845  68.154  1.00  0.00    -0.332 C  
HETATM   16  N   UNK A   0      -8.307  17.931  65.813  1.00  0.00    -0.466 NA 
HETATM   17  N   UNK A   0      -7.445  20.034  65.471  1.00  0.00    -0.413 NA 
HETATM   18  N   UNK A   0      -8.614  19.586  67.404  1.00  0.00    -0.296 N  
ENDROOT
BRANCH   4  19
HETATM   19  C   UNK A   0     -11.338  14.073  68.713  1.00  0.00    -0.278 C  
BRANCH  19  20
HETATM   20  N   UNK A   0     -11.732  12.903  67.911  1.00  0.00    -0.346 NA 
HETATM   21  H   UNK A   0     -12.242  13.006  67.034  1.00  0.00     0.000 HD 
BRANCH  20  22
HETATM   22  C   UNK A   0     -11.377  11.642  68.404  1.00  0.00    -0.279 A  
HETATM   23  C   UNK A   0     -11.278  10.136  70.318  1.00  0.00    -0.387 A  
HETATM   24  C   UNK A   0     -10.966   9.072  69.466  1.00  0.00    -0.118 A  
HETATM   25  C   UNK A   0     -10.942  10.590  67.589  1.00  0.00    -0.375 A  
HETATM   26  C   UNK A   0     -11.472  11.417  69.783  1.00  0.00    -0.376 A  
HETATM   27  C   UNK A   0     -10.744   9.313  68.108  1.00  0.00    -0.205 A  
BRANCH  24  28
HETATM   28  C   UNK A   0     -10.873   7.694  70.005  1.00  0.00    -0.243 C  
ATOM     29  H   GLU A   1      -9.257   7.267  68.737  1.00  0.00     0.000 HD 
ATOM     30  N   GLU A   1      -9.908   6.882  69.422  1.00  0.00    -0.157 N  
HETATM   31  O   UNK A   0     -11.631   7.310  70.886  1.00  0.00    -0.282 OA 
BRANCH  30  32
ATOM     32  CA  GLU A   1      -9.832   5.458  69.799  1.00  0.00    -0.201 C  
ATOM     33  C   GLU A   1      -8.662   5.250  70.778  1.00  0.00    -0.131 C  
ATOM     34  O   GLU A   1      -7.699   6.199  70.665  1.00  0.00    -0.099 OA 
ATOM     35  OXT GLU A   1      -8.518   4.258  71.479  1.00  0.00    -0.092 OA 
BRANCH  32  36
ATOM     36  CB  GLU A   1      -9.631   4.587  68.549  1.00  0.00    -0.212 C  
BRANCH  36  37
ATOM     37  CG  GLU A   1      -8.709   5.235  67.510  1.00  0.00    -0.106 C  
ATOM     38  CD  GLU A   1      -9.118   4.915  66.095  1.00  0.00    -0.135 C  
ATOM     39  OE2 GLU A   1     -10.064   4.211  65.779  1.00  0.00    -0.209 OA 
ATOM     40  OE1 GLU A   1      -8.315   5.513  65.185  1.00  0.00    -0.135 OA 
ENDBRANCH  36  37
ENDBRANCH  32  36
ENDBRANCH  30  32
ENDBRANCH  24  28
ENDBRANCH  20  22
ENDBRANCH  19  20
ENDBRANCH   4  19
TORSDOF 7
ENDMDL
MODEL      100
REMARK 921   NORMALIZED FREE ENERGY PREDICTED BY IDOCK:   -5.93 KCAL/MOL
REMARK 922        TOTAL FREE ENERGY PREDICTED BY IDOCK:   -9.62 KCAL/MOL
REMARK 923 INTER-LIGAND FREE ENERGY PREDICTED BY IDOCK:   -8.62 KCAL/MOL
REMARK 924 INTRA-LIGAND FREE ENERGY PREDICTED BY IDOCK:   -1.01 KCAL/MOL
REMARK 927      BINDING AFFINITY PREDICTED BY RF-SCORE:    0.00 PKD
ROOT
HETATM    1  C   UNK A   0     -10.953  15.034  65.849  1.00  0.00    -0.343 C  
HETATM    2  N   UNK A   0     -10.949  14.250  66.995  1.00  0.00    -0.298 N  
HETATM    3  O   UNK A   0     -10.767  14.649  64.698  1.00  0.00    -0.393 OA 
HETATM    4  C   UNK A   0     -10.705  12.762  66.931  1.00  0.00    -0.253 C  
HETATM    5  C   UNK A   0     -11.710  12.051  67.866  1.00  0.00    -0.323 C  
HETATM    6  C   UNK A   0     -11.613  15.755  70.835  1.00  0.00    -0.405 C  
HETATM    7  H   UNK A   0     -11.504  17.638  70.029  1.00  0.00     0.000 HD 
HETATM    8  N   UNK A   0     -11.588  12.634  69.191  1.00  0.00    -0.302 NA 
HETATM    9  H   UNK A   0     -11.605  12.026  70.010  1.00  0.00     0.000 HD 
HETATM   10  H2  UNK A   0     -11.752  17.268  72.253  1.00  0.00     0.000 HD 
HETATM   11  C   UNK A   0     -11.449  14.002  69.361  1.00  0.00    -0.290 C  
HETATM   12  O   UNK A   0     -10.540  17.067  67.813  1.00  0.00    -0.341 OA 
HETATM   13  C   UNK A   0     -11.144  14.787  68.292  1.00  0.00    -0.274 C  
HETATM   14  H1  UNK A   0     -11.959  15.595  72.827  1.00  0.00     0.000 HD 
HETATM   15  C   UNK A   0     -11.011  16.246  68.594  1.00  0.00    -0.340 C  
HETATM   16  N   UNK A   0     -11.657  14.482  70.631  1.00  0.00    -0.435 NA 
HETATM   17  N   UNK A   0     -11.788  16.265  72.076  1.00  0.00    -0.593 NA 
HETATM   18  N   UNK A   0     -11.388  16.642  69.840  1.00  0.00    -0.340 N  
ENDROOT
BRANCH   4  19
HETATM   19  C   UNK A   0     -10.736  12.111  65.531  1.00  0.00    -0.283 C  
BRANCH  19  20
HETATM   20  N   UNK A   0      -9.415  11.600  65.132  1.00  0.00    -0.378 NA 
HETATM   21  H   UNK A   0      -8.685  12.223  64.786  1.00  0.00     0.000 HD 
BRANCH  20  22
HETATM   22  C   UNK A   0      -9.202  10.221  65.247  1.00  0.00    -0.199 A  
HETATM   23  C   UNK A   0      -8.000   8.253  64.458  1.00  0.00    -0.146 A  
HETATM   24  C   UNK A   0      -8.477   7.522  65.550  1.00  0.00    -0.129 A  
HETATM   25  C   UNK A   0      -9.765   9.437  66.261  1.00  0.00    -0.330 A  
HETATM   26  C   UNK A   0      -8.374   9.595  64.307  1.00  0.00    -0.169 A  
HETATM   27  C   UNK A   0      -9.403   8.101  66.421  1.00  0.00    -0.269 A  
BRANCH  24  28
HETATM   28  C   UNK A   0      -7.997   6.139  65.781  1.00  0.00    -0.115 C  
ATOM     29  H   GLU A   1      -9.950   5.393  65.606  1.00  0.00     0.000 HD 
ATOM     30  N   GLU A   1      -8.981   5.158  65.822  1.00  0.00    -0.148 N  
HETATM   31  O   UNK A   0      -6.809   5.905  65.956  1.00  0.00    -0.057 OA 
BRANCH  30  32
ATOM     32  CA  GLU A   1      -8.614   3.775  66.180  1.00  0.00    -0.113 C  
ATOM     33  C   GLU A   1      -9.031   2.825  65.041  1.00  0.00    -0.134 C  
ATOM     34  O   GLU A   1     -10.043   3.315  64.283  1.00  0.00    -0.168 OA 
ATOM     35  OXT GLU A   1      -8.617   1.681  64.913  1.00  0.00    -0.089 OA 
BRANCH  32  36
ATOM     36  CB  GLU A   1      -9.308   3.362  67.487  1.00  0.00    -0.248 C  
BRANCH  36  37
ATOM     37  CG  GLU A   1      -9.774   4.560  68.321  1.00  0.00    -0.186 C  
ATOM     38  CD  GLU A   1      -9.634   4.322  69.803  1.00  0.00    -0.209 C  
ATOM     39  OE2 GLU A   1      -9.214   3.295  70.313  1.00  0.00    -0.125 OA 
ATOM     40  OE1 GLU A   1     -10.022   5.394  70.530  1.00  0.00    -0.191 OA 
ENDBRANCH  36  37
ENDBRANCH  32  36
ENDBRANCH  30  32
ENDBRANCH  24  28
ENDBRANCH  20  22
ENDBRANCH  19  20
ENDBRANCH   4  19
TORSDOF 7
ENDMDL
MODEL      101
REMARK 921   NORMALIZED FREE ENERGY PREDICTED BY IDOCK:   -5.92 KCAL/MOL
REMARK 922        TOTAL FREE ENERGY PREDICTED BY IDOCK:   -9.62 KCAL/MOL
REMARK 923 INTER-LIGAND FREE ENERGY PREDICTED BY IDOCK:   -8.62 KCAL/MOL
REMARK 924 INTRA-LIGAND FREE ENERGY PREDICTED BY IDOCK:   -0.99 KCAL/MOL
REMARK 927      BINDING AFFINITY PREDICTED BY RF-SCORE:    0.00 PKD
ROOT
HETATM    1  C   UNK A   0      -7.255   7.718  66.442  1.00  0.00    -0.075 C  
HETATM    2  N   UNK A   0      -8.493   7.092  66.445  1.00  0.00    -0.124 N  
HETATM    3  O   UNK A   0      -7.044   8.922  66.329  1.00  0.00    -0.080 OA 
HETATM    4  C   UNK A   0      -9.774   7.877  66.301  1.00  0.00    -0.100 C  
HETATM    5  C   UNK A   0     -10.809   7.333  67.313  1.00  0.00    -0.284 C  
HETATM    6  C   UNK A   0      -9.002   2.965  66.855  1.00  0.00    -0.158 C  
HETATM    7  H   UNK A   0      -6.970   2.775  66.654  1.00  0.00     0.000 HD 
HETATM    8  N   UNK A   0     -10.942   5.902  67.100  1.00  0.00    -0.494 NA 
HETATM    9  H   UNK A   0     -11.869   5.475  67.124  1.00  0.00     0.000 HD 
HETATM   10  H2  UNK A   0      -8.356   0.990  66.837  1.00  0.00     0.000 HD 
HETATM   11  C   UNK A   0      -9.832   5.106  66.865  1.00  0.00    -0.181 C  
HETATM   12  O   UNK A   0      -6.438   5.052  65.820  1.00  0.00    -0.038 OA 
HETATM   13  C   UNK A   0      -8.641   5.686  66.552  1.00  0.00    -0.119 C  
HETATM   14  H1  UNK A   0     -10.089   1.276  67.130  1.00  0.00     0.000 HD 
HETATM   15  C   UNK A   0      -7.515   4.731  66.312  1.00  0.00    -0.086 C  
HETATM   16  N   UNK A   0     -10.016   3.751  66.989  1.00  0.00    -0.290 NA 
HETATM   17  N   UNK A   0      -9.148   1.623  66.946  1.00  0.00    -0.252 NA 
HETATM   18  N   UNK A   0      -7.754   3.426  66.612  1.00  0.00    -0.080 N  
ENDROOT
BRANCH   4  19
HETATM   19  C   UNK A   0      -9.668   9.412  66.431  1.00  0.00    -0.250 C  
BRANCH  19  20
HETATM   20  N   UNK A   0      -9.916  10.092  65.149  1.00  0.00    -0.325 NA 
HETATM   21  H   UNK A   0      -9.878   9.587  64.263  1.00  0.00     0.000 HD 
BRANCH  20  22
HETATM   22  C   UNK A   0     -10.207  11.460  65.197  1.00  0.00    -0.277 A  
HETATM   23  C   UNK A   0      -9.831  13.605  66.292  1.00  0.00    -0.310 A  
HETATM   24  C   UNK A   0     -10.485  14.257  65.242  1.00  0.00    -0.408 A  
HETATM   25  C   UNK A   0     -10.965  12.121  64.222  1.00  0.00    -0.391 A  
HETATM   26  C   UNK A   0      -9.704  12.209  66.268  1.00  0.00    -0.251 A  
HETATM   27  C   UNK A   0     -11.099  13.508  64.235  1.00  0.00    -0.371 A  
BRANCH  24  28
HETATM   28  C   UNK A   0     -10.524  15.738  65.200  1.00  0.00    -0.366 C  
ATOM     29  H   GLU A   1      -9.076  15.855  66.713  1.00  0.00     0.000 HD 
ATOM     30  N   GLU A   1      -9.716  16.389  66.124  1.00  0.00    -0.309 N  
HETATM   31  O   UNK A   0     -11.254  16.327  64.415  1.00  0.00    -0.716 OA 
BRANCH  30  32
ATOM     32  CA  GLU A   1      -9.790  17.857  66.248  1.00  0.00    -0.301 C  
ATOM     33  C   GLU A   1      -8.399  18.409  66.615  1.00  0.00    -0.265 C  
ATOM     34  O   GLU A   1      -7.613  17.497  67.238  1.00  0.00    -0.189 OA 
ATOM     35  OXT GLU A   1      -8.076  19.584  66.511  1.00  0.00    -0.278 OA 
BRANCH  32  36
ATOM     36  CB  GLU A   1     -10.811  18.249  67.326  1.00  0.00    -0.269 C  
BRANCH  36  37
ATOM     37  CG  GLU A   1     -10.371  17.855  68.740  1.00  0.00    -0.311 C  
ATOM     38  CD  GLU A   1     -11.069  16.616  69.239  1.00  0.00    -0.199 C  
ATOM     39  OE2 GLU A   1     -11.908  15.983  68.616  1.00  0.00    -0.367 OA 
ATOM     40  OE1 GLU A   1     -10.654  16.260  70.476  1.00  0.00    -0.111 OA 
ENDBRANCH  36  37
ENDBRANCH  32  36
ENDBRANCH  30  32
ENDBRANCH  24  28
ENDBRANCH  20  22
ENDBRANCH  19  20
ENDBRANCH   4  19
TORSDOF 7
ENDMDL
MODEL      102
REMARK 921   NORMALIZED FREE ENERGY PREDICTED BY IDOCK:   -5.89 KCAL/MOL
REMARK 922        TOTAL FREE ENERGY PREDICTED BY IDOCK:   -9.57 KCAL/MOL
REMARK 923 INTER-LIGAND FREE ENERGY PREDICTED BY IDOCK:   -9.00 KCAL/MOL
REMARK 924 INTRA-LIGAND FREE ENERGY PREDICTED BY IDOCK:   -0.57 KCAL/MOL
REMARK 927      BINDING AFFINITY PREDICTED BY RF-SCORE:    0.00 PKD
ROOT
HETATM    1  C   UNK A   0     -10.852  17.378  65.105  1.00  0.00     0.142 C  
HETATM    2  N   UNK A   0      -9.923  16.899  66.018  1.00  0.00    -0.311 N  
HETATM    3  O   UNK A   0     -11.521  16.709  64.322  1.00  0.00    -1.075 OA 
HETATM    4  C   UNK A   0      -9.630  15.424  66.144  1.00  0.00    -0.329 C  
HETATM    5  C   UNK A   0      -9.543  15.060  67.644  1.00  0.00    -0.203 C  
HETATM    6  C   UNK A   0      -7.749  19.348  68.612  1.00  0.00    -0.359 C  
HETATM    7  H   UNK A   0      -8.484  20.960  67.579  1.00  0.00     0.000 HD 
HETATM    8  N   UNK A   0      -8.563  15.933  68.267  1.00  0.00    -0.172 NA 
HETATM    9  H   UNK A   0      -7.906  15.547  68.945  1.00  0.00     0.000 HD 
HETATM   10  H2  UNK A   0      -6.988  21.167  69.270  1.00  0.00     0.000 HD 
HETATM   11  C   UNK A   0      -8.506  17.282  67.957  1.00  0.00    -0.229 C  
HETATM   12  O   UNK A   0      -9.382  19.780  65.587  1.00  0.00    -0.327 OA 
HETATM   13  C   UNK A   0      -9.172  17.752  66.866  1.00  0.00    -0.258 C  
HETATM   14  H1  UNK A   0      -6.512  19.710  70.178  1.00  0.00     0.000 HD 
HETATM   15  C   UNK A   0      -9.034  19.221  66.623  1.00  0.00    -0.338 C  
HETATM   16  N   UNK A   0      -7.778  18.074  68.809  1.00  0.00    -0.289 NA 
HETATM   17  N   UNK A   0      -7.023  20.158  69.416  1.00  0.00    -0.189 NA 
HETATM   18  N   UNK A   0      -8.427  19.942  67.604  1.00  0.00    -0.320 N  
ENDROOT
BRANCH   4  19
HETATM   19  C   UNK A   0     -10.595  14.458  65.422  1.00  0.00    -0.365 C  
BRANCH  19  20
HETATM   20  N   UNK A   0      -9.874  13.388  64.713  1.00  0.00    -0.605 NA 
HETATM   21  H   UNK A   0      -9.415  13.559  63.818  1.00  0.00     0.000 HD 
BRANCH  20  22
HETATM   22  C   UNK A   0      -9.845  12.127  65.318  1.00  0.00    -0.196 A  
HETATM   23  C   UNK A   0     -10.225  10.803  67.329  1.00  0.00    -0.245 A  
HETATM   24  C   UNK A   0     -10.096   9.628  66.581  1.00  0.00    -0.307 A  
HETATM   25  C   UNK A   0      -9.598  10.941  64.617  1.00  0.00    -0.305 A  
HETATM   26  C   UNK A   0     -10.088  12.045  66.695  1.00  0.00    -0.220 A  
HETATM   27  C   UNK A   0      -9.729   9.699  65.235  1.00  0.00    -0.330 A  
BRANCH  24  28
HETATM   28  C   UNK A   0     -10.352   8.314  67.217  1.00  0.00    -0.302 C  
ATOM     29  H   GLU A   1     -10.065   9.139  69.123  1.00  0.00     0.000 HD 
ATOM     30  N   GLU A   1     -10.227   8.278  68.599  1.00  0.00    -0.201 N  
HETATM   31  O   UNK A   0     -10.622   7.329  66.542  1.00  0.00    -0.162 OA 
BRANCH  30  32
ATOM     32  CA  GLU A   1     -10.330   6.987  69.306  1.00  0.00    -0.200 C  
ATOM     33  C   GLU A   1     -10.692   7.240  70.782  1.00  0.00    -0.231 C  
ATOM     34  O   GLU A   1     -10.324   8.472  71.216  1.00  0.00    -0.199 OA 
ATOM     35  OXT GLU A   1     -11.119   6.383  71.543  1.00  0.00    -0.252 OA 
BRANCH  32  36
ATOM     36  CB  GLU A   1      -9.000   6.224  69.216  1.00  0.00    -0.125 C  
BRANCH  36  37
ATOM     37  CG  GLU A   1      -9.180   4.749  68.843  1.00  0.00    -0.172 C  
ATOM     38  CD  GLU A   1      -8.730   4.450  67.435  1.00  0.00    -0.105 C  
ATOM     39  OE2 GLU A   1      -8.283   5.272  66.651  1.00  0.00    -0.108 OA 
ATOM     40  OE1 GLU A   1      -8.867   3.141  67.124  1.00  0.00    -0.115 OA 
ENDBRANCH  36  37
ENDBRANCH  32  36
ENDBRANCH  30  32
ENDBRANCH  24  28
ENDBRANCH  20  22
ENDBRANCH  19  20
ENDBRANCH   4  19
TORSDOF 7
ENDMDL
MODEL      103
REMARK 921   NORMALIZED FREE ENERGY PREDICTED BY IDOCK:   -5.89 KCAL/MOL
REMARK 922        TOTAL FREE ENERGY PREDICTED BY IDOCK:   -9.57 KCAL/MOL
REMARK 923 INTER-LIGAND FREE ENERGY PREDICTED BY IDOCK:   -8.33 KCAL/MOL
REMARK 924 INTRA-LIGAND FREE ENERGY PREDICTED BY IDOCK:   -1.23 KCAL/MOL
REMARK 927      BINDING AFFINITY PREDICTED BY RF-SCORE:    0.00 PKD
ROOT
HETATM    1  C   UNK A   0     -11.019  14.839  69.897  1.00  0.00    -0.199 C  
HETATM    2  N   UNK A   0     -11.582  14.248  68.775  1.00  0.00    -0.302 N  
HETATM    3  O   UNK A   0     -11.047  14.404  71.045  1.00  0.00     0.100 OA 
HETATM    4  C   UNK A   0     -12.326  12.938  68.863  1.00  0.00     0.190 C  
HETATM    5  C   UNK A   0     -11.905  12.044  67.674  1.00  0.00    -0.224 C  
HETATM    6  C   UNK A   0     -11.364  15.887  64.938  1.00  0.00    -0.256 C  
HETATM    7  H   UNK A   0     -10.586  17.581  65.792  1.00  0.00     0.000 HD 
HETATM    8  N   UNK A   0     -12.123  12.789  66.446  1.00  0.00    -0.520 NA 
HETATM    9  H   UNK A   0     -12.525  12.317  65.637  1.00  0.00     0.000 HD 
HETATM   10  H2  UNK A   0     -11.032  17.421  63.575  1.00  0.00     0.000 HD 
HETATM   11  C   UNK A   0     -11.792  14.132  66.355  1.00  0.00    -0.423 C  
HETATM   12  O   UNK A   0     -11.126  17.112  68.170  1.00  0.00    -0.315 OA 
HETATM   13  C   UNK A   0     -11.524  14.839  67.487  1.00  0.00    -0.354 C  
HETATM   14  H1  UNK A   0     -11.591  15.861  62.923  1.00  0.00     0.000 HD 
HETATM   15  C   UNK A   0     -11.188  16.280  67.270  1.00  0.00     0.052 C  
HETATM   16  N   UNK A   0     -11.738  14.662  65.090  1.00  0.00    -0.366 NA 
HETATM   17  N   UNK A   0     -11.321  16.452  63.709  1.00  0.00    -1.362 NA 
HETATM   18  N   UNK A   0     -11.005  16.671  65.980  1.00  0.00    -0.015 N  
ENDROOT
BRANCH   4  19
HETATM   19  C   UNK A   0     -12.197  12.151  70.185  1.00  0.00    -0.231 C  
BRANCH  19  20
HETATM   20  N   UNK A   0     -11.010  11.279  70.193  1.00  0.00    -0.433 NA 
HETATM   21  H   UNK A   0     -10.096  11.623  69.900  1.00  0.00     0.000 HD 
BRANCH  20  22
HETATM   22  C   UNK A   0     -11.191   9.959  70.619  1.00  0.00    -0.344 A  
HETATM   23  C   UNK A   0     -10.427   7.646  70.531  1.00  0.00    -0.221 A  
HETATM   24  C   UNK A   0     -11.268   7.326  71.601  1.00  0.00    -0.275 A  
HETATM   25  C   UNK A   0     -12.114   9.587  71.605  1.00  0.00    -0.474 A  
HETATM   26  C   UNK A   0     -10.401   8.958  70.040  1.00  0.00    -0.219 A  
HETATM   27  C   UNK A   0     -12.151   8.286  72.101  1.00  0.00    -0.425 A  
BRANCH  24  28
HETATM   28  C   UNK A   0     -11.219   5.971  72.202  1.00  0.00    -0.291 C  
ATOM     29  H   GLU A   1      -9.341   5.617  71.338  1.00  0.00     0.000 HD 
ATOM     30  N   GLU A   1     -10.105   5.208  71.877  1.00  0.00    -0.190 N  
HETATM   31  O   UNK A   0     -12.130   5.562  72.908  1.00  0.00    -0.155 OA 
BRANCH  30  32
ATOM     32  CA  GLU A   1     -10.033   3.802  72.318  1.00  0.00    -0.168 C  
ATOM     33  C   GLU A   1      -9.141   3.703  73.569  1.00  0.00    -0.094 C  
ATOM     34  O   GLU A   1      -8.246   4.718  73.666  1.00  0.00    -0.105 OA 
ATOM     35  OXT GLU A   1      -9.115   2.740  74.322  1.00  0.00    -0.078 OA 
BRANCH  32  36
ATOM     36  CB  GLU A   1      -9.461   2.922  71.196  1.00  0.00    -0.225 C  
BRANCH  36  37
ATOM     37  CG  GLU A   1      -9.340   3.660  69.858  1.00  0.00    -0.246 C  
ATOM     38  CD  GLU A   1      -7.907   3.910  69.464  1.00  0.00    -0.052 C  
ATOM     39  OE2 GLU A   1      -6.931   3.586  70.121  1.00  0.00    -0.034 OA 
ATOM     40  OE1 GLU A   1      -7.810   4.537  68.269  1.00  0.00    -0.079 OA 
ENDBRANCH  36  37
ENDBRANCH  32  36
ENDBRANCH  30  32
ENDBRANCH  24  28
ENDBRANCH  20  22
ENDBRANCH  19  20
ENDBRANCH   4  19
TORSDOF 7
ENDMDL
MODEL      104
REMARK 921   NORMALIZED FREE ENERGY PREDICTED BY IDOCK:   -5.86 KCAL/MOL
REMARK 922        TOTAL FREE ENERGY PREDICTED BY IDOCK:   -9.53 KCAL/MOL
REMARK 923 INTER-LIGAND FREE ENERGY PREDICTED BY IDOCK:   -8.50 KCAL/MOL
REMARK 924 INTRA-LIGAND FREE ENERGY PREDICTED BY IDOCK:   -1.03 KCAL/MOL
REMARK 927      BINDING AFFINITY PREDICTED BY RF-SCORE:    0.00 PKD
ROOT
HETATM    1  C   UNK A   0      -8.064   8.829  69.722  1.00  0.00    -0.111 C  
HETATM    2  N   UNK A   0      -8.612   8.370  68.532  1.00  0.00    -0.135 N  
HETATM    3  O   UNK A   0      -8.516   9.714  70.443  1.00  0.00    -0.191 OA 
HETATM    4  C   UNK A   0      -9.892   8.949  67.979  1.00  0.00    -0.168 C  
HETATM    5  C   UNK A   0     -10.782   7.792  67.469  1.00  0.00    -0.195 C  
HETATM    6  C   UNK A   0      -6.918   5.330  66.221  1.00  0.00    -0.067 C  
HETATM    7  H   UNK A   0      -5.272   5.430  67.440  1.00  0.00     0.000 HD 
HETATM    8  N   UNK A   0     -10.008   7.006  66.524  1.00  0.00    -0.399 NA 
HETATM    9  H   UNK A   0     -10.450   6.674  65.667  1.00  0.00     0.000 HD 
HETATM   10  H2  UNK A   0      -5.377   4.068  65.630  1.00  0.00     0.000 HD 
HETATM   11  C   UNK A   0      -8.679   6.700  66.766  1.00  0.00    -0.121 C  
HETATM   12  O   UNK A   0      -5.759   7.574  68.592  1.00  0.00    -0.022 OA 
HETATM   13  C   UNK A   0      -8.003   7.360  67.746  1.00  0.00    -0.118 C  
HETATM   14  H1  UNK A   0      -6.901   3.972  64.715  1.00  0.00     0.000 HD 
HETATM   15  C   UNK A   0      -6.573   6.954  67.914  1.00  0.00    -0.059 C  
HETATM   16  N   UNK A   0      -8.130   5.709  65.991  1.00  0.00    -0.106 NA 
HETATM   17  N   UNK A   0      -6.335   4.373  65.462  1.00  0.00    -0.034 NA 
HETATM   18  N   UNK A   0      -6.168   5.861  67.212  1.00  0.00    -0.032 N  
ENDROOT
BRANCH   4  19
HETATM   19  C   UNK A   0     -10.706   9.864  68.920  1.00  0.00    -0.221 C  
BRANCH  19  20
HETATM   20  N   UNK A   0     -11.718  10.644  68.188  1.00  0.00    -0.747 NA 
HETATM   21  H   UNK A   0     -12.482  10.188  67.689  1.00  0.00     0.000 HD 
BRANCH  20  22
HETATM   22  C   UNK A   0     -11.588  12.037  68.207  1.00  0.00    -0.334 A  
HETATM   23  C   UNK A   0     -11.149  14.043  69.520  1.00  0.00    -0.200 A  
HETATM   24  C   UNK A   0     -11.031  14.789  68.343  1.00  0.00    -0.259 A  
HETATM   25  C   UNK A   0     -11.589  12.827  67.051  1.00  0.00    -0.422 A  
HETATM   26  C   UNK A   0     -11.437  12.674  69.445  1.00  0.00    -0.330 A  
HETATM   27  C   UNK A   0     -11.305  14.190  67.112  1.00  0.00    -0.348 A  
BRANCH  24  28
HETATM   28  C   UNK A   0     -10.614  16.210  68.406  1.00  0.00    -0.286 C  
ATOM     29  H   GLU A   1     -10.451  16.293  66.317  1.00  0.00     0.000 HD 
ATOM     30  N   GLU A   1     -10.300  16.801  67.189  1.00  0.00    -0.296 N  
HETATM   31  O   UNK A   0     -10.528  16.794  69.478  1.00  0.00    -0.310 OA 
BRANCH  30  32
ATOM     32  CA  GLU A   1      -9.748  18.169  67.165  1.00  0.00    -0.301 C  
ATOM     33  C   GLU A   1     -10.357  18.946  65.983  1.00  0.00    -0.429 C  
ATOM     34  O   GLU A   1     -10.790  18.138  64.983  1.00  0.00    -0.707 OA 
ATOM     35  OXT GLU A   1     -10.318  20.163  65.866  1.00  0.00    -0.449 OA 
BRANCH  32  36
ATOM     36  CB  GLU A   1      -8.218  18.122  67.029  1.00  0.00    -0.246 C  
BRANCH  36  37
ATOM     37  CG  GLU A   1      -7.687  16.717  66.725  1.00  0.00    -0.292 C  
ATOM     38  CD  GLU A   1      -6.760  16.205  67.798  1.00  0.00    -0.148 C  
ATOM     39  OE2 GLU A   1      -6.437  16.821  68.801  1.00  0.00    -0.154 OA 
ATOM     40  OE1 GLU A   1      -6.318  14.954  67.535  1.00  0.00    -0.266 OA 
ENDBRANCH  36  37
ENDBRANCH  32  36
ENDBRANCH  30  32
ENDBRANCH  24  28
ENDBRANCH  20  22
ENDBRANCH  19  20
ENDBRANCH   4  19
TORSDOF 7
ENDMDL
MODEL      105
REMARK 921   NORMALIZED FREE ENERGY PREDICTED BY IDOCK:   -5.84 KCAL/MOL
REMARK 922        TOTAL FREE ENERGY PREDICTED BY IDOCK:   -9.50 KCAL/MOL
REMARK 923 INTER-LIGAND FREE ENERGY PREDICTED BY IDOCK:   -9.27 KCAL/MOL
REMARK 924 INTRA-LIGAND FREE ENERGY PREDICTED BY IDOCK:   -0.22 KCAL/MOL
REMARK 927      BINDING AFFINITY PREDICTED BY RF-SCORE:    0.00 PKD
ROOT
HETATM    1  C   UNK A   0     -11.450   7.639  70.215  1.00  0.00    -0.127 C  
HETATM    2  N   UNK A   0     -10.847   7.894  68.992  1.00  0.00    -0.417 N  
HETATM    3  O   UNK A   0     -11.808   8.472  71.043  1.00  0.00    -0.284 OA 
HETATM    4  C   UNK A   0     -10.558   9.303  68.534  1.00  0.00    -0.183 C  
HETATM    5  C   UNK A   0     -10.945   9.432  67.042  1.00  0.00     0.126 C  
HETATM    6  C   UNK A   0      -9.709   4.907  66.301  1.00  0.00    -0.190 C  
HETATM    7  H   UNK A   0     -10.129   3.537  67.768  1.00  0.00     0.000 HD 
HETATM    8  N   UNK A   0     -10.249   8.394  66.302  1.00  0.00    -0.424 NA 
HETATM    9  H   UNK A   0      -9.831   8.616  65.398  1.00  0.00     0.000 HD 
HETATM   10  H2  UNK A   0      -9.263   2.952  65.756  1.00  0.00     0.000 HD 
HETATM   11  C   UNK A   0     -10.142   7.106  66.802  1.00  0.00    -0.208 C  
HETATM   12  O   UNK A   0     -10.298   5.073  69.711  1.00  0.00    -0.277 OA 
HETATM   13  C   UNK A   0     -10.439   6.863  68.108  1.00  0.00    -0.204 C  
HETATM   14  H1  UNK A   0      -9.054   4.210  64.513  1.00  0.00     0.000 HD 
HETATM   15  C   UNK A   0     -10.282   5.440  68.540  1.00  0.00    -0.169 C  
HETATM   16  N   UNK A   0      -9.755   6.136  65.911  1.00  0.00    -0.381 NA 
HETATM   17  N   UNK A   0      -9.308   3.926  65.460  1.00  0.00    -0.151 NA 
HETATM   18  N   UNK A   0     -10.047   4.531  67.555  1.00  0.00    -0.094 N  
ENDROOT
BRANCH   4  19
HETATM   19  C   UNK A   0     -11.206  10.445  69.346  1.00  0.00    -0.259 C  
BRANCH  19  20
HETATM   20  N   UNK A   0     -11.944  11.384  68.484  1.00  0.00    -0.555 NA 
HETATM   21  H   UNK A   0     -12.928  11.237  68.259  1.00  0.00     0.000 HD 
BRANCH  20  22
HETATM   22  C   UNK A   0     -11.238  12.485  67.988  1.00  0.00    -0.270 A  
HETATM   23  C   UNK A   0     -11.328  14.670  66.911  1.00  0.00    -0.361 A  
HETATM   24  C   UNK A   0      -9.974  14.870  67.202  1.00  0.00    -0.231 A  
HETATM   25  C   UNK A   0      -9.858  12.656  68.157  1.00  0.00    -0.226 A  
HETATM   26  C   UNK A   0     -11.948  13.474  67.296  1.00  0.00    -0.408 A  
HETATM   27  C   UNK A   0      -9.228  13.839  67.777  1.00  0.00    -0.206 A  
BRANCH  24  28
HETATM   28  C   UNK A   0      -9.338  16.175  66.901  1.00  0.00    -0.227 C  
ATOM     29  H   GLU A   1      -8.929  16.486  68.934  1.00  0.00     0.000 HD 
ATOM     30  N   GLU A   1      -8.894  16.897  68.001  1.00  0.00    -0.211 N  
HETATM   31  O   UNK A   0      -9.252  16.583  65.751  1.00  0.00    -0.486 OA 
BRANCH  30  32
ATOM     32  CA  GLU A   1      -8.371  18.263  67.812  1.00  0.00    -0.255 C  
ATOM     33  C   GLU A   1      -7.019  18.398  68.538  1.00  0.00    -0.261 C  
ATOM     34  O   GLU A   1      -6.875  17.519  69.560  1.00  0.00    -0.199 OA 
ATOM     35  OXT GLU A   1      -6.216  19.299  68.337  1.00  0.00    -0.222 OA 
BRANCH  32  36
ATOM     36  CB  GLU A   1      -9.367  19.295  68.362  1.00  0.00    -0.422 C  
BRANCH  36  37
ATOM     37  CG  GLU A   1     -10.595  19.480  67.463  1.00  0.00    -0.599 C  
ATOM     38  CD  GLU A   1     -10.225  19.838  66.046  1.00  0.00    -0.501 C  
ATOM     39  OE2 GLU A   1      -9.086  19.986  65.633  1.00  0.00    -0.245 OA 
ATOM     40  OE1 GLU A   1     -11.314  19.972  65.255  1.00  0.00    -0.142 OA 
ENDBRANCH  36  37
ENDBRANCH  32  36
ENDBRANCH  30  32
ENDBRANCH  24  28
ENDBRANCH  20  22
ENDBRANCH  19  20
ENDBRANCH   4  19
TORSDOF 7
ENDMDL
MODEL      106
REMARK 921   NORMALIZED FREE ENERGY PREDICTED BY IDOCK:   -5.75 KCAL/MOL
REMARK 922        TOTAL FREE ENERGY PREDICTED BY IDOCK:   -9.38 KCAL/MOL
REMARK 923 INTER-LIGAND FREE ENERGY PREDICTED BY IDOCK:   -8.37 KCAL/MOL
REMARK 924 INTRA-LIGAND FREE ENERGY PREDICTED BY IDOCK:   -1.00 KCAL/MOL
REMARK 927      BINDING AFFINITY PREDICTED BY RF-SCORE:    0.00 PKD
ROOT
HETATM    1  C   UNK A   0     -11.035   6.114  68.196  1.00  0.00    -0.307 C  
HETATM    2  N   UNK A   0     -10.017   5.979  69.131  1.00  0.00    -0.153 N  
HETATM    3  O   UNK A   0     -10.901   6.260  66.985  1.00  0.00    -0.323 OA 
HETATM    4  C   UNK A   0      -8.565   5.999  68.723  1.00  0.00    -0.112 C  
HETATM    5  C   UNK A   0      -7.817   4.882  69.487  1.00  0.00    -0.067 C  
HETATM    6  C   UNK A   0     -10.683   5.480  73.225  1.00  0.00    -0.274 C  
HETATM    7  H   UNK A   0     -12.663   5.884  72.871  1.00  0.00     0.000 HD 
HETATM    8  N   UNK A   0      -8.055   5.066  70.908  1.00  0.00    -0.094 NA 
HETATM    9  H   UNK A   0      -7.285   4.944  71.566  1.00  0.00     0.000 HD 
HETATM   10  H2  UNK A   0     -11.834   5.544  74.954  1.00  0.00     0.000 HD 
HETATM   11  C   UNK A   0      -9.311   5.405  71.386  1.00  0.00    -0.147 C  
HETATM   12  O   UNK A   0     -12.478   6.791  70.567  1.00  0.00    -0.273 OA 
HETATM   13  C   UNK A   0     -10.266   5.844  70.520  1.00  0.00    -0.211 C  
HETATM   14  H1  UNK A   0     -10.125   5.078  75.132  1.00  0.00     0.000 HD 
HETATM   15  C   UNK A   0     -11.579   6.188  71.147  1.00  0.00    -0.202 C  
HETATM   16  N   UNK A   0      -9.513   5.250  72.735  1.00  0.00    -0.142 NA 
HETATM   17  N   UNK A   0     -10.915   5.361  74.553  1.00  0.00    -0.256 NA 
HETATM   18  N   UNK A   0     -11.731   5.853  72.456  1.00  0.00    -0.448 N  
ENDROOT
BRANCH   4  19
HETATM   19  C   UNK A   0      -8.264   5.895  67.212  1.00  0.00    -0.105 C  
BRANCH  19  20
HETATM   20  N   UNK A   0      -7.614   7.111  66.695  1.00  0.00    -0.091 NA 
HETATM   21  H   UNK A   0      -6.677   7.084  66.293  1.00  0.00     0.000 HD 
BRANCH  20  22
HETATM   22  C   UNK A   0      -8.337   8.306  66.779  1.00  0.00    -0.107 A  
HETATM   23  C   UNK A   0     -10.005   9.775  65.779  1.00  0.00    -0.349 A  
HETATM   24  C   UNK A   0     -10.048  10.531  66.955  1.00  0.00    -0.265 A  
HETATM   25  C   UNK A   0      -8.306   9.149  67.897  1.00  0.00    -0.117 A  
HETATM   26  C   UNK A   0      -9.143   8.674  65.694  1.00  0.00    -0.221 A  
HETATM   27  C   UNK A   0      -9.157  10.248  67.993  1.00  0.00    -0.132 A  
BRANCH  24  28
HETATM   28  C   UNK A   0     -11.037  11.625  67.096  1.00  0.00    -0.299 C  
ATOM     29  H   GLU A   1     -10.050  12.756  65.632  1.00  0.00     0.000 HD 
ATOM     30  N   GLU A   1     -10.805  12.752  66.318  1.00  0.00    -0.271 N  
HETATM   31  O   UNK A   0     -11.972  11.532  67.881  1.00  0.00    -0.618 OA 
BRANCH  30  32
ATOM     32  CA  GLU A   1     -11.658  13.943  66.491  1.00  0.00    -0.369 C  
ATOM     33  C   GLU A   1     -12.718  13.978  65.374  1.00  0.00    -0.471 C  
ATOM     34  O   GLU A   1     -12.341  13.302  64.261  1.00  0.00    -0.511 OA 
ATOM     35  OXT GLU A   1     -13.728  14.669  65.404  1.00  0.00     0.002 OA 
BRANCH  32  36
ATOM     36  CB  GLU A   1     -10.805  15.220  66.444  1.00  0.00    -0.317 C  
BRANCH  36  37
ATOM     37  CG  GLU A   1      -9.508  15.103  67.252  1.00  0.00    -0.214 C  
ATOM     38  CD  GLU A   1      -8.450  16.073  66.790  1.00  0.00    -0.260 C  
ATOM     39  OE2 GLU A   1      -8.577  16.865  65.870  1.00  0.00    -0.514 OA 
ATOM     40  OE1 GLU A   1      -7.319  15.982  67.527  1.00  0.00    -0.134 OA 
ENDBRANCH  36  37
ENDBRANCH  32  36
ENDBRANCH  30  32
ENDBRANCH  24  28
ENDBRANCH  20  22
ENDBRANCH  19  20
ENDBRANCH   4  19
TORSDOF 7
ENDMDL
MODEL      107
REMARK 921   NORMALIZED FREE ENERGY PREDICTED BY IDOCK:   -5.73 KCAL/MOL
REMARK 922        TOTAL FREE ENERGY PREDICTED BY IDOCK:   -9.35 KCAL/MOL
REMARK 923 INTER-LIGAND FREE ENERGY PREDICTED BY IDOCK:   -8.19 KCAL/MOL
REMARK 924 INTRA-LIGAND FREE ENERGY PREDICTED BY IDOCK:   -1.16 KCAL/MOL
REMARK 927      BINDING AFFINITY PREDICTED BY RF-SCORE:    0.00 PKD
ROOT
HETATM    1  C   UNK A   0     -11.902  15.307  69.361  1.00  0.00    -0.343 C  
HETATM    2  N   UNK A   0     -11.079  14.860  68.337  1.00  0.00    -0.262 N  
HETATM    3  O   UNK A   0     -12.738  14.645  69.970  1.00  0.00    -0.278 OA 
HETATM    4  C   UNK A   0     -11.135  13.434  67.846  1.00  0.00    -0.265 C  
HETATM    5  C   UNK A   0      -9.692  12.918  67.644  1.00  0.00    -0.212 C  
HETATM    6  C   UNK A   0      -8.281  17.275  66.390  1.00  0.00    -0.282 C  
HETATM    7  H   UNK A   0      -9.097  18.878  67.377  1.00  0.00     0.000 HD 
HETATM    8  N   UNK A   0      -8.999  13.841  66.762  1.00  0.00    -0.380 NA 
HETATM    9  H   UNK A   0      -8.391  13.475  66.030  1.00  0.00     0.000 HD 
HETATM   10  H2  UNK A   0      -7.438  19.096  65.847  1.00  0.00     0.000 HD 
HETATM   11  C   UNK A   0      -9.151  15.212  66.897  1.00  0.00    -0.247 C  
HETATM   12  O   UNK A   0     -11.185  17.817  68.200  1.00  0.00    -0.044 OA 
HETATM   13  C   UNK A   0     -10.159  15.706  67.667  1.00  0.00    -0.248 C  
HETATM   14  H1  UNK A   0      -6.721  17.625  65.143  1.00  0.00     0.000 HD 
HETATM   15  C   UNK A   0     -10.233  17.198  67.735  1.00  0.00    -0.324 C  
HETATM   16  N   UNK A   0      -8.234  15.995  66.242  1.00  0.00    -0.276 NA 
HETATM   17  N   UNK A   0      -7.409  18.082  65.742  1.00  0.00    -0.536 NA 
HETATM   18  N   UNK A   0      -9.192  17.881  67.185  1.00  0.00    -0.254 N  
ENDROOT
BRANCH   4  19
HETATM   19  C   UNK A   0     -11.936  12.432  68.707  1.00  0.00    -0.229 C  
BRANCH  19  20
HETATM   20  N   UNK A   0     -11.260  12.137  69.980  1.00  0.00    -0.470 NA 
HETATM   21  H   UNK A   0     -10.937  12.882  70.597  1.00  0.00     0.000 HD 
BRANCH  20  22
HETATM   22  C   UNK A   0     -11.078  10.789  70.309  1.00  0.00    -0.170 A  
HETATM   23  C   UNK A   0     -12.050   8.742  71.207  1.00  0.00    -0.344 A  
HETATM   24  C   UNK A   0     -10.940   8.018  70.762  1.00  0.00    -0.259 A  
HETATM   25  C   UNK A   0      -9.924  10.065  69.985  1.00  0.00    -0.273 A  
HETATM   26  C   UNK A   0     -12.108  10.125  70.987  1.00  0.00    -0.476 A  
HETATM   27  C   UNK A   0      -9.853   8.691  70.200  1.00  0.00    -0.191 A  
BRANCH  24  28
HETATM   28  C   UNK A   0     -10.921   6.541  70.888  1.00  0.00    -0.274 C  
ATOM     29  H   GLU A   1      -8.932   6.473  70.226  1.00  0.00     0.000 HD 
ATOM     30  N   GLU A   1      -9.745   5.917  70.490  1.00  0.00    -0.171 N  
HETATM   31  O   UNK A   0     -11.903   5.930  71.287  1.00  0.00    -0.067 OA 
BRANCH  30  32
ATOM     32  CA  GLU A   1      -9.681   4.444  70.452  1.00  0.00    -0.214 C  
ATOM     33  C   GLU A   1      -8.599   3.954  71.433  1.00  0.00    -0.088 C  
ATOM     34  O   GLU A   1      -7.645   4.885  71.681  1.00  0.00    -0.089 OA 
ATOM     35  OXT GLU A   1      -8.503   2.801  71.832  1.00  0.00    -0.057 OA 
BRANCH  32  36
ATOM     36  CB  GLU A   1      -9.355   3.963  69.029  1.00  0.00    -0.237 C  
BRANCH  36  37
ATOM     37  CG  GLU A   1      -8.674   5.037  68.175  1.00  0.00    -0.106 C  
ATOM     38  CD  GLU A   1      -9.586   5.591  67.109  1.00  0.00    -0.134 C  
ATOM     39  OE2 GLU A   1     -10.736   5.233  66.913  1.00  0.00    -0.253 OA 
ATOM     40  OE1 GLU A   1      -8.986   6.558  66.378  1.00  0.00    -0.140 OA 
ENDBRANCH  36  37
ENDBRANCH  32  36
ENDBRANCH  30  32
ENDBRANCH  24  28
ENDBRANCH  20  22
ENDBRANCH  19  20
ENDBRANCH   4  19
TORSDOF 7
ENDMDL
MODEL      108
REMARK 921   NORMALIZED FREE ENERGY PREDICTED BY IDOCK:   -5.73 KCAL/MOL
REMARK 922        TOTAL FREE ENERGY PREDICTED BY IDOCK:   -9.34 KCAL/MOL
REMARK 923 INTER-LIGAND FREE ENERGY PREDICTED BY IDOCK:   -8.99 KCAL/MOL
REMARK 924 INTRA-LIGAND FREE ENERGY PREDICTED BY IDOCK:   -0.35 KCAL/MOL
REMARK 927      BINDING AFFINITY PREDICTED BY RF-SCORE:    0.00 PKD
ROOT
HETATM    1  C   UNK A   0     -12.121  14.049  67.276  1.00  0.00    -0.370 C  
HETATM    2  N   UNK A   0     -11.502  12.808  67.214  1.00  0.00    -0.317 N  
HETATM    3  O   UNK A   0     -12.481  14.637  68.291  1.00  0.00    -0.026 OA 
HETATM    4  C   UNK A   0     -11.193  12.018  68.462  1.00  0.00    -0.256 C  
HETATM    5  C   UNK A   0      -9.771  11.424  68.337  1.00  0.00    -0.203 C  
HETATM    6  C   UNK A   0     -10.340  10.973  63.645  1.00  0.00    -0.352 C  
HETATM    7  H   UNK A   0     -11.360  12.447  62.648  1.00  0.00     0.000 HD 
HETATM    8  N   UNK A   0      -9.704  10.664  67.101  1.00  0.00    -0.168 NA 
HETATM    9  H   UNK A   0      -9.227   9.762  67.092  1.00  0.00     0.000 HD 
HETATM   10  H2  UNK A   0     -10.355  10.716  61.583  1.00  0.00     0.000 HD 
HETATM   11  C   UNK A   0     -10.276  11.143  65.934  1.00  0.00    -0.251 C  
HETATM   12  O   UNK A   0     -12.653  13.390  64.547  1.00  0.00    -0.601 OA 
HETATM   13  C   UNK A   0     -11.146  12.189  65.989  1.00  0.00    -0.313 C  
HETATM   14  H1  UNK A   0      -9.393   9.562  62.539  1.00  0.00     0.000 HD 
HETATM   15  C   UNK A   0     -11.708  12.617  64.671  1.00  0.00    -0.357 C  
HETATM   16  N   UNK A   0      -9.897  10.523  64.769  1.00  0.00    -0.298 NA 
HETATM   17  N   UNK A   0     -10.008  10.374  62.478  1.00  0.00    -0.738 NA 
HETATM   18  N   UNK A   0     -11.155  12.049  63.565  1.00  0.00    -0.542 N  
ENDROOT
BRANCH   4  19
HETATM   19  C   UNK A   0     -11.337  12.760  69.809  1.00  0.00    -0.033 C  
BRANCH  19  20
HETATM   20  N   UNK A   0     -12.404  12.183  70.644  1.00  0.00    -0.342 NA 
HETATM   21  H   UNK A   0     -13.231  12.723  70.898  1.00  0.00     0.000 HD 
BRANCH  20  22
HETATM   22  C   UNK A   0     -12.235  10.862  71.073  1.00  0.00    -0.358 A  
HETATM   23  C   UNK A   0     -13.224   8.900  72.128  1.00  0.00    -0.478 A  
HETATM   24  C   UNK A   0     -12.123   8.132  71.735  1.00  0.00    -0.357 A  
HETATM   25  C   UNK A   0     -11.090  10.104  70.800  1.00  0.00    -0.372 A  
HETATM   26  C   UNK A   0     -13.269  10.262  71.803  1.00  0.00    -0.534 A  
HETATM   27  C   UNK A   0     -11.032   8.748  71.119  1.00  0.00    -0.334 A  
BRANCH  24  28
HETATM   28  C   UNK A   0     -12.119   6.669  71.972  1.00  0.00    -0.310 C  
ATOM     29  H   GLU A   1     -10.075   6.713  72.439  1.00  0.00     0.000 HD 
ATOM     30  N   GLU A   1     -10.887   6.113  72.290  1.00  0.00    -0.232 N  
HETATM   31  O   UNK A   0     -13.144   6.009  71.856  1.00  0.00     0.270 OA 
BRANCH  30  32
ATOM     32  CA  GLU A   1     -10.759   4.648  72.410  1.00  0.00    -0.116 C  
ATOM     33  C   GLU A   1     -10.390   4.285  73.861  1.00  0.00    -0.201 C  
ATOM     34  O   GLU A   1      -9.769   5.294  74.520  1.00  0.00    -0.148 OA 
ATOM     35  OXT GLU A   1     -10.490   3.162  74.336  1.00  0.00    -0.170 OA 
BRANCH  32  36
ATOM     36  CB  GLU A   1      -9.680   4.128  71.448  1.00  0.00    -0.251 C  
BRANCH  36  37
ATOM     37  CG  GLU A   1      -8.563   5.146  71.193  1.00  0.00    -0.128 C  
ATOM     38  CD  GLU A   1      -7.220   4.492  70.993  1.00  0.00    -0.044 C  
ATOM     39  OE2 GLU A   1      -7.010   3.290  71.038  1.00  0.00    -0.032 OA 
ATOM     40  OE1 GLU A   1      -6.246   5.396  70.741  1.00  0.00    -0.024 OA 
ENDBRANCH  36  37
ENDBRANCH  32  36
ENDBRANCH  30  32
ENDBRANCH  24  28
ENDBRANCH  20  22
ENDBRANCH  19  20
ENDBRANCH   4  19
TORSDOF 7
ENDMDL
MODEL      109
REMARK 921   NORMALIZED FREE ENERGY PREDICTED BY IDOCK:   -5.72 KCAL/MOL
REMARK 922        TOTAL FREE ENERGY PREDICTED BY IDOCK:   -9.33 KCAL/MOL
REMARK 923 INTER-LIGAND FREE ENERGY PREDICTED BY IDOCK:   -8.14 KCAL/MOL
REMARK 924 INTRA-LIGAND FREE ENERGY PREDICTED BY IDOCK:   -1.19 KCAL/MOL
REMARK 927      BINDING AFFINITY PREDICTED BY RF-SCORE:    0.00 PKD
ROOT
HETATM    1  C   UNK A   0      -9.986  11.862  64.582  1.00  0.00    -0.230 C  
HETATM    2  N   UNK A   0      -9.582  12.000  65.902  1.00  0.00    -0.246 N  
HETATM    3  O   UNK A   0      -9.726  10.926  63.831  1.00  0.00    -0.248 OA 
HETATM    4  C   UNK A   0      -8.736  10.951  66.581  1.00  0.00    -0.155 C  
HETATM    5  C   UNK A   0      -9.287  10.710  68.006  1.00  0.00    -0.147 C  
HETATM    6  C   UNK A   0     -10.586  15.268  68.304  1.00  0.00    -0.244 C  
HETATM    7  H   UNK A   0     -11.332  16.173  66.621  1.00  0.00     0.000 HD 
HETATM    8  N   UNK A   0      -9.343  11.989  68.693  1.00  0.00    -0.382 NA 
HETATM    9  H   UNK A   0      -9.052  12.048  69.668  1.00  0.00     0.000 HD 
HETATM   10  H2  UNK A   0     -11.265  17.203  68.640  1.00  0.00     0.000 HD 
HETATM   11  C   UNK A   0      -9.786  13.131  68.045  1.00  0.00    -0.224 C  
HETATM   12  O   UNK A   0     -10.354  14.677  64.897  1.00  0.00    -0.411 OA 
HETATM   13  C   UNK A   0      -9.907  13.134  66.689  1.00  0.00    -0.261 C  
HETATM   14  H1  UNK A   0     -10.710  16.278  70.057  1.00  0.00     0.000 HD 
HETATM   15  C   UNK A   0     -10.385  14.421  66.097  1.00  0.00    -0.298 C  
HETATM   16  N   UNK A   0     -10.099  14.203  68.844  1.00  0.00    -0.358 NA 
HETATM   17  N   UNK A   0     -10.884  16.353  69.055  1.00  0.00    -0.311 NA 
HETATM   18  N   UNK A   0     -10.818  15.367  66.975  1.00  0.00    -0.319 N  
ENDROOT
BRANCH   4  19
HETATM   19  C   UNK A   0      -8.574   9.603  65.845  1.00  0.00    -0.134 C  
BRANCH  19  20
HETATM   20  N   UNK A   0      -9.811   8.805  65.879  1.00  0.00    -0.460 NA 
HETATM   21  H   UNK A   0     -10.617   9.048  65.304  1.00  0.00     0.000 HD 
BRANCH  20  22
HETATM   22  C   UNK A   0      -9.833   7.698  66.736  1.00  0.00    -0.237 A  
HETATM   23  C   UNK A   0      -8.567   6.156  68.136  1.00  0.00    -0.115 A  
HETATM   24  C   UNK A   0      -9.761   5.665  68.676  1.00  0.00    -0.175 A  
HETATM   25  C   UNK A   0     -11.014   7.105  67.198  1.00  0.00    -0.342 A  
HETATM   26  C   UNK A   0      -8.611   7.162  67.162  1.00  0.00    -0.121 A  
HETATM   27  C   UNK A   0     -10.985   6.103  68.165  1.00  0.00    -0.398 A  
BRANCH  24  28
HETATM   28  C   UNK A   0      -9.722   4.684  69.786  1.00  0.00    -0.209 C  
ATOM     29  H   GLU A   1      -9.874   6.225  71.201  1.00  0.00     0.000 HD 
ATOM     30  N   GLU A   1      -9.742   5.222  71.067  1.00  0.00    -0.174 N  
HETATM   31  O   UNK A   0      -9.644   3.483  69.564  1.00  0.00    -0.179 OA 
BRANCH  30  32
ATOM     32  CA  GLU A   1      -9.572   4.334  72.232  1.00  0.00    -0.141 C  
ATOM     33  C   GLU A   1     -10.888   4.279  73.030  1.00  0.00    -0.183 C  
ATOM     34  O   GLU A   1     -11.668   5.373  72.846  1.00  0.00    -0.297 OA 
ATOM     35  OXT GLU A   1     -11.150   3.427  73.868  1.00  0.00    -0.211 OA 
BRANCH  32  36
ATOM     36  CB  GLU A   1      -8.435   4.846  73.130  1.00  0.00    -0.104 C  
BRANCH  36  37
ATOM     37  CG  GLU A   1      -7.877   6.199  72.676  1.00  0.00    -0.103 C  
ATOM     38  CD  GLU A   1      -8.430   7.351  73.476  1.00  0.00    -0.152 C  
ATOM     39  OE2 GLU A   1      -9.244   7.251  74.381  1.00  0.00    -0.217 OA 
ATOM     40  OE1 GLU A   1      -7.911   8.538  73.087  1.00  0.00    -0.354 OA 
ENDBRANCH  36  37
ENDBRANCH  32  36
ENDBRANCH  30  32
ENDBRANCH  24  28
ENDBRANCH  20  22
ENDBRANCH  19  20
ENDBRANCH   4  19
TORSDOF 7
ENDMDL
MODEL      110
REMARK 921   NORMALIZED FREE ENERGY PREDICTED BY IDOCK:   -5.72 KCAL/MOL
REMARK 922        TOTAL FREE ENERGY PREDICTED BY IDOCK:   -9.33 KCAL/MOL
REMARK 923 INTER-LIGAND FREE ENERGY PREDICTED BY IDOCK:   -8.41 KCAL/MOL
REMARK 924 INTRA-LIGAND FREE ENERGY PREDICTED BY IDOCK:   -0.92 KCAL/MOL
REMARK 927      BINDING AFFINITY PREDICTED BY RF-SCORE:    0.00 PKD
ROOT
HETATM    1  C   UNK A   0     -11.537   6.782  70.793  1.00  0.00    -0.366 C  
HETATM    2  N   UNK A   0     -10.380   7.531  70.956  1.00  0.00    -0.199 N  
HETATM    3  O   UNK A   0     -12.686   7.150  71.024  1.00  0.00    -0.352 OA 
HETATM    4  C   UNK A   0     -10.425   8.952  71.461  1.00  0.00    -0.323 C  
HETATM    5  C   UNK A   0      -9.459   9.813  70.615  1.00  0.00     0.003 C  
HETATM    6  C   UNK A   0      -6.552   6.094  70.100  1.00  0.00    -0.044 C  
HETATM    7  H   UNK A   0      -7.389   4.238  69.858  1.00  0.00     0.000 HD 
HETATM    8  N   UNK A   0      -8.146   9.192  70.653  1.00  0.00    -0.157 NA 
HETATM    9  H   UNK A   0      -7.317   9.777  70.759  1.00  0.00     0.000 HD 
HETATM   10  H2  UNK A   0      -5.156   4.603  69.717  1.00  0.00     0.000 HD 
HETATM   11  C   UNK A   0      -8.000   7.818  70.549  1.00  0.00    -0.098 C  
HETATM   12  O   UNK A   0      -9.615   4.670  70.869  1.00  0.00    -0.153 OA 
HETATM   13  C   UNK A   0      -9.088   7.012  70.690  1.00  0.00    -0.158 C  
HETATM   14  H1  UNK A   0      -4.551   6.275  69.822  1.00  0.00     0.000 HD 
HETATM   15  C   UNK A   0      -8.812   5.547  70.566  1.00  0.00    -0.136 C  
HETATM   16  N   UNK A   0      -6.735   7.358  70.281  1.00  0.00    -0.046 NA 
HETATM   17  N   UNK A   0      -5.316   5.600  69.858  1.00  0.00    -0.004 NA 
HETATM   18  N   UNK A   0      -7.565   5.200  70.146  1.00  0.00    -0.069 N  
ENDROOT
BRANCH   4  19
HETATM   19  C   UNK A   0     -11.814   9.625  71.522  1.00  0.00    -0.407 C  
BRANCH  19  20
HETATM   20  N   UNK A   0     -12.338   9.930  70.180  1.00  0.00    -0.490 NA 
HETATM   21  H   UNK A   0     -12.742   9.203  69.589  1.00  0.00     0.000 HD 
BRANCH  20  22
HETATM   22  C   UNK A   0     -12.258  11.259  69.750  1.00  0.00    -0.275 A  
HETATM   23  C   UNK A   0     -12.194  13.618  70.360  1.00  0.00    -0.434 A  
HETATM   24  C   UNK A   0     -11.832  13.948  69.051  1.00  0.00    -0.397 A  
HETATM   25  C   UNK A   0     -12.017  11.625  68.420  1.00  0.00    -0.266 A  
HETATM   26  C   UNK A   0     -12.415  12.276  70.699  1.00  0.00    -0.323 A  
HETATM   27  C   UNK A   0     -11.797  12.956  68.069  1.00  0.00    -0.390 A  
BRANCH  24  28
HETATM   28  C   UNK A   0     -11.485  15.349  68.710  1.00  0.00    -0.341 C  
ATOM     29  H   GLU A   1     -10.234  14.700  67.156  1.00  0.00     0.000 HD 
ATOM     30  N   GLU A   1     -10.560  15.509  67.685  1.00  0.00    -0.283 N  
HETATM   31  O   UNK A   0     -11.970  16.286  69.329  1.00  0.00    -0.191 OA 
BRANCH  30  32
ATOM     32  CA  GLU A   1     -10.053  16.857  67.368  1.00  0.00    -0.279 C  
ATOM     33  C   GLU A   1     -10.253  17.137  65.866  1.00  0.00    -0.276 C  
ATOM     34  O   GLU A   1     -10.321  16.008  65.119  1.00  0.00    -0.523 OA 
ATOM     35  OXT GLU A   1     -10.198  18.250  65.360  1.00  0.00    -0.438 OA 
BRANCH  32  36
ATOM     36  CB  GLU A   1      -8.563  16.963  67.727  1.00  0.00    -0.208 C  
BRANCH  36  37
ATOM     37  CG  GLU A   1      -7.769  15.704  67.363  1.00  0.00    -0.215 C  
ATOM     38  CD  GLU A   1      -6.283  15.886  67.543  1.00  0.00    -0.158 C  
ATOM     39  OE2 GLU A   1      -5.742  16.913  67.920  1.00  0.00    -0.110 OA 
ATOM     40  OE1 GLU A   1      -5.592  14.761  67.246  1.00  0.00    -0.298 OA 
ENDBRANCH  36  37
ENDBRANCH  32  36
ENDBRANCH  30  32
ENDBRANCH  24  28
ENDBRANCH  20  22
ENDBRANCH  19  20
ENDBRANCH   4  19
TORSDOF 7
ENDMDL
MODEL      111
REMARK 921   NORMALIZED FREE ENERGY PREDICTED BY IDOCK:   -5.70 KCAL/MOL
REMARK 922        TOTAL FREE ENERGY PREDICTED BY IDOCK:   -9.30 KCAL/MOL
REMARK 923 INTER-LIGAND FREE ENERGY PREDICTED BY IDOCK:   -8.11 KCAL/MOL
REMARK 924 INTRA-LIGAND FREE ENERGY PREDICTED BY IDOCK:   -1.19 KCAL/MOL
REMARK 927      BINDING AFFINITY PREDICTED BY RF-SCORE:    0.00 PKD
ROOT
HETATM    1  C   UNK A   0      -8.463   9.280  66.279  1.00  0.00    -0.127 C  
HETATM    2  N   UNK A   0      -9.409   8.543  66.978  1.00  0.00    -0.153 N  
HETATM    3  O   UNK A   0      -8.369  10.503  66.242  1.00  0.00    -0.140 OA 
HETATM    4  C   UNK A   0     -10.475   9.216  67.809  1.00  0.00    -0.247 C  
HETATM    5  C   UNK A   0     -10.613   8.459  69.150  1.00  0.00    -0.163 C  
HETATM    6  C   UNK A   0      -9.554   4.368  66.985  1.00  0.00    -0.198 C  
HETATM    7  H   UNK A   0      -8.134   4.396  65.504  1.00  0.00     0.000 HD 
HETATM    8  N   UNK A   0     -10.859   7.058  68.857  1.00  0.00    -0.369 NA 
HETATM    9  H   UNK A   0     -11.553   6.546  69.403  1.00  0.00     0.000 HD 
HETATM   10  H2  UNK A   0      -9.083   2.479  66.257  1.00  0.00     0.000 HD 
HETATM   11  C   UNK A   0     -10.169   6.404  67.849  1.00  0.00    -0.168 C  
HETATM   12  O   UNK A   0      -8.256   6.797  64.882  1.00  0.00    -0.134 OA 
HETATM   13  C   UNK A   0      -9.460   7.127  66.940  1.00  0.00    -0.159 C  
HETATM   14  H1  UNK A   0     -10.214   2.563  67.631  1.00  0.00     0.000 HD 
HETATM   15  C   UNK A   0      -8.761   6.319  65.893  1.00  0.00    -0.149 C  
HETATM   16  N   UNK A   0     -10.235   5.033  67.854  1.00  0.00    -0.121 NA 
HETATM   17  N   UNK A   0      -9.613   3.017  66.942  1.00  0.00    -0.410 NA 
HETATM   18  N   UNK A   0      -8.757   4.970  66.073  1.00  0.00    -0.123 N  
ENDROOT
BRANCH   4  19
HETATM   19  C   UNK A   0     -10.301  10.727  68.072  1.00  0.00    -0.182 C  
BRANCH  19  20
HETATM   20  N   UNK A   0     -11.182  11.540  67.217  1.00  0.00    -0.293 NA 
HETATM   21  H   UNK A   0     -12.007  11.139  66.770  1.00  0.00     0.000 HD 
BRANCH  20  22
HETATM   22  C   UNK A   0     -10.840  12.885  67.044  1.00  0.00    -0.260 A  
HETATM   23  C   UNK A   0      -9.231  14.668  67.459  1.00  0.00    -0.192 A  
HETATM   24  C   UNK A   0      -9.898  15.487  66.543  1.00  0.00    -0.281 A  
HETATM   25  C   UNK A   0     -11.561  13.765  66.226  1.00  0.00    -0.369 A  
HETATM   26  C   UNK A   0      -9.712  13.376  67.712  1.00  0.00    -0.216 A  
HETATM   27  C   UNK A   0     -11.095  15.052  65.968  1.00  0.00    -0.329 A  
BRANCH  24  28
HETATM   28  C   UNK A   0      -9.334  16.809  66.183  1.00  0.00    -0.255 C  
ATOM     29  H   GLU A   1      -7.502  16.311  67.075  1.00  0.00     0.000 HD 
ATOM     30  N   GLU A   1      -8.038  17.051  66.622  1.00  0.00    -0.235 N  
HETATM   31  O   UNK A   0      -9.999  17.631  65.567  1.00  0.00    -0.533 OA 
BRANCH  30  32
ATOM     32  CA  GLU A   1      -7.443  18.387  66.429  1.00  0.00    -0.247 C  
ATOM     33  C   GLU A   1      -6.095  18.245  65.698  1.00  0.00    -0.241 C  
ATOM     34  O   GLU A   1      -5.524  17.026  65.868  1.00  0.00    -0.211 OA 
ATOM     35  OXT GLU A   1      -5.507  19.168  65.151  1.00  0.00    -0.161 OA 
BRANCH  32  36
ATOM     36  CB  GLU A   1      -7.233  19.077  67.786  1.00  0.00    -0.258 C  
BRANCH  36  37
ATOM     37  CG  GLU A   1      -8.456  18.977  68.704  1.00  0.00    -0.394 C  
ATOM     38  CD  GLU A   1      -9.535  19.964  68.339  1.00  0.00    -0.272 C  
ATOM     39  OE2 GLU A   1      -9.467  20.775  67.429  1.00  0.00    -0.422 OA 
ATOM     40  OE1 GLU A   1     -10.621  19.849  69.137  1.00  0.00    -0.097 OA 
ENDBRANCH  36  37
ENDBRANCH  32  36
ENDBRANCH  30  32
ENDBRANCH  24  28
ENDBRANCH  20  22
ENDBRANCH  19  20
ENDBRANCH   4  19
TORSDOF 7
ENDMDL
MODEL      112
REMARK 921   NORMALIZED FREE ENERGY PREDICTED BY IDOCK:   -5.69 KCAL/MOL
REMARK 922        TOTAL FREE ENERGY PREDICTED BY IDOCK:   -9.29 KCAL/MOL
REMARK 923 INTER-LIGAND FREE ENERGY PREDICTED BY IDOCK:   -9.34 KCAL/MOL
REMARK 924 INTRA-LIGAND FREE ENERGY PREDICTED BY IDOCK:    0.05 KCAL/MOL
REMARK 927      BINDING AFFINITY PREDICTED BY RF-SCORE:    0.00 PKD
ROOT
HETATM    1  C   UNK A   0     -12.735  13.367  65.139  1.00  0.00    -0.399 C  
HETATM    2  N   UNK A   0     -11.713  12.562  65.622  1.00  0.00    -0.403 N  
HETATM    3  O   UNK A   0     -13.498  14.060  65.807  1.00  0.00    -0.480 OA 
HETATM    4  C   UNK A   0     -11.425  12.454  67.100  1.00  0.00    -0.357 C  
HETATM    5  C   UNK A   0      -9.895  12.506  67.314  1.00  0.00    -0.204 C  
HETATM    6  C   UNK A   0      -9.209  10.280  63.176  1.00  0.00    -0.287 C  
HETATM    7  H   UNK A   0     -10.445  10.751  61.608  1.00  0.00     0.000 HD 
HETATM    8  N   UNK A   0      -9.286  11.471  66.496  1.00  0.00    -0.192 NA 
HETATM    9  H   UNK A   0      -8.527  10.909  66.881  1.00  0.00     0.000 HD 
HETATM   10  H2  UNK A   0      -8.674   9.351  61.396  1.00  0.00     0.000 HD 
HETATM   11  C   UNK A   0      -9.719  11.235  65.201  1.00  0.00    -0.244 C  
HETATM   12  O   UNK A   0     -12.376  11.656  62.880  1.00  0.00    -0.144 OA 
HETATM   13  C   UNK A   0     -10.896  11.770  64.776  1.00  0.00    -0.302 C  
HETATM   14  H1  UNK A   0      -7.598   9.110  62.795  1.00  0.00     0.000 HD 
HETATM   15  C   UNK A   0     -11.268  11.443  63.365  1.00  0.00    -0.157 C  
HETATM   16  N   UNK A   0      -8.894  10.472  64.412  1.00  0.00    -0.193 NA 
HETATM   17  N   UNK A   0      -8.434   9.515  62.374  1.00  0.00    -0.164 NA 
HETATM   18  N   UNK A   0     -10.318  10.817  62.618  1.00  0.00    -0.759 N  
ENDROOT
BRANCH   4  19
HETATM   19  C   UNK A   0     -12.121  13.479  68.021  1.00  0.00    -0.262 C  
BRANCH  19  20
HETATM   20  N   UNK A   0     -11.840  14.866  67.613  1.00  0.00    -0.456 NA 
HETATM   21  H   UNK A   0     -12.522  15.414  67.089  1.00  0.00     0.000 HD 
BRANCH  20  22
HETATM   22  C   UNK A   0     -10.598  15.399  67.974  1.00  0.00    -0.263 A  
HETATM   23  C   UNK A   0      -8.785  16.936  67.435  1.00  0.00    -0.213 A  
HETATM   24  C   UNK A   0      -8.245  16.749  68.712  1.00  0.00    -0.250 A  
HETATM   25  C   UNK A   0      -9.972  15.133  69.198  1.00  0.00    -0.238 A  
HETATM   26  C   UNK A   0      -9.952  16.252  67.071  1.00  0.00    -0.255 A  
HETATM   27  C   UNK A   0      -8.811  15.805  69.573  1.00  0.00    -0.169 A  
BRANCH  24  28
HETATM   28  C   UNK A   0      -7.078  17.552  69.148  1.00  0.00    -0.195 C  
ATOM     29  H   GLU A   1      -8.102  19.334  68.729  1.00  0.00     0.000 HD 
ATOM     30  N   GLU A   1      -7.212  18.929  69.017  1.00  0.00    -0.312 N  
HETATM   31  O   UNK A   0      -6.061  17.013  69.562  1.00  0.00    -0.209 OA 
BRANCH  30  32
ATOM     32  CA  GLU A   1      -6.056  19.801  69.297  1.00  0.00    -0.292 C  
ATOM     33  C   GLU A   1      -6.144  20.316  70.746  1.00  0.00    -0.271 C  
ATOM     34  O   GLU A   1      -7.410  20.325  71.232  1.00  0.00     0.261 OA 
ATOM     35  OXT GLU A   1      -5.210  20.818  71.357  1.00  0.00    -0.463 OA 
BRANCH  32  36
ATOM     36  CB  GLU A   1      -6.035  20.987  68.320  1.00  0.00    -0.374 C  
BRANCH  36  37
ATOM     37  CG  GLU A   1      -6.975  20.795  67.126  1.00  0.00    -0.406 C  
ATOM     38  CD  GLU A   1      -6.313  20.073  65.979  1.00  0.00    -0.204 C  
ATOM     39  OE2 GLU A   1      -5.156  19.686  65.967  1.00  0.00    -0.159 OA 
ATOM     40  OE1 GLU A   1      -7.159  19.884  64.941  1.00  0.00    -0.325 OA 
ENDBRANCH  36  37
ENDBRANCH  32  36
ENDBRANCH  30  32
ENDBRANCH  24  28
ENDBRANCH  20  22
ENDBRANCH  19  20
ENDBRANCH   4  19
TORSDOF 7
ENDMDL
MODEL      113
REMARK 921   NORMALIZED FREE ENERGY PREDICTED BY IDOCK:   -5.69 KCAL/MOL
REMARK 922        TOTAL FREE ENERGY PREDICTED BY IDOCK:   -9.28 KCAL/MOL
REMARK 923 INTER-LIGAND FREE ENERGY PREDICTED BY IDOCK:   -9.20 KCAL/MOL
REMARK 924 INTRA-LIGAND FREE ENERGY PREDICTED BY IDOCK:   -0.08 KCAL/MOL
REMARK 927      BINDING AFFINITY PREDICTED BY RF-SCORE:    0.00 PKD
ROOT
HETATM    1  C   UNK A   0     -10.817  17.442  65.082  1.00  0.00     0.142 C  
HETATM    2  N   UNK A   0      -9.890  16.947  65.988  1.00  0.00    -0.282 N  
HETATM    3  O   UNK A   0     -11.511  16.786  64.312  1.00  0.00    -1.125 OA 
HETATM    4  C   UNK A   0      -9.632  15.466  66.121  1.00  0.00    -0.329 C  
HETATM    5  C   UNK A   0      -9.537  15.109  67.622  1.00  0.00    -0.206 C  
HETATM    6  C   UNK A   0      -7.627  19.357  68.542  1.00  0.00    -0.334 C  
HETATM    7  H   UNK A   0      -8.334  20.980  67.506  1.00  0.00     0.000 HD 
HETATM    8  N   UNK A   0      -8.529  15.961  68.229  1.00  0.00    -0.167 NA 
HETATM    9  H   UNK A   0      -7.874  15.563  68.902  1.00  0.00     0.000 HD 
HETATM   10  H2  UNK A   0      -6.814  21.161  69.179  1.00  0.00     0.000 HD 
HETATM   11  C   UNK A   0      -8.443  17.307  67.909  1.00  0.00    -0.218 C  
HETATM   12  O   UNK A   0      -9.283  19.810  65.533  1.00  0.00    -0.237 OA 
HETATM   13  C   UNK A   0      -9.109  17.786  66.823  1.00  0.00    -0.262 C  
HETATM   14  H1  UNK A   0      -6.364  19.699  70.091  1.00  0.00     0.000 HD 
HETATM   15  C   UNK A   0      -8.937  19.249  66.568  1.00  0.00    -0.346 C  
HETATM   16  N   UNK A   0      -7.685  18.086  68.748  1.00  0.00    -0.289 NA 
HETATM   17  N   UNK A   0      -6.872  20.154  69.333  1.00  0.00    -0.227 NA 
HETATM   18  N   UNK A   0      -8.301  19.961  67.537  1.00  0.00    -0.315 N  
ENDROOT
BRANCH   4  19
HETATM   19  C   UNK A   0     -10.628  14.519  65.417  1.00  0.00    -0.370 C  
BRANCH  19  20
HETATM   20  N   UNK A   0      -9.982  13.275  64.967  1.00  0.00    -0.546 NA 
HETATM   21  H   UNK A   0      -9.523  13.213  64.058  1.00  0.00     0.000 HD 
BRANCH  20  22
HETATM   22  C   UNK A   0     -10.024  12.182  65.839  1.00  0.00    -0.245 A  
HETATM   23  C   UNK A   0     -10.271   9.772  66.105  1.00  0.00    -0.278 A  
HETATM   24  C   UNK A   0      -9.859   9.875  67.438  1.00  0.00    -0.223 A  
HETATM   25  C   UNK A   0      -9.735  12.276  67.206  1.00  0.00    -0.195 A  
HETATM   26  C   UNK A   0     -10.361  10.927  65.317  1.00  0.00    -0.334 A  
HETATM   27  C   UNK A   0      -9.643  11.135  68.001  1.00  0.00    -0.181 A  
BRANCH  24  28
HETATM   28  C   UNK A   0      -9.650   8.650  68.245  1.00  0.00    -0.147 C  
ATOM     29  H   GLU A   1     -10.506   7.467  66.739  1.00  0.00     0.000 HD 
ATOM     30  N   GLU A   1     -10.128   7.471  67.687  1.00  0.00    -0.173 N  
HETATM   31  O   UNK A   0      -9.118   8.704  69.346  1.00  0.00    -0.147 OA 
BRANCH  30  32
ATOM     32  CA  GLU A   1     -10.087   6.225  68.475  1.00  0.00    -0.157 C  
ATOM     33  C   GLU A   1     -10.004   5.019  67.519  1.00  0.00    -0.167 C  
ATOM     34  O   GLU A   1     -10.504   5.283  66.286  1.00  0.00    -0.256 OA 
ATOM     35  OXT GLU A   1      -9.676   3.891  67.861  1.00  0.00    -0.158 OA 
BRANCH  32  36
ATOM     36  CB  GLU A   1     -11.341   6.111  69.356  1.00  0.00    -0.401 C  
BRANCH  36  37
ATOM     37  CG  GLU A   1     -11.028   5.663  70.787  1.00  0.00    -0.257 C  
ATOM     38  CD  GLU A   1     -11.233   6.765  71.795  1.00  0.00    -0.259 C  
ATOM     39  OE2 GLU A   1     -11.593   7.901  71.531  1.00  0.00    -0.257 OA 
ATOM     40  OE1 GLU A   1     -10.981   6.352  73.059  1.00  0.00    -0.252 OA 
ENDBRANCH  36  37
ENDBRANCH  32  36
ENDBRANCH  30  32
ENDBRANCH  24  28
ENDBRANCH  20  22
ENDBRANCH  19  20
ENDBRANCH   4  19
TORSDOF 7
ENDMDL
MODEL      114
REMARK 921   NORMALIZED FREE ENERGY PREDICTED BY IDOCK:   -5.68 KCAL/MOL
REMARK 922        TOTAL FREE ENERGY PREDICTED BY IDOCK:   -9.27 KCAL/MOL
REMARK 923 INTER-LIGAND FREE ENERGY PREDICTED BY IDOCK:   -7.81 KCAL/MOL
REMARK 924 INTRA-LIGAND FREE ENERGY PREDICTED BY IDOCK:   -1.47 KCAL/MOL
REMARK 927      BINDING AFFINITY PREDICTED BY RF-SCORE:    0.00 PKD
ROOT
HETATM    1  C   UNK A   0     -10.871   5.995  68.634  1.00  0.00    -0.307 C  
HETATM    2  N   UNK A   0      -9.659   5.365  68.879  1.00  0.00    -0.132 N  
HETATM    3  O   UNK A   0     -11.649   6.438  69.474  1.00  0.00    -0.404 OA 
HETATM    4  C   UNK A   0      -9.151   5.153  70.285  1.00  0.00    -0.126 C  
HETATM    5  C   UNK A   0      -7.643   5.491  70.326  1.00  0.00    -0.080 C  
HETATM    6  C   UNK A   0      -7.141   3.933  65.869  1.00  0.00    -0.067 C  
HETATM    7  H   UNK A   0      -8.651   4.316  64.534  1.00  0.00     0.000 HD 
HETATM    8  N   UNK A   0      -6.972   4.701  69.308  1.00  0.00    -0.050 NA 
HETATM    9  H   UNK A   0      -6.075   4.266  69.521  1.00  0.00     0.000 HD 
HETATM   10  H2  UNK A   0      -6.697   3.339  63.928  1.00  0.00     0.000 HD 
HETATM   11  C   UNK A   0      -7.531   4.529  68.052  1.00  0.00    -0.069 C  
HETATM   12  O   UNK A   0     -10.518   4.658  66.134  1.00  0.00    -0.289 OA 
HETATM   13  C   UNK A   0      -8.835   4.857  67.843  1.00  0.00    -0.104 C  
HETATM   14  H1  UNK A   0      -5.409   3.166  65.146  1.00  0.00     0.000 HD 
HETATM   15  C   UNK A   0      -9.334   4.622  66.453  1.00  0.00    -0.149 C  
HETATM   16  N   UNK A   0      -6.697   4.045  67.075  1.00  0.00    -0.046 NA 
HETATM   17  N   UNK A   0      -6.357   3.437  64.884  1.00  0.00    -0.027 NA 
HETATM   18  N   UNK A   0      -8.398   4.292  65.522  1.00  0.00    -0.109 N  
ENDROOT
BRANCH   4  19
HETATM   19  C   UNK A   0      -9.890   5.904  71.413  1.00  0.00    -0.168 C  
BRANCH  19  20
HETATM   20  N   UNK A   0      -9.212   7.160  71.774  1.00  0.00    -0.140 NA 
HETATM   21  H   UNK A   0      -8.362   7.163  72.337  1.00  0.00     0.000 HD 
BRANCH  20  22
HETATM   22  C   UNK A   0      -9.785   8.350  71.312  1.00  0.00    -0.189 A  
HETATM   23  C   UNK A   0      -9.756  10.138  69.655  1.00  0.00    -0.250 A  
HETATM   24  C   UNK A   0     -10.997  10.588  70.117  1.00  0.00    -0.338 A  
HETATM   25  C   UNK A   0     -10.964   8.893  71.836  1.00  0.00    -0.439 A  
HETATM   26  C   UNK A   0      -9.152   9.029  70.262  1.00  0.00    -0.227 A  
HETATM   27  C   UNK A   0     -11.574   9.997  71.243  1.00  0.00    -0.430 A  
BRANCH  24  28
HETATM   28  C   UNK A   0     -11.696  11.687  69.409  1.00  0.00    -0.340 C  
ATOM     29  H   GLU A   1     -10.789  11.146  67.597  1.00  0.00     0.000 HD 
ATOM     30  N   GLU A   1     -11.387  11.829  68.062  1.00  0.00    -0.263 N  
HETATM   31  O   UNK A   0     -12.466  12.429  70.003  1.00  0.00    -0.116 OA 
BRANCH  30  32
ATOM     32  CA  GLU A   1     -11.930  12.976  67.309  1.00  0.00    -0.321 C  
ATOM     33  C   GLU A   1     -12.121  12.574  65.834  1.00  0.00    -0.352 C  
ATOM     34  O   GLU A   1     -11.313  11.554  65.452  1.00  0.00    -0.207 OA 
ATOM     35  OXT GLU A   1     -12.804  13.198  65.034  1.00  0.00    -0.692 OA 
BRANCH  32  36
ATOM     36  CB  GLU A   1     -10.975  14.176  67.407  1.00  0.00    -0.306 C  
BRANCH  36  37
ATOM     37  CG  GLU A   1     -11.532  15.316  68.264  1.00  0.00    -0.359 C  
ATOM     38  CD  GLU A   1     -10.636  15.655  69.429  1.00  0.00    -0.253 C  
ATOM     39  OE2 GLU A   1      -9.586  15.091  69.694  1.00  0.00    -0.151 OA 
ATOM     40  OE1 GLU A   1     -11.122  16.681  70.164  1.00  0.00    -0.310 OA 
ENDBRANCH  36  37
ENDBRANCH  32  36
ENDBRANCH  30  32
ENDBRANCH  24  28
ENDBRANCH  20  22
ENDBRANCH  19  20
ENDBRANCH   4  19
TORSDOF 7
ENDMDL
MODEL      115
REMARK 921   NORMALIZED FREE ENERGY PREDICTED BY IDOCK:   -5.64 KCAL/MOL
REMARK 922        TOTAL FREE ENERGY PREDICTED BY IDOCK:   -9.22 KCAL/MOL
REMARK 923 INTER-LIGAND FREE ENERGY PREDICTED BY IDOCK:   -8.80 KCAL/MOL
REMARK 924 INTRA-LIGAND FREE ENERGY PREDICTED BY IDOCK:   -0.41 KCAL/MOL
REMARK 927      BINDING AFFINITY PREDICTED BY RF-SCORE:    0.00 PKD
ROOT
HETATM    1  C   UNK A   0      -9.730   6.228  68.677  1.00  0.00    -0.127 C  
HETATM    2  N   UNK A   0      -9.113   7.369  69.171  1.00  0.00    -0.135 N  
HETATM    3  O   UNK A   0      -9.979   5.981  67.501  1.00  0.00    -0.120 OA 
HETATM    4  C   UNK A   0      -8.661   8.479  68.255  1.00  0.00    -0.143 C  
HETATM    5  C   UNK A   0      -7.258   8.953  68.699  1.00  0.00    -0.072 C  
HETATM    6  C   UNK A   0      -8.344   8.018  73.226  1.00  0.00    -0.211 C  
HETATM    7  H   UNK A   0      -9.480   6.357  73.625  1.00  0.00     0.000 HD 
HETATM    8  N   UNK A   0      -7.324   9.310  70.106  1.00  0.00    -0.082 NA 
HETATM    9  H   UNK A   0      -6.844  10.148  70.433  1.00  0.00     0.000 HD 
HETATM   10  H2  UNK A   0      -8.587   7.653  75.257  1.00  0.00     0.000 HD 
HETATM   11  C   UNK A   0      -8.026   8.530  71.010  1.00  0.00    -0.117 C  
HETATM   12  O   UNK A   0     -10.559   6.070  71.407  1.00  0.00    -0.228 OA 
HETATM   13  C   UNK A   0      -8.891   7.583  70.555  1.00  0.00    -0.147 C  
HETATM   14  H1  UNK A   0      -7.516   8.999  74.795  1.00  0.00     0.000 HD 
HETATM   15  C   UNK A   0      -9.600   6.807  71.619  1.00  0.00    -0.162 C  
HETATM   16  N   UNK A   0      -7.775   8.762  72.340  1.00  0.00    -0.360 NA 
HETATM   17  N   UNK A   0      -8.140   8.231  74.546  1.00  0.00    -0.363 NA 
HETATM   18  N   UNK A   0      -9.170   6.999  72.896  1.00  0.00    -0.137 N  
ENDROOT
BRANCH   4  19
HETATM   19  C   UNK A   0      -8.659   8.176  66.741  1.00  0.00    -0.132 C  
BRANCH  19  20
HETATM   20  N   UNK A   0      -9.953   8.494  66.114  1.00  0.00    -0.468 NA 
HETATM   21  H   UNK A   0     -10.644   7.768  65.922  1.00  0.00     0.000 HD 
BRANCH  20  22
HETATM   22  C   UNK A   0     -10.195   9.834  65.794  1.00  0.00    -0.152 A  
HETATM   23  C   UNK A   0     -10.897  12.038  66.563  1.00  0.00    -0.314 A  
HETATM   24  C   UNK A   0     -10.459  12.599  65.359  1.00  0.00    -0.306 A  
HETATM   25  C   UNK A   0      -9.880  10.399  64.551  1.00  0.00    -0.405 A  
HETATM   26  C   UNK A   0     -10.772  10.658  66.769  1.00  0.00    -0.272 A  
HETATM   27  C   UNK A   0     -10.001  11.769  64.333  1.00  0.00    -0.281 A  
BRANCH  24  28
HETATM   28  C   UNK A   0     -10.481  14.070  65.177  1.00  0.00    -0.397 C  
ATOM     29  H   GLU A   1      -8.893  14.298  66.527  1.00  0.00     0.000 HD 
ATOM     30  N   GLU A   1      -9.579  14.787  65.952  1.00  0.00    -0.307 N  
HETATM   31  O   UNK A   0     -11.276  14.598  64.410  1.00  0.00    -0.296 OA 
BRANCH  30  32
ATOM     32  CA  GLU A   1      -9.620  16.262  65.939  1.00  0.00    -0.301 C  
ATOM     33  C   GLU A   1      -8.204  16.815  66.182  1.00  0.00    -0.264 C  
ATOM     34  O   GLU A   1      -7.402  15.948  66.850  1.00  0.00    -0.216 OA 
ATOM     35  OXT GLU A   1      -7.865  17.967  65.951  1.00  0.00    -0.511 OA 
BRANCH  32  36
ATOM     36  CB  GLU A   1     -10.578  16.777  67.024  1.00  0.00    -0.234 C  
BRANCH  36  37
ATOM     37  CG  GLU A   1      -9.866  17.575  68.122  1.00  0.00    -0.306 C  
ATOM     38  CD  GLU A   1     -10.191  19.046  68.070  1.00  0.00    -0.399 C  
ATOM     39  OE2 GLU A   1     -10.924  19.575  67.249  1.00  0.00    -0.499 OA 
ATOM     40  OE1 GLU A   1      -9.580  19.738  69.059  1.00  0.00    -0.340 OA 
ENDBRANCH  36  37
ENDBRANCH  32  36
ENDBRANCH  30  32
ENDBRANCH  24  28
ENDBRANCH  20  22
ENDBRANCH  19  20
ENDBRANCH   4  19
TORSDOF 7
ENDMDL
MODEL      116
REMARK 921   NORMALIZED FREE ENERGY PREDICTED BY IDOCK:   -5.63 KCAL/MOL
REMARK 922        TOTAL FREE ENERGY PREDICTED BY IDOCK:   -9.20 KCAL/MOL
REMARK 923 INTER-LIGAND FREE ENERGY PREDICTED BY IDOCK:   -8.01 KCAL/MOL
REMARK 924 INTRA-LIGAND FREE ENERGY PREDICTED BY IDOCK:   -1.20 KCAL/MOL
REMARK 927      BINDING AFFINITY PREDICTED BY RF-SCORE:    0.00 PKD
ROOT
HETATM    1  C   UNK A   0     -10.439   6.125  66.666  1.00  0.00    -0.202 C  
HETATM    2  N   UNK A   0      -9.290   6.415  65.944  1.00  0.00    -0.367 N  
HETATM    3  O   UNK A   0     -11.035   6.881  67.428  1.00  0.00    -0.307 OA 
HETATM    4  C   UNK A   0      -8.626   7.767  66.029  1.00  0.00    -0.151 C  
HETATM    5  C   UNK A   0      -8.219   8.213  64.606  1.00  0.00    -0.125 C  
HETATM    6  C   UNK A   0      -7.413   3.696  63.387  1.00  0.00    -0.055 C  
HETATM    7  H   UNK A   0      -8.675   2.255  64.122  1.00  0.00     0.000 HD 
HETATM    8  N   UNK A   0      -7.401   7.167  64.018  1.00  0.00    -0.074 NA 
HETATM    9  H   UNK A   0      -6.572   7.420  63.480  1.00  0.00     0.000 HD 
HETATM   10  H2  UNK A   0      -7.032   1.799  62.627  1.00  0.00     0.000 HD 
HETATM   11  C   UNK A   0      -7.729   5.829  64.174  1.00  0.00    -0.097 C  
HETATM   12  O   UNK A   0      -9.552   3.468  66.103  1.00  0.00    -0.168 OA 
HETATM   13  C   UNK A   0      -8.651   5.465  65.107  1.00  0.00    -0.149 C  
HETATM   14  H1  UNK A   0      -6.076   3.147  61.964  1.00  0.00     0.000 HD 
HETATM   15  C   UNK A   0      -8.920   3.997  65.193  1.00  0.00    -0.133 C  
HETATM   16  N   UNK A   0      -7.095   4.944  63.337  1.00  0.00    -0.047 NA 
HETATM   17  N   UNK A   0      -6.793   2.790  62.595  1.00  0.00    -0.026 NA 
HETATM   18  N   UNK A   0      -8.364   3.222  64.223  1.00  0.00    -0.089 N  
ENDROOT
BRANCH   4  19
HETATM   19  C   UNK A   0      -9.422   8.891  66.726  1.00  0.00    -0.187 C  
BRANCH  19  20
HETATM   20  N   UNK A   0     -10.347   9.566  65.801  1.00  0.00    -0.188 NA 
HETATM   21  H   UNK A   0     -11.056   9.045  65.284  1.00  0.00     0.000 HD 
BRANCH  20  22
HETATM   22  C   UNK A   0     -10.214  10.951  65.662  1.00  0.00    -0.263 A  
HETATM   23  C   UNK A   0     -10.619  12.929  64.296  1.00  0.00    -0.430 A  
HETATM   24  C   UNK A   0     -10.259  13.748  65.372  1.00  0.00    -0.344 A  
HETATM   25  C   UNK A   0      -9.740  11.787  66.681  1.00  0.00    -0.219 A  
HETATM   26  C   UNK A   0     -10.584  11.536  64.444  1.00  0.00    -0.392 A  
HETATM   27  C   UNK A   0      -9.767  13.173  66.546  1.00  0.00    -0.268 A  
BRANCH  24  28
HETATM   28  C   UNK A   0     -10.401  15.219  65.263  1.00  0.00    -0.401 C  
ATOM     29  H   GLU A   1      -8.822  15.509  66.612  1.00  0.00     0.000 HD 
ATOM     30  N   GLU A   1      -9.552  15.968  66.067  1.00  0.00    -0.327 N  
HETATM   31  O   UNK A   0     -11.244  15.717  64.529  1.00  0.00    -0.432 OA 
BRANCH  30  32
ATOM     32  CA  GLU A   1      -9.712  17.434  66.127  1.00  0.00    -0.217 C  
ATOM     33  C   GLU A   1      -8.323  18.099  66.157  1.00  0.00    -0.122 C  
ATOM     34  O   GLU A   1      -7.354  17.284  66.643  1.00  0.00    -0.194 OA 
ATOM     35  OXT GLU A   1      -8.122  19.283  65.925  1.00  0.00    -0.432 OA 
BRANCH  32  36
ATOM     36  CB  GLU A   1     -10.511  17.830  67.378  1.00  0.00    -0.367 C  
BRANCH  36  37
ATOM     37  CG  GLU A   1     -10.039  17.108  68.644  1.00  0.00    -0.329 C  
ATOM     38  CD  GLU A   1     -10.969  15.993  69.053  1.00  0.00    -0.296 C  
ATOM     39  OE2 GLU A   1     -11.997  15.687  68.472  1.00  0.00    -0.313 OA 
ATOM     40  OE1 GLU A   1     -10.530  15.344  70.156  1.00  0.00    -0.297 OA 
ENDBRANCH  36  37
ENDBRANCH  32  36
ENDBRANCH  30  32
ENDBRANCH  24  28
ENDBRANCH  20  22
ENDBRANCH  19  20
ENDBRANCH   4  19
TORSDOF 7
ENDMDL
MODEL      117
REMARK 921   NORMALIZED FREE ENERGY PREDICTED BY IDOCK:   -5.62 KCAL/MOL
REMARK 922        TOTAL FREE ENERGY PREDICTED BY IDOCK:   -9.19 KCAL/MOL
REMARK 923 INTER-LIGAND FREE ENERGY PREDICTED BY IDOCK:   -8.27 KCAL/MOL
REMARK 924 INTRA-LIGAND FREE ENERGY PREDICTED BY IDOCK:   -0.92 KCAL/MOL
REMARK 927      BINDING AFFINITY PREDICTED BY RF-SCORE:    0.00 PKD
ROOT
HETATM    1  C   UNK A   0     -10.661  16.811  65.015  1.00  0.00    -0.100 C  
HETATM    2  N   UNK A   0     -10.337  16.042  66.124  1.00  0.00    -0.313 N  
HETATM    3  O   UNK A   0     -11.523  16.561  64.178  1.00  0.00    -1.059 OA 
HETATM    4  C   UNK A   0     -11.055  14.749  66.424  1.00  0.00    -0.340 C  
HETATM    5  C   UNK A   0     -11.362  14.689  67.939  1.00  0.00    -0.315 C  
HETATM    6  C   UNK A   0      -7.365  17.077  68.872  1.00  0.00    -0.245 C  
HETATM    7  H   UNK A   0      -6.813  18.579  67.589  1.00  0.00     0.000 HD 
HETATM    8  N   UNK A   0     -10.116  14.879  68.662  1.00  0.00    -0.230 NA 
HETATM    9  H   UNK A   0      -9.920  14.304  69.481  1.00  0.00     0.000 HD 
HETATM   10  H2  UNK A   0      -5.693  18.134  69.510  1.00  0.00     0.000 HD 
HETATM   11  C   UNK A   0      -9.190  15.827  68.258  1.00  0.00    -0.188 C  
HETATM   12  O   UNK A   0      -8.059  17.853  65.568  1.00  0.00    -0.334 OA 
HETATM   13  C   UNK A   0      -9.301  16.396  67.026  1.00  0.00    -0.228 C  
HETATM   14  H1  UNK A   0      -6.334  16.887  70.608  1.00  0.00     0.000 HD 
HETATM   15  C   UNK A   0      -8.244  17.399  66.693  1.00  0.00    -0.256 C  
HETATM   16  N   UNK A   0      -8.211  16.148  69.164  1.00  0.00    -0.240 NA 
HETATM   17  N   UNK A   0      -6.371  17.405  69.730  1.00  0.00    -0.206 NA 
HETATM   18  N   UNK A   0      -7.415  17.764  67.709  1.00  0.00    -0.200 N  
ENDROOT
BRANCH   4  19
HETATM   19  C   UNK A   0     -12.339  14.462  65.615  1.00  0.00    -0.337 C  
BRANCH  19  20
HETATM   20  N   UNK A   0     -12.090  13.531  64.502  1.00  0.00    -0.403 NA 
HETATM   21  H   UNK A   0     -12.539  13.656  63.594  1.00  0.00     0.000 HD 
BRANCH  20  22
HETATM   22  C   UNK A   0     -11.213  12.468  64.742  1.00  0.00    -0.306 A  
HETATM   23  C   UNK A   0     -10.530  10.662  66.229  1.00  0.00    -0.268 A  
HETATM   24  C   UNK A   0      -9.703  10.146  65.225  1.00  0.00    -0.365 A  
HETATM   25  C   UNK A   0     -10.287  12.005  63.799  1.00  0.00    -0.457 A  
HETATM   26  C   UNK A   0     -11.271  11.825  65.985  1.00  0.00    -0.352 A  
HETATM   27  C   UNK A   0      -9.542  10.850  64.030  1.00  0.00    -0.321 A  
BRANCH  24  28
HETATM   28  C   UNK A   0      -9.004   8.855  65.432  1.00  0.00    -0.182 C  
ATOM     29  H   GLU A   1      -9.590   8.819  67.445  1.00  0.00     0.000 HD 
ATOM     30  N   GLU A   1      -9.033   8.355  66.727  1.00  0.00    -0.139 N  
HETATM   31  O   UNK A   0      -8.418   8.302  64.511  1.00  0.00    -0.127 OA 
BRANCH  30  32
ATOM     32  CA  GLU A   1      -8.253   7.147  67.058  1.00  0.00    -0.117 C  
ATOM     33  C   GLU A   1      -9.048   6.282  68.054  1.00  0.00    -0.112 C  
ATOM     34  O   GLU A   1      -9.944   6.995  68.780  1.00  0.00    -0.153 OA 
ATOM     35  OXT GLU A   1      -8.802   5.108  68.294  1.00  0.00    -0.102 OA 
BRANCH  32  36
ATOM     36  CB  GLU A   1      -6.899   7.540  67.669  1.00  0.00    -0.071 C  
BRANCH  36  37
ATOM     37  CG  GLU A   1      -6.799   9.035  67.992  1.00  0.00    -0.069 C  
ATOM     38  CD  GLU A   1      -5.892   9.772  67.040  1.00  0.00    -0.051 C  
ATOM     39  OE2 GLU A   1      -5.279   9.262  66.115  1.00  0.00    -0.035 OA 
ATOM     40  OE1 GLU A   1      -5.831  11.095  67.316  1.00  0.00    -0.051 OA 
ENDBRANCH  36  37
ENDBRANCH  32  36
ENDBRANCH  30  32
ENDBRANCH  24  28
ENDBRANCH  20  22
ENDBRANCH  19  20
ENDBRANCH   4  19
TORSDOF 7
ENDMDL
MODEL      118
REMARK 921   NORMALIZED FREE ENERGY PREDICTED BY IDOCK:   -5.62 KCAL/MOL
REMARK 922        TOTAL FREE ENERGY PREDICTED BY IDOCK:   -9.19 KCAL/MOL
REMARK 923 INTER-LIGAND FREE ENERGY PREDICTED BY IDOCK:   -8.08 KCAL/MOL
REMARK 924 INTRA-LIGAND FREE ENERGY PREDICTED BY IDOCK:   -1.11 KCAL/MOL
REMARK 927      BINDING AFFINITY PREDICTED BY RF-SCORE:    0.00 PKD
ROOT
HETATM    1  C   UNK A   0      -9.409   5.221  69.170  1.00  0.00    -0.123 C  
HETATM    2  N   UNK A   0      -9.670   5.308  70.530  1.00  0.00    -0.177 N  
HETATM    3  O   UNK A   0     -10.058   5.737  68.265  1.00  0.00    -0.142 OA 
HETATM    4  C   UNK A   0     -10.846   6.092  71.058  1.00  0.00    -0.279 C  
HETATM    5  C   UNK A   0     -10.389   6.909  72.289  1.00  0.00    -0.196 C  
HETATM    6  C   UNK A   0      -7.322   3.479  73.462  1.00  0.00    -0.056 C  
HETATM    7  H   UNK A   0      -6.334   2.507  71.951  1.00  0.00     0.000 HD 
HETATM    8  N   UNK A   0      -9.787   5.994  73.243  1.00  0.00    -0.160 NA 
HETATM    9  H   UNK A   0      -9.991   6.099  74.237  1.00  0.00     0.000 HD 
HETATM   10  H2  UNK A   0      -5.895   2.130  74.143  1.00  0.00     0.000 HD 
HETATM   11  C   UNK A   0      -8.938   4.981  72.826  1.00  0.00    -0.120 C  
HETATM   12  O   UNK A   0      -7.904   2.971  70.085  1.00  0.00    -0.043 OA 
HETATM   13  C   UNK A   0      -8.878   4.652  71.507  1.00  0.00    -0.124 C  
HETATM   14  H1  UNK A   0      -6.727   3.121  75.368  1.00  0.00     0.000 HD 
HETATM   15  C   UNK A   0      -7.936   3.539  71.172  1.00  0.00    -0.059 C  
HETATM   16  N   UNK A   0      -8.182   4.378  73.801  1.00  0.00    -0.096 NA 
HETATM   17  N   UNK A   0      -6.576   2.846  74.397  1.00  0.00    -0.028 NA 
HETATM   18  N   UNK A   0      -7.120   3.116  72.176  1.00  0.00    -0.037 N  
ENDROOT
BRANCH   4  19
HETATM   19  C   UNK A   0     -11.575   7.013  70.056  1.00  0.00    -0.178 C  
BRANCH  19  20
HETATM   20  N   UNK A   0     -11.728   8.382  70.577  1.00  0.00    -0.466 NA 
HETATM   21  H   UNK A   0     -12.072   8.556  71.522  1.00  0.00     0.000 HD 
BRANCH  20  22
HETATM   22  C   UNK A   0     -11.382   9.433  69.721  1.00  0.00    -0.042 A  
HETATM   23  C   UNK A   0     -11.415  11.833  69.294  1.00  0.00    -0.369 A  
HETATM   24  C   UNK A   0     -10.515  11.658  68.238  1.00  0.00    -0.223 A  
HETATM   25  C   UNK A   0     -10.581   9.270  68.584  1.00  0.00    -0.219 A  
HETATM   26  C   UNK A   0     -11.852  10.718  70.022  1.00  0.00    -0.424 A  
HETATM   27  C   UNK A   0     -10.142  10.369  67.851  1.00  0.00    -0.200 A  
BRANCH  24  28
HETATM   28  C   UNK A   0      -9.960  12.840  67.536  1.00  0.00    -0.210 C  
ATOM     29  H   GLU A   1     -11.815  13.813  67.628  1.00  0.00     0.000 HD 
ATOM     30  N   GLU A   1     -10.862  13.861  67.267  1.00  0.00    -0.284 N  
HETATM   31  O   UNK A   0      -8.785  12.876  67.196  1.00  0.00    -0.195 OA 
BRANCH  30  32
ATOM     32  CA  GLU A   1     -10.433  15.016  66.455  1.00  0.00    -0.294 C  
ATOM     33  C   GLU A   1     -10.562  16.303  67.290  1.00  0.00    -0.298 C  
ATOM     34  O   GLU A   1     -11.474  16.201  68.289  1.00  0.00    -0.348 OA 
ATOM     35  OXT GLU A   1     -10.027  17.366  67.003  1.00  0.00    -0.274 OA 
BRANCH  32  36
ATOM     36  CB  GLU A   1     -11.296  15.124  65.188  1.00  0.00    -0.357 C  
BRANCH  36  37
ATOM     37  CG  GLU A   1     -12.474  14.145  65.180  1.00  0.00    -0.453 C  
ATOM     38  CD  GLU A   1     -12.281  13.016  64.200  1.00  0.00    -0.401 C  
ATOM     39  OE2 GLU A   1     -11.313  12.878  63.469  1.00  0.00    -0.443 OA 
ATOM     40  OE1 GLU A   1     -13.313  12.142  64.219  1.00  0.00    -0.761 OA 
ENDBRANCH  36  37
ENDBRANCH  32  36
ENDBRANCH  30  32
ENDBRANCH  24  28
ENDBRANCH  20  22
ENDBRANCH  19  20
ENDBRANCH   4  19
TORSDOF 7
ENDMDL
MODEL      119
REMARK 921   NORMALIZED FREE ENERGY PREDICTED BY IDOCK:   -5.60 KCAL/MOL
REMARK 922        TOTAL FREE ENERGY PREDICTED BY IDOCK:   -9.16 KCAL/MOL
REMARK 923 INTER-LIGAND FREE ENERGY PREDICTED BY IDOCK:   -8.27 KCAL/MOL
REMARK 924 INTRA-LIGAND FREE ENERGY PREDICTED BY IDOCK:   -0.89 KCAL/MOL
REMARK 927      BINDING AFFINITY PREDICTED BY RF-SCORE:    0.00 PKD
ROOT
HETATM    1  C   UNK A   0     -11.146  16.623  64.878  1.00  0.00    -0.129 C  
HETATM    2  N   UNK A   0     -10.638  16.464  66.160  1.00  0.00    -0.291 N  
HETATM    3  O   UNK A   0     -11.244  15.754  64.016  1.00  0.00    -0.184 OA 
HETATM    4  C   UNK A   0     -10.128  15.129  66.645  1.00  0.00    -0.264 C  
HETATM    5  C   UNK A   0     -10.637  14.895  68.086  1.00  0.00    -0.244 C  
HETATM    6  C   UNK A   0     -10.398  19.556  68.959  1.00  0.00    -0.097 C  
HETATM    7  H   UNK A   0     -10.921  20.850  67.455  1.00  0.00     0.000 HD 
HETATM    8  N   UNK A   0     -10.241  16.032  68.898  1.00  0.00    -0.219 NA 
HETATM    9  H   UNK A   0      -9.885  15.876  69.841  1.00  0.00     0.000 HD 
HETATM   10  H2  UNK A   0     -10.404  21.548  69.550  1.00  0.00     0.000 HD 
HETATM   11  C   UNK A   0     -10.337  17.327  68.413  1.00  0.00    -0.366 C  
HETATM   12  O   UNK A   0     -10.579  19.352  65.505  1.00  0.00    -0.493 OA 
HETATM   13  C   UNK A   0     -10.535  17.535  67.083  1.00  0.00    -0.312 C  
HETATM   14  H1  UNK A   0     -10.084  20.328  70.807  1.00  0.00     0.000 HD 
HETATM   15  C   UNK A   0     -10.615  18.971  66.671  1.00  0.00    -0.416 C  
HETATM   16  N   UNK A   0     -10.243  18.334  69.341  1.00  0.00    -0.309 NA 
HETATM   17  N   UNK A   0     -10.288  20.578  69.839  1.00  0.00    -0.315 NA 
HETATM   18  N   UNK A   0     -10.669  19.886  67.676  1.00  0.00    -0.335 N  
ENDROOT
BRANCH   4  19
HETATM   19  C   UNK A   0     -10.450  13.900  65.767  1.00  0.00    -0.307 C  
BRANCH  19  20
HETATM   20  N   UNK A   0     -11.348  12.954  66.451  1.00  0.00    -0.304 NA 
HETATM   21  H   UNK A   0     -12.256  13.249  66.810  1.00  0.00     0.000 HD 
BRANCH  20  22
HETATM   22  C   UNK A   0     -10.903  11.635  66.587  1.00  0.00    -0.283 A  
HETATM   23  C   UNK A   0     -10.882   9.599  67.927  1.00  0.00    -0.272 A  
HETATM   24  C   UNK A   0     -10.310   8.900  66.860  1.00  0.00    -0.332 A  
HETATM   25  C   UNK A   0     -10.217  10.945  65.579  1.00  0.00    -0.332 A  
HETATM   26  C   UNK A   0     -11.166  10.965  67.788  1.00  0.00    -0.384 A  
HETATM   27  C   UNK A   0      -9.928   9.588  65.706  1.00  0.00    -0.316 A  
BRANCH  24  28
HETATM   28  C   UNK A   0     -10.112   7.435  66.956  1.00  0.00    -0.258 C  
ATOM     29  H   GLU A   1      -8.041   7.661  66.717  1.00  0.00     0.000 HD 
ATOM     30  N   GLU A   1      -8.806   6.990  66.796  1.00  0.00    -0.121 N  
HETATM   31  O   UNK A   0     -11.061   6.681  67.132  1.00  0.00    -0.392 OA 
BRANCH  30  32
ATOM     32  CA  GLU A   1      -8.532   5.542  66.741  1.00  0.00    -0.111 C  
ATOM     33  C   GLU A   1      -7.602   5.153  67.906  1.00  0.00    -0.084 C  
ATOM     34  O   GLU A   1      -6.852   6.189  68.356  1.00  0.00    -0.068 OA 
ATOM     35  OXT GLU A   1      -7.426   4.006  68.293  1.00  0.00    -0.059 OA 
BRANCH  32  36
ATOM     36  CB  GLU A   1      -7.875   5.175  65.402  1.00  0.00    -0.089 C  
BRANCH  36  37
ATOM     37  CG  GLU A   1      -8.883   5.055  64.254  1.00  0.00    -0.066 C  
ATOM     38  CD  GLU A   1      -9.592   3.724  64.244  1.00  0.00    -0.166 C  
ATOM     39  OE2 GLU A   1      -9.396   2.818  65.038  1.00  0.00    -0.150 OA 
ATOM     40  OE1 GLU A   1     -10.499   3.637  63.244  1.00  0.00    -0.201 OA 
ENDBRANCH  36  37
ENDBRANCH  32  36
ENDBRANCH  30  32
ENDBRANCH  24  28
ENDBRANCH  20  22
ENDBRANCH  19  20
ENDBRANCH   4  19
TORSDOF 7
ENDMDL
MODEL      120
REMARK 921   NORMALIZED FREE ENERGY PREDICTED BY IDOCK:   -5.60 KCAL/MOL
REMARK 922        TOTAL FREE ENERGY PREDICTED BY IDOCK:   -9.15 KCAL/MOL
REMARK 923 INTER-LIGAND FREE ENERGY PREDICTED BY IDOCK:   -8.03 KCAL/MOL
REMARK 924 INTRA-LIGAND FREE ENERGY PREDICTED BY IDOCK:   -1.12 KCAL/MOL
REMARK 927      BINDING AFFINITY PREDICTED BY RF-SCORE:    0.00 PKD
ROOT
HETATM    1  C   UNK A   0     -11.527  15.184  64.756  1.00  0.00    -0.383 C  
HETATM    2  N   UNK A   0     -10.798  15.148  65.936  1.00  0.00    -0.330 N  
HETATM    3  O   UNK A   0     -11.723  14.247  63.987  1.00  0.00    -0.301 OA 
HETATM    4  C   UNK A   0     -10.139  13.879  66.417  1.00  0.00    -0.295 C  
HETATM    5  C   UNK A   0     -10.379  13.737  67.938  1.00  0.00    -0.244 C  
HETATM    6  C   UNK A   0     -10.254  18.459  68.426  1.00  0.00    -0.378 C  
HETATM    7  H   UNK A   0     -11.100  19.606  66.951  1.00  0.00     0.000 HD 
HETATM    8  N   UNK A   0      -9.913  14.951  68.585  1.00  0.00    -0.218 NA 
HETATM    9  H   UNK A   0      -9.392  14.885  69.460  1.00  0.00     0.000 HD 
HETATM   10  H2  UNK A   0     -10.271  20.489  68.868  1.00  0.00     0.000 HD 
HETATM   11  C   UNK A   0     -10.163  16.198  68.035  1.00  0.00    -0.252 C  
HETATM   12  O   UNK A   0     -11.015  17.976  65.080  1.00  0.00    -0.645 OA 
HETATM   13  C   UNK A   0     -10.599  16.293  66.749  1.00  0.00    -0.257 C  
HETATM   14  H1  UNK A   0      -9.672  19.387  70.132  1.00  0.00     0.000 HD 
HETATM   15  C   UNK A   0     -10.829  17.686  66.258  1.00  0.00     0.069 C  
HETATM   16  N   UNK A   0      -9.968  17.279  68.859  1.00  0.00    -0.309 NA 
HETATM   17  N   UNK A   0     -10.053  19.550  69.200  1.00  0.00    -0.606 NA 
HETATM   18  N   UNK A   0     -10.760  18.675  67.191  1.00  0.00    -0.413 N  
ENDROOT
BRANCH   4  19
HETATM   19  C   UNK A   0     -10.537  12.572  65.697  1.00  0.00    -0.269 C  
BRANCH  19  20
HETATM   20  N   UNK A   0     -10.874  11.500  66.649  1.00  0.00    -0.276 NA 
HETATM   21  H   UNK A   0     -11.642  11.600  67.312  1.00  0.00     0.000 HD 
BRANCH  20  22
HETATM   22  C   UNK A   0     -10.095  10.339  66.604  1.00  0.00    -0.223 A  
HETATM   23  C   UNK A   0      -9.940   7.948  67.052  1.00  0.00    -0.322 A  
HETATM   24  C   UNK A   0      -8.748   7.887  66.324  1.00  0.00    -0.174 A  
HETATM   25  C   UNK A   0      -8.839  10.276  65.988  1.00  0.00    -0.166 A  
HETATM   26  C   UNK A   0     -10.601   9.175  67.196  1.00  0.00    -0.286 A  
HETATM   27  C   UNK A   0      -8.171   9.063  65.839  1.00  0.00    -0.118 A  
BRANCH  24  28
HETATM   28  C   UNK A   0      -8.102   6.577  66.068  1.00  0.00    -0.121 C  
ATOM     29  H   GLU A   1      -9.972   5.633  65.972  1.00  0.00     0.000 HD 
ATOM     30  N   GLU A   1      -8.962   5.491  65.965  1.00  0.00    -0.149 N  
HETATM   31  O   UNK A   0      -6.885   6.480  65.989  1.00  0.00    -0.054 OA 
BRANCH  30  32
ATOM     32  CA  GLU A   1      -8.404   4.131  65.846  1.00  0.00    -0.109 C  
ATOM     33  C   GLU A   1      -9.181   3.353  64.767  1.00  0.00    -0.142 C  
ATOM     34  O   GLU A   1     -10.437   3.825  64.572  1.00  0.00    -0.225 OA 
ATOM     35  OXT GLU A   1      -8.786   2.319  64.245  1.00  0.00    -0.095 OA 
BRANCH  32  36
ATOM     36  CB  GLU A   1      -8.499   3.397  67.192  1.00  0.00    -0.107 C  
BRANCH  36  37
ATOM     37  CG  GLU A   1      -9.658   3.893  68.064  1.00  0.00    -0.189 C  
ATOM     38  CD  GLU A   1      -9.184   4.544  69.339  1.00  0.00    -0.129 C  
ATOM     39  OE2 GLU A   1      -8.017   4.664  69.675  1.00  0.00    -0.064 OA 
ATOM     40  OE1 GLU A   1     -10.212   5.003  70.089  1.00  0.00    -0.251 OA 
ENDBRANCH  36  37
ENDBRANCH  32  36
ENDBRANCH  30  32
ENDBRANCH  24  28
ENDBRANCH  20  22
ENDBRANCH  19  20
ENDBRANCH   4  19
TORSDOF 7
ENDMDL
MODEL      121
REMARK 921   NORMALIZED FREE ENERGY PREDICTED BY IDOCK:   -5.59 KCAL/MOL
REMARK 922        TOTAL FREE ENERGY PREDICTED BY IDOCK:   -9.15 KCAL/MOL
REMARK 923 INTER-LIGAND FREE ENERGY PREDICTED BY IDOCK:   -8.23 KCAL/MOL
REMARK 924 INTRA-LIGAND FREE ENERGY PREDICTED BY IDOCK:   -0.92 KCAL/MOL
REMARK 927      BINDING AFFINITY PREDICTED BY RF-SCORE:    0.00 PKD
ROOT
HETATM    1  C   UNK A   0     -11.323  13.597  67.457  1.00  0.00    -0.308 C  
HETATM    2  N   UNK A   0     -11.529  13.039  68.712  1.00  0.00    -0.276 N  
HETATM    3  O   UNK A   0     -10.744  13.072  66.510  1.00  0.00    -0.274 OA 
HETATM    4  C   UNK A   0     -11.034  11.654  69.050  1.00  0.00    -0.233 C  
HETATM    5  C   UNK A   0     -12.139  10.907  69.832  1.00  0.00    -0.354 C  
HETATM    6  C   UNK A   0     -13.540  14.990  71.811  1.00  0.00    -0.429 C  
HETATM    7  H   UNK A   0     -13.510  16.685  70.657  1.00  0.00     0.000 HD 
HETATM    8  N   UNK A   0     -12.513  11.719  70.977  1.00  0.00    -0.359 NA 
HETATM    9  H   UNK A   0     -12.671  11.271  71.880  1.00  0.00     0.000 HD 
HETATM   10  H2  UNK A   0     -14.340  16.653  72.766  1.00  0.00     0.000 HD 
HETATM   11  C   UNK A   0     -12.659  13.093  70.864  1.00  0.00    -0.295 C  
HETATM   12  O   UNK A   0     -11.853  15.974  68.950  1.00  0.00    -0.379 OA 
HETATM   13  C   UNK A   0     -12.186  13.732  69.760  1.00  0.00    -0.310 C  
HETATM   14  H1  UNK A   0     -14.428  15.098  73.631  1.00  0.00     0.000 HD 
HETATM   15  C   UNK A   0     -12.391  15.214  69.749  1.00  0.00    -0.242 C  
HETATM   16  N   UNK A   0     -13.310  13.724  71.895  1.00  0.00    -0.384 NA 
HETATM   17  N   UNK A   0     -14.156  15.651  72.818  1.00  0.00    -0.540 NA 
HETATM   18  N   UNK A   0     -13.180  15.723  70.733  1.00  0.00    -0.739 N  
ENDROOT
BRANCH   4  19
HETATM   19  C   UNK A   0     -10.542  10.784  67.873  1.00  0.00    -0.221 C  
BRANCH  19  20
HETATM   20  N   UNK A   0     -11.105   9.424  67.921  1.00  0.00    -0.503 NA 
HETATM   21  H   UNK A   0     -12.016   9.212  67.515  1.00  0.00     0.000 HD 
BRANCH  20  22
HETATM   22  C   UNK A   0     -10.336   8.437  68.546  1.00  0.00    -0.200 A  
HETATM   23  C   UNK A   0      -8.125   7.691  69.251  1.00  0.00    -0.128 A  
HETATM   24  C   UNK A   0      -8.709   6.671  70.009  1.00  0.00    -0.141 A  
HETATM   25  C   UNK A   0     -10.889   7.335  69.211  1.00  0.00    -0.177 A  
HETATM   26  C   UNK A   0      -8.941   8.561  68.515  1.00  0.00    -0.139 A  
HETATM   27  C   UNK A   0     -10.089   6.462  69.944  1.00  0.00    -0.206 A  
BRANCH  24  28
HETATM   28  C   UNK A   0      -7.864   5.819  70.880  1.00  0.00    -0.105 C  
ATOM     29  H   GLU A   1      -9.401   4.402  71.047  1.00  0.00     0.000 HD 
ATOM     30  N   GLU A   1      -8.469   4.667  71.366  1.00  0.00    -0.105 N  
HETATM   31  O   UNK A   0      -6.721   6.149  71.165  1.00  0.00    -0.054 OA 
BRANCH  30  32
ATOM     32  CA  GLU A   1      -7.753   3.828  72.346  1.00  0.00    -0.068 C  
ATOM     33  C   GLU A   1      -7.365   2.491  71.687  1.00  0.00    -0.040 C  
ATOM     34  O   GLU A   1      -8.164   2.162  70.641  1.00  0.00    -0.048 OA 
ATOM     35  OXT GLU A   1      -6.534   1.716  72.139  1.00  0.00    -0.013 OA 
BRANCH  32  36
ATOM     36  CB  GLU A   1      -8.640   3.570  73.573  1.00  0.00    -0.082 C  
BRANCH  36  37
ATOM     37  CG  GLU A   1     -10.134   3.527  73.234  1.00  0.00    -0.205 C  
ATOM     38  CD  GLU A   1     -10.845   4.807  73.590  1.00  0.00    -0.308 C  
ATOM     39  OE2 GLU A   1     -10.322   5.781  74.106  1.00  0.00    -0.256 OA 
ATOM     40  OE1 GLU A   1     -12.157   4.769  73.262  1.00  0.00    -0.112 OA 
ENDBRANCH  36  37
ENDBRANCH  32  36
ENDBRANCH  30  32
ENDBRANCH  24  28
ENDBRANCH  20  22
ENDBRANCH  19  20
ENDBRANCH   4  19
TORSDOF 7
ENDMDL
MODEL      122
REMARK 921   NORMALIZED FREE ENERGY PREDICTED BY IDOCK:   -5.59 KCAL/MOL
REMARK 922        TOTAL FREE ENERGY PREDICTED BY IDOCK:   -9.15 KCAL/MOL
REMARK 923 INTER-LIGAND FREE ENERGY PREDICTED BY IDOCK:   -7.88 KCAL/MOL
REMARK 924 INTRA-LIGAND FREE ENERGY PREDICTED BY IDOCK:   -1.27 KCAL/MOL
REMARK 927      BINDING AFFINITY PREDICTED BY RF-SCORE:    0.00 PKD
ROOT
HETATM    1  C   UNK A   0      -8.361  13.032  66.977  1.00  0.00    -0.095 C  
HETATM    2  N   UNK A   0      -8.624  11.982  66.108  1.00  0.00    -0.396 N  
HETATM    3  O   UNK A   0      -7.389  13.142  67.719  1.00  0.00    -0.112 OA 
HETATM    4  C   UNK A   0      -7.686  10.807  65.985  1.00  0.00    -0.139 C  
HETATM    5  C   UNK A   0      -7.520  10.455  64.488  1.00  0.00    -0.024 C  
HETATM    6  C   UNK A   0     -11.996  11.799  63.649  1.00  0.00    -0.385 C  
HETATM    7  H   UNK A   0     -12.722  13.431  64.657  1.00  0.00     0.000 HD 
HETATM    8  N   UNK A   0      -8.842  10.244  63.923  1.00  0.00    -0.201 NA 
HETATM    9  H   UNK A   0      -8.993   9.469  63.277  1.00  0.00     0.000 HD 
HETATM   10  H2  UNK A   0     -13.905  12.360  63.046  1.00  0.00     0.000 HD 
HETATM   11  C   UNK A   0      -9.901  11.076  64.248  1.00  0.00    -0.303 C  
HETATM   12  O   UNK A   0     -11.164  13.430  66.590  1.00  0.00    -0.297 OA 
HETATM   13  C   UNK A   0      -9.792  11.924  65.306  1.00  0.00    -0.230 C  
HETATM   14  H1  UNK A   0     -13.128  11.030  62.152  1.00  0.00     0.000 HD 
HETATM   15  C   UNK A   0     -10.998  12.769  65.569  1.00  0.00    -0.280 C  
HETATM   16  N   UNK A   0     -11.008  10.997  63.440  1.00  0.00    -0.691 NA 
HETATM   17  N   UNK A   0     -13.114  11.735  62.889  1.00  0.00    -0.703 NA 
HETATM   18  N   UNK A   0     -11.979  12.733  64.626  1.00  0.00    -0.372 N  
ENDROOT
BRANCH   4  19
HETATM   19  C   UNK A   0      -6.299  10.951  66.648  1.00  0.00    -0.113 C  
BRANCH  19  20
HETATM   20  N   UNK A   0      -5.719   9.644  67.002  1.00  0.00    -0.050 NA 
HETATM   21  H   UNK A   0      -4.969   9.228  66.449  1.00  0.00     0.000 HD 
BRANCH  20  22
HETATM   22  C   UNK A   0      -6.240   8.998  68.128  1.00  0.00    -0.054 A  
HETATM   23  C   UNK A   0      -6.783   9.120  70.501  1.00  0.00    -0.069 A  
HETATM   24  C   UNK A   0      -7.504   7.926  70.399  1.00  0.00    -0.077 A  
HETATM   25  C   UNK A   0      -6.861   7.744  68.079  1.00  0.00    -0.072 A  
HETATM   26  C   UNK A   0      -6.147   9.643  69.368  1.00  0.00    -0.036 A  
HETATM   27  C   UNK A   0      -7.497   7.212  69.199  1.00  0.00    -0.094 A  
BRANCH  24  28
HETATM   28  C   UNK A   0      -8.275   7.425  71.562  1.00  0.00    -0.104 C  
ATOM     29  H   GLU A   1     -10.082   7.718  70.538  1.00  0.00     0.000 HD 
ATOM     30  N   GLU A   1      -9.657   7.455  71.427  1.00  0.00    -0.160 N  
HETATM   31  O   UNK A   0      -7.707   7.045  72.577  1.00  0.00    -0.092 OA 
BRANCH  30  32
ATOM     32  CA  GLU A   1     -10.508   7.103  72.580  1.00  0.00    -0.237 C  
ATOM     33  C   GLU A   1     -11.114   5.705  72.360  1.00  0.00    -0.271 C  
ATOM     34  O   GLU A   1     -11.194   5.360  71.051  1.00  0.00    -0.058 OA 
ATOM     35  OXT GLU A   1     -11.623   5.028  73.244  1.00  0.00    -0.322 OA 
BRANCH  32  36
ATOM     36  CB  GLU A   1     -11.629   8.140  72.750  1.00  0.00    -0.371 C  
BRANCH  36  37
ATOM     37  CG  GLU A   1     -11.610   9.225  71.667  1.00  0.00    -0.463 C  
ATOM     38  CD  GLU A   1     -12.802  10.145  71.750  1.00  0.00    -0.452 C  
ATOM     39  OE2 GLU A   1     -13.704  10.053  72.567  1.00  0.00    -0.233 OA 
ATOM     40  OE1 GLU A   1     -12.762  11.115  70.809  1.00  0.00    -0.330 OA 
ENDBRANCH  36  37
ENDBRANCH  32  36
ENDBRANCH  30  32
ENDBRANCH  24  28
ENDBRANCH  20  22
ENDBRANCH  19  20
ENDBRANCH   4  19
TORSDOF 7
ENDMDL
MODEL      123
REMARK 921   NORMALIZED FREE ENERGY PREDICTED BY IDOCK:   -5.58 KCAL/MOL
REMARK 922        TOTAL FREE ENERGY PREDICTED BY IDOCK:   -9.13 KCAL/MOL
REMARK 923 INTER-LIGAND FREE ENERGY PREDICTED BY IDOCK:   -8.03 KCAL/MOL
REMARK 924 INTRA-LIGAND FREE ENERGY PREDICTED BY IDOCK:   -1.10 KCAL/MOL
REMARK 927      BINDING AFFINITY PREDICTED BY RF-SCORE:    0.00 PKD
ROOT
HETATM    1  C   UNK A   0     -10.752  16.493  70.261  1.00  0.00    -0.081 C  
HETATM    2  N   UNK A   0     -10.952  16.478  68.888  1.00  0.00    -0.331 N  
HETATM    3  O   UNK A   0     -11.112  15.636  71.063  1.00  0.00    -0.340 OA 
HETATM    4  C   UNK A   0     -11.673  15.339  68.209  1.00  0.00    -0.301 C  
HETATM    5  C   UNK A   0     -10.908  14.964  66.918  1.00  0.00    -0.319 C  
HETATM    6  C   UNK A   0      -9.634  19.499  66.320  1.00  0.00    -0.392 C  
HETATM    7  H   UNK A   0      -9.163  20.599  67.986  1.00  0.00     0.000 HD 
HETATM    8  N   UNK A   0     -10.764  16.163  66.111  1.00  0.00    -0.266 NA 
HETATM    9  H   UNK A   0     -10.905  16.109  65.103  1.00  0.00     0.000 HD 
HETATM   10  H2  UNK A   0      -8.935  21.405  65.879  1.00  0.00     0.000 HD 
HETATM   11  C   UNK A   0     -10.439  17.380  66.689  1.00  0.00    -0.253 C  
HETATM   12  O   UNK A   0     -10.374  19.268  69.697  1.00  0.00     0.066 OA 
HETATM   13  C   UNK A   0     -10.525  17.530  68.039  1.00  0.00    -0.387 C  
HETATM   14  H1  UNK A   0      -9.258  20.319  64.505  1.00  0.00     0.000 HD 
HETATM   15  C   UNK A   0     -10.158  18.886  68.551  1.00  0.00    -0.402 C  
HETATM   16  N   UNK A   0     -10.020  18.368  65.833  1.00  0.00    -0.539 NA 
HETATM   17  N   UNK A   0      -9.238  20.505  65.508  1.00  0.00    -0.222 NA 
HETATM   18  N   UNK A   0      -9.608  19.745  67.650  1.00  0.00    -0.338 N  
ENDROOT
BRANCH   4  19
HETATM   19  C   UNK A   0     -11.928  14.073  69.056  1.00  0.00    -0.357 C  
BRANCH  19  20
HETATM   20  N   UNK A   0     -10.744  13.200  69.113  1.00  0.00    -0.436 NA 
HETATM   21  H   UNK A   0      -9.802  13.573  68.993  1.00  0.00     0.000 HD 
BRANCH  20  22
HETATM   22  C   UNK A   0     -10.966  11.837  69.339  1.00  0.00    -0.125 A  
HETATM   23  C   UNK A   0     -10.349   9.539  68.813  1.00  0.00    -0.228 A  
HETATM   24  C   UNK A   0     -11.114   9.085  69.892  1.00  0.00    -0.155 A  
HETATM   25  C   UNK A   0     -11.822  11.350  70.335  1.00  0.00    -0.428 A  
HETATM   26  C   UNK A   0     -10.288  10.911  68.537  1.00  0.00    -0.203 A  
HETATM   27  C   UNK A   0     -11.893   9.988  70.619  1.00  0.00    -0.411 A  
BRANCH  24  28
HETATM   28  C   UNK A   0     -11.093   7.650  70.263  1.00  0.00    -0.244 C  
ATOM     29  H   GLU A   1      -9.117   7.816  70.945  1.00  0.00     0.000 HD 
ATOM     30  N   GLU A   1      -9.889   7.173  70.764  1.00  0.00    -0.179 N  
HETATM   31  O   UNK A   0     -12.078   6.942  70.096  1.00  0.00    -0.234 OA 
BRANCH  30  32
ATOM     32  CA  GLU A   1      -9.732   5.731  71.033  1.00  0.00    -0.170 C  
ATOM     33  C   GLU A   1      -9.670   5.499  72.554  1.00  0.00    -0.152 C  
ATOM     34  O   GLU A   1      -9.245   6.588  73.241  1.00  0.00    -0.128 OA 
ATOM     35  OXT GLU A   1      -9.826   4.411  73.092  1.00  0.00    -0.132 OA 
BRANCH  32  36
ATOM     36  CB  GLU A   1      -8.452   5.202  70.368  1.00  0.00    -0.112 C  
BRANCH  36  37
ATOM     37  CG  GLU A   1      -8.270   5.707  68.933  1.00  0.00    -0.100 C  
ATOM     38  CD  GLU A   1      -6.898   5.409  68.385  1.00  0.00    -0.056 C  
ATOM     39  OE2 GLU A   1      -6.005   4.844  68.996  1.00  0.00    -0.019 OA 
ATOM     40  OE1 GLU A   1      -6.756   5.833  67.108  1.00  0.00    -0.057 OA 
ENDBRANCH  36  37
ENDBRANCH  32  36
ENDBRANCH  30  32
ENDBRANCH  24  28
ENDBRANCH  20  22
ENDBRANCH  19  20
ENDBRANCH   4  19
TORSDOF 7
ENDMDL
MODEL      124
REMARK 921   NORMALIZED FREE ENERGY PREDICTED BY IDOCK:   -5.54 KCAL/MOL
REMARK 922        TOTAL FREE ENERGY PREDICTED BY IDOCK:   -9.08 KCAL/MOL
REMARK 923 INTER-LIGAND FREE ENERGY PREDICTED BY IDOCK:   -8.18 KCAL/MOL
REMARK 924 INTRA-LIGAND FREE ENERGY PREDICTED BY IDOCK:   -0.90 KCAL/MOL
REMARK 927      BINDING AFFINITY PREDICTED BY RF-SCORE:    0.00 PKD
ROOT
HETATM    1  C   UNK A   0     -11.544  16.301  64.718  1.00  0.00     0.005 C  
HETATM    2  N   UNK A   0     -11.187  16.034  66.032  1.00  0.00     0.032 N  
HETATM    3  O   UNK A   0     -11.834  15.476  63.856  1.00  0.00    -0.418 OA 
HETATM    4  C   UNK A   0     -11.117  14.622  66.559  1.00  0.00    -0.329 C  
HETATM    5  C   UNK A   0     -11.764  14.581  67.963  1.00  0.00    -0.342 C  
HETATM    6  C   UNK A   0     -10.242  18.996  68.823  1.00  0.00    -0.274 C  
HETATM    7  H   UNK A   0     -10.271  20.347  67.280  1.00  0.00     0.000 HD 
HETATM    8  N   UNK A   0     -11.108  15.576  68.794  1.00  0.00    -0.272 NA 
HETATM    9  H   UNK A   0     -10.874  15.348  69.760  1.00  0.00     0.000 HD 
HETATM   10  H2  UNK A   0      -9.709  20.920  69.401  1.00  0.00     0.000 HD 
HETATM   11  C   UNK A   0     -10.794  16.831  68.296  1.00  0.00    -0.366 C  
HETATM   12  O   UNK A   0     -10.252  18.766  65.366  1.00  0.00    -0.360 OA 
HETATM   13  C   UNK A   0     -10.838  17.054  66.954  1.00  0.00    -0.013 C  
HETATM   14  H1  UNK A   0      -9.838  19.692  70.684  1.00  0.00     0.000 HD 
HETATM   15  C   UNK A   0     -10.472  18.440  66.529  1.00  0.00    -0.381 C  
HETATM   16  N   UNK A   0     -10.472  17.791  69.222  1.00  0.00    -0.382 NA 
HETATM   17  N   UNK A   0      -9.898  19.965  69.703  1.00  0.00    -0.212 NA 
HETATM   18  N   UNK A   0     -10.323  19.358  67.523  1.00  0.00    -0.413 N  
ENDROOT
BRANCH   4  19
HETATM   19  C   UNK A   0     -11.724  13.516  65.668  1.00  0.00    -0.339 C  
BRANCH  19  20
HETATM   20  N   UNK A   0     -12.128  12.337  66.453  1.00  0.00    -0.612 NA 
HETATM   21  H   UNK A   0     -13.097  12.193  66.736  1.00  0.00     0.000 HD 
BRANCH  20  22
HETATM   22  C   UNK A   0     -11.125  11.422  66.793  1.00  0.00    -0.281 A  
HETATM   23  C   UNK A   0     -10.306   9.767  68.384  1.00  0.00    -0.230 A  
HETATM   24  C   UNK A   0      -9.332   9.363  67.464  1.00  0.00    -0.147 A  
HETATM   25  C   UNK A   0     -10.066  11.087  65.940  1.00  0.00    -0.301 A  
HETATM   26  C   UNK A   0     -11.189  10.801  68.047  1.00  0.00    -0.372 A  
HETATM   27  C   UNK A   0      -9.180  10.062  66.264  1.00  0.00    -0.199 A  
BRANCH  24  28
HETATM   28  C   UNK A   0      -8.469   8.197  67.764  1.00  0.00    -0.132 C  
ATOM     29  H   GLU A   1     -10.110   6.899  67.623  1.00  0.00     0.000 HD 
ATOM     30  N   GLU A   1      -9.119   6.972  67.852  1.00  0.00    -0.128 N  
HETATM   31  O   UNK A   0      -7.267   8.334  67.952  1.00  0.00    -0.090 OA 
BRANCH  30  32
ATOM     32  CA  GLU A   1      -8.365   5.778  68.279  1.00  0.00    -0.107 C  
ATOM     33  C   GLU A   1      -7.996   4.938  67.042  1.00  0.00    -0.103 C  
ATOM     34  O   GLU A   1      -8.830   5.142  65.992  1.00  0.00    -0.128 OA 
ATOM     35  OXT GLU A   1      -7.146   4.058  67.036  1.00  0.00    -0.061 OA 
BRANCH  32  36
ATOM     36  CB  GLU A   1      -9.207   4.937  69.251  1.00  0.00    -0.160 C  
BRANCH  36  37
ATOM     37  CG  GLU A   1      -9.487   5.655  70.576  1.00  0.00    -0.203 C  
ATOM     38  CD  GLU A   1     -10.888   6.206  70.651  1.00  0.00    -0.292 C  
ATOM     39  OE2 GLU A   1     -11.724   6.121  69.766  1.00  0.00    -0.340 OA 
ATOM     40  OE1 GLU A   1     -11.133   6.814  71.834  1.00  0.00    -0.233 OA 
ENDBRANCH  36  37
ENDBRANCH  32  36
ENDBRANCH  30  32
ENDBRANCH  24  28
ENDBRANCH  20  22
ENDBRANCH  19  20
ENDBRANCH   4  19
TORSDOF 7
ENDMDL
MODEL      125
REMARK 921   NORMALIZED FREE ENERGY PREDICTED BY IDOCK:   -5.53 KCAL/MOL
REMARK 922        TOTAL FREE ENERGY PREDICTED BY IDOCK:   -9.06 KCAL/MOL
REMARK 923 INTER-LIGAND FREE ENERGY PREDICTED BY IDOCK:   -8.69 KCAL/MOL
REMARK 924 INTRA-LIGAND FREE ENERGY PREDICTED BY IDOCK:   -0.38 KCAL/MOL
REMARK 927      BINDING AFFINITY PREDICTED BY RF-SCORE:    0.00 PKD
ROOT
HETATM    1  C   UNK A   0      -7.619   9.642  66.683  1.00  0.00    -0.098 C  
HETATM    2  N   UNK A   0      -8.892   9.216  67.035  1.00  0.00    -0.122 N  
HETATM    3  O   UNK A   0      -7.090  10.704  66.997  1.00  0.00    -0.091 OA 
HETATM    4  C   UNK A   0      -9.801  10.067  67.888  1.00  0.00    -0.145 C  
HETATM    5  C   UNK A   0     -10.484   9.165  68.942  1.00  0.00    -0.218 C  
HETATM    6  C   UNK A   0     -10.513   5.546  65.868  1.00  0.00     0.118 C  
HETATM    7  H   UNK A   0      -8.893   5.315  64.630  1.00  0.00     0.000 HD 
HETATM    8  N   UNK A   0     -11.145   8.074  68.246  1.00  0.00    -0.335 NA 
HETATM    9  H   UNK A   0     -12.075   7.779  68.543  1.00  0.00     0.000 HD 
HETATM   10  H2  UNK A   0     -10.600   3.825  64.706  1.00  0.00     0.000 HD 
HETATM   11  C   UNK A   0     -10.533   7.427  67.184  1.00  0.00    -0.333 C  
HETATM   12  O   UNK A   0      -8.015   7.637  64.686  1.00  0.00    -0.134 OA 
HETATM   13  C   UNK A   0      -9.435   7.980  66.600  1.00  0.00    -0.212 C  
HETATM   14  H1  UNK A   0     -11.894   4.063  65.907  1.00  0.00     0.000 HD 
HETATM   15  C   UNK A   0      -8.863   7.200  65.460  1.00  0.00     0.046 C  
HETATM   16  N   UNK A   0     -11.083   6.229  66.802  1.00  0.00    -0.732 NA 
HETATM   17  N   UNK A   0     -11.038   4.373  65.447  1.00  0.00    -0.858 NA 
HETATM   18  N   UNK A   0      -9.377   5.957  65.258  1.00  0.00    -0.349 N  
ENDROOT
BRANCH   4  19
HETATM   19  C   UNK A   0      -9.161  11.291  68.579  1.00  0.00    -0.181 C  
BRANCH  19  20
HETATM   20  N   UNK A   0     -10.070  12.450  68.596  1.00  0.00    -0.369 NA 
HETATM   21  H   UNK A   0     -11.041  12.360  68.894  1.00  0.00     0.000 HD 
BRANCH  20  22
HETATM   22  C   UNK A   0      -9.543  13.680  68.186  1.00  0.00    -0.221 A  
HETATM   23  C   UNK A   0      -8.413  15.745  68.816  1.00  0.00    -0.198 A  
HETATM   24  C   UNK A   0      -8.209  16.047  67.466  1.00  0.00    -0.171 A  
HETATM   25  C   UNK A   0      -9.438  14.064  66.843  1.00  0.00    -0.271 A  
HETATM   26  C   UNK A   0      -9.088  14.569  69.168  1.00  0.00     0.025 A  
HETATM   27  C   UNK A   0      -8.770  15.232  66.480  1.00  0.00    -0.314 A  
BRANCH  24  28
HETATM   28  C   UNK A   0      -7.398  17.228  67.086  1.00  0.00    -0.170 C  
ATOM     29  H   GLU A   1      -7.867  18.179  68.895  1.00  0.00     0.000 HD 
ATOM     30  N   GLU A   1      -7.404  18.281  67.991  1.00  0.00    -0.233 N  
HETATM   31  O   UNK A   0      -6.796  17.262  66.020  1.00  0.00    -0.225 OA 
BRANCH  30  32
ATOM     32  CA  GLU A   1      -6.736  19.548  67.638  1.00  0.00    -0.219 C  
ATOM     33  C   GLU A   1      -6.250  20.245  68.923  1.00  0.00    -0.330 C  
ATOM     34  O   GLU A   1      -6.953  19.881  70.024  1.00  0.00    -0.249 OA 
ATOM     35  OXT GLU A   1      -5.429  21.152  68.946  1.00  0.00    -0.335 OA 
BRANCH  32  36
ATOM     36  CB  GLU A   1      -7.706  20.466  66.878  1.00  0.00    -0.346 C  
BRANCH  36  37
ATOM     37  CG  GLU A   1      -8.995  19.755  66.454  1.00  0.00    -0.440 C  
ATOM     38  CD  GLU A   1     -10.079  19.852  67.498  1.00  0.00    -0.429 C  
ATOM     39  OE2 GLU A   1      -9.968  20.413  68.576  1.00  0.00    -0.225 OA 
ATOM     40  OE1 GLU A   1     -11.222  19.245  67.103  1.00  0.00    -0.324 OA 
ENDBRANCH  36  37
ENDBRANCH  32  36
ENDBRANCH  30  32
ENDBRANCH  24  28
ENDBRANCH  20  22
ENDBRANCH  19  20
ENDBRANCH   4  19
TORSDOF 7
ENDMDL
MODEL      126
REMARK 921   NORMALIZED FREE ENERGY PREDICTED BY IDOCK:   -5.53 KCAL/MOL
REMARK 922        TOTAL FREE ENERGY PREDICTED BY IDOCK:   -9.06 KCAL/MOL
REMARK 923 INTER-LIGAND FREE ENERGY PREDICTED BY IDOCK:   -8.17 KCAL/MOL
REMARK 924 INTRA-LIGAND FREE ENERGY PREDICTED BY IDOCK:   -0.89 KCAL/MOL
REMARK 927      BINDING AFFINITY PREDICTED BY RF-SCORE:    0.00 PKD
ROOT
HETATM    1  C   UNK A   0     -10.811  15.210  67.853  1.00  0.00    -0.291 C  
HETATM    2  N   UNK A   0     -11.092  14.329  68.888  1.00  0.00    -0.251 N  
HETATM    3  O   UNK A   0     -10.348  14.922  66.753  1.00  0.00    -0.262 OA 
HETATM    4  C   UNK A   0     -10.842  12.847  68.753  1.00  0.00    -0.242 C  
HETATM    5  C   UNK A   0     -12.048  12.081  69.344  1.00  0.00    -0.202 C  
HETATM    6  C   UNK A   0     -12.682  15.510  72.567  1.00  0.00    -0.407 C  
HETATM    7  H   UNK A   0     -12.375  17.453  71.986  1.00  0.00     0.000 HD 
HETATM    8  N   UNK A   0     -12.256  12.544  70.705  1.00  0.00    -0.449 NA 
HETATM    9  H   UNK A   0     -12.476  11.868  71.437  1.00  0.00     0.000 HD 
HETATM   10  H2  UNK A   0     -13.165  16.897  74.037  1.00  0.00     0.000 HD 
HETATM   11  C   UNK A   0     -12.162  13.888  71.027  1.00  0.00    -0.342 C  
HETATM   12  O   UNK A   0     -10.894  17.054  70.033  1.00  0.00    -0.130 OA 
HETATM   13  C   UNK A   0     -11.601  14.756  70.141  1.00  0.00    -0.290 C  
HETATM   14  H1  UNK A   0     -13.510  15.186  74.390  1.00  0.00     0.000 HD 
HETATM   15  C   UNK A   0     -11.545  16.179  70.597  1.00  0.00    -0.321 C  
HETATM   16  N   UNK A   0     -12.676  14.261  72.244  1.00  0.00    -0.319 NA 
HETATM   17  N   UNK A   0     -13.158  15.914  73.768  1.00  0.00    -0.777 NA 
HETATM   18  N   UNK A   0     -12.217  16.475  71.742  1.00  0.00    -0.488 N  
ENDROOT
BRANCH   4  19
HETATM   19  C   UNK A   0     -10.527  12.321  67.335  1.00  0.00    -0.210 C  
BRANCH  19  20
HETATM   20  N   UNK A   0     -11.317  11.123  67.005  1.00  0.00    -0.417 NA 
HETATM   21  H   UNK A   0     -12.333  11.160  66.928  1.00  0.00     0.000 HD 
BRANCH  20  22
HETATM   22  C   UNK A   0     -10.613   9.931  66.802  1.00  0.00    -0.144 A  
HETATM   23  C   UNK A   0     -10.187   7.644  67.532  1.00  0.00    -0.294 A  
HETATM   24  C   UNK A   0      -9.478   7.398  66.352  1.00  0.00    -0.194 A  
HETATM   25  C   UNK A   0      -9.795   9.698  65.689  1.00  0.00    -0.369 A  
HETATM   26  C   UNK A   0     -10.742   8.912  67.755  1.00  0.00    -0.204 A  
HETATM   27  C   UNK A   0      -9.237   8.443  65.457  1.00  0.00    -0.057 A  
BRANCH  24  28
HETATM   28  C   UNK A   0      -8.987   6.032  66.055  1.00  0.00    -0.147 C  
ATOM     29  H   GLU A   1      -8.267   6.656  64.187  1.00  0.00     0.000 HD 
ATOM     30  N   GLU A   1      -8.414   5.856  64.802  1.00  0.00    -0.100 N  
HETATM   31  O   UNK A   0      -9.120   5.125  66.866  1.00  0.00    -0.115 OA 
BRANCH  30  32
ATOM     32  CA  GLU A   1      -8.020   4.503  64.366  1.00  0.00    -0.095 C  
ATOM     33  C   GLU A   1      -6.484   4.390  64.375  1.00  0.00    -0.038 C  
ATOM     34  O   GLU A   1      -5.862   5.589  64.245  1.00  0.00    -0.020 OA 
ATOM     35  OXT GLU A   1      -5.871   3.332  64.339  1.00  0.00    -0.016 OA 
BRANCH  32  36
ATOM     36  CB  GLU A   1      -8.558   4.221  62.955  1.00  0.00    -0.101 C  
BRANCH  36  37
ATOM     37  CG  GLU A   1      -9.242   2.855  62.836  1.00  0.00    -0.094 C  
ATOM     38  CD  GLU A   1     -10.613   2.838  63.462  1.00  0.00    -0.213 C  
ATOM     39  OE2 GLU A   1     -11.142   3.786  64.021  1.00  0.00    -0.331 OA 
ATOM     40  OE1 GLU A   1     -11.220   1.637  63.328  1.00  0.00    -0.235 OA 
ENDBRANCH  36  37
ENDBRANCH  32  36
ENDBRANCH  30  32
ENDBRANCH  24  28
ENDBRANCH  20  22
ENDBRANCH  19  20
ENDBRANCH   4  19
TORSDOF 7
ENDMDL
MODEL      127
REMARK 921   NORMALIZED FREE ENERGY PREDICTED BY IDOCK:   -5.53 KCAL/MOL
REMARK 922        TOTAL FREE ENERGY PREDICTED BY IDOCK:   -9.06 KCAL/MOL
REMARK 923 INTER-LIGAND FREE ENERGY PREDICTED BY IDOCK:   -7.92 KCAL/MOL
REMARK 924 INTRA-LIGAND FREE ENERGY PREDICTED BY IDOCK:   -1.14 KCAL/MOL
REMARK 927      BINDING AFFINITY PREDICTED BY RF-SCORE:    0.00 PKD
ROOT
HETATM    1  C   UNK A   0      -9.772  13.914  67.660  1.00  0.00    -0.226 C  
HETATM    2  N   UNK A   0      -9.749  12.745  66.913  1.00  0.00    -0.228 N  
HETATM    3  O   UNK A   0      -9.026  14.202  68.591  1.00  0.00    -0.187 OA 
HETATM    4  C   UNK A   0      -8.745  11.652  67.189  1.00  0.00    -0.164 C  
HETATM    5  C   UNK A   0      -8.190  11.134  65.842  1.00  0.00    -0.048 C  
HETATM    6  C   UNK A   0     -12.380  11.955  63.765  1.00  0.00    -0.434 C  
HETATM    7  H   UNK A   0     -13.426  13.628  64.325  1.00  0.00     0.000 HD 
HETATM    8  N   UNK A   0      -9.313  10.736  65.011  1.00  0.00    -0.211 NA 
HETATM    9  H   UNK A   0      -9.253   9.877  64.464  1.00  0.00     0.000 HD 
HETATM   10  H2  UNK A   0     -14.105  12.262  62.647  1.00  0.00     0.000 HD 
HETATM   11  C   UNK A   0     -10.465  11.503  64.948  1.00  0.00    -0.291 C  
HETATM   12  O   UNK A   0     -12.406  14.007  66.557  1.00  0.00    -0.457 OA 
HETATM   13  C   UNK A   0     -10.674  12.483  65.870  1.00  0.00    -0.264 C  
HETATM   14  H1  UNK A   0     -13.054  10.907  62.165  1.00  0.00     0.000 HD 
HETATM   15  C   UNK A   0     -11.952  13.242  65.710  1.00  0.00    -0.417 C  
HETATM   16  N   UNK A   0     -11.328  11.225  63.917  1.00  0.00    -0.457 NA 
HETATM   17  N   UNK A   0     -13.267  11.696  62.776  1.00  0.00    -0.465 NA 
HETATM   18  N   UNK A   0     -12.661  13.001  64.574  1.00  0.00    -0.701 N  
ENDROOT
BRANCH   4  19
HETATM   19  C   UNK A   0      -7.579  12.002  68.139  1.00  0.00    -0.120 C  
BRANCH  19  20
HETATM   20  N   UNK A   0      -6.582  10.921  68.207  1.00  0.00    -0.058 NA 
HETATM   21  H   UNK A   0      -5.770  10.907  67.590  1.00  0.00     0.000 HD 
BRANCH  20  22
HETATM   22  C   UNK A   0      -6.795   9.914  69.155  1.00  0.00    -0.055 A  
HETATM   23  C   UNK A   0      -8.216   9.022  70.923  1.00  0.00    -0.222 A  
HETATM   24  C   UNK A   0      -7.489   7.827  70.906  1.00  0.00    -0.073 A  
HETATM   25  C   UNK A   0      -6.008   8.759  69.243  1.00  0.00    -0.041 A  
HETATM   26  C   UNK A   0      -7.858  10.062  70.055  1.00  0.00    -0.172 A  
HETATM   27  C   UNK A   0      -6.352   7.719  70.103  1.00  0.00    -0.033 A  
BRANCH  24  28
HETATM   28  C   UNK A   0      -7.930   6.681  71.737  1.00  0.00    -0.103 C  
ATOM     29  H   GLU A   1      -9.036   5.899  70.136  1.00  0.00     0.000 HD 
ATOM     30  N   GLU A   1      -8.806   5.794  71.125  1.00  0.00    -0.135 N  
HETATM   31  O   UNK A   0      -7.557   6.564  72.896  1.00  0.00    -0.096 OA 
BRANCH  30  32
ATOM     32  CA  GLU A   1      -9.403   4.700  71.914  1.00  0.00    -0.140 C  
ATOM     33  C   GLU A   1      -9.634   3.480  71.003  1.00  0.00    -0.173 C  
ATOM     34  O   GLU A   1      -9.759   3.810  69.694  1.00  0.00    -0.199 OA 
ATOM     35  OXT GLU A   1      -9.845   2.346  71.412  1.00  0.00    -0.154 OA 
BRANCH  32  36
ATOM     36  CB  GLU A   1     -10.735   5.155  72.530  1.00  0.00    -0.286 C  
BRANCH  36  37
ATOM     37  CG  GLU A   1     -11.524   6.101  71.619  1.00  0.00    -0.331 C  
ATOM     38  CD  GLU A   1     -11.543   7.517  72.136  1.00  0.00    -0.298 C  
ATOM     39  OE2 GLU A   1     -11.012   7.896  73.167  1.00  0.00    -0.383 OA 
ATOM     40  OE1 GLU A   1     -12.218   8.351  71.311  1.00  0.00    -0.298 OA 
ENDBRANCH  36  37
ENDBRANCH  32  36
ENDBRANCH  30  32
ENDBRANCH  24  28
ENDBRANCH  20  22
ENDBRANCH  19  20
ENDBRANCH   4  19
TORSDOF 7
ENDMDL
MODEL      128
REMARK 921   NORMALIZED FREE ENERGY PREDICTED BY IDOCK:   -5.49 KCAL/MOL
REMARK 922        TOTAL FREE ENERGY PREDICTED BY IDOCK:   -9.01 KCAL/MOL
REMARK 923 INTER-LIGAND FREE ENERGY PREDICTED BY IDOCK:   -8.13 KCAL/MOL
REMARK 924 INTRA-LIGAND FREE ENERGY PREDICTED BY IDOCK:   -0.88 KCAL/MOL
REMARK 927      BINDING AFFINITY PREDICTED BY RF-SCORE:    0.00 PKD
ROOT
HETATM    1  C   UNK A   0     -11.059  16.798  64.685  1.00  0.00     0.076 C  
HETATM    2  N   UNK A   0     -10.632  16.518  65.976  1.00  0.00    -0.292 N  
HETATM    3  O   UNK A   0     -11.176  15.996  63.763  1.00  0.00    -0.381 OA 
HETATM    4  C   UNK A   0     -10.251  15.118  66.394  1.00  0.00    -0.281 C  
HETATM    5  C   UNK A   0     -10.852  14.834  67.790  1.00  0.00    -0.278 C  
HETATM    6  C   UNK A   0     -10.308  19.397  68.985  1.00  0.00    -0.057 C  
HETATM    7  H   UNK A   0     -10.652  20.821  67.549  1.00  0.00     0.000 HD 
HETATM    8  N   UNK A   0     -10.414  15.883  68.694  1.00  0.00    -0.231 NA 
HETATM    9  H   UNK A   0     -10.122  15.639  69.641  1.00  0.00     0.000 HD 
HETATM   10  H2  UNK A   0     -10.196  21.342  69.708  1.00  0.00     0.000 HD 
HETATM   11  C   UNK A   0     -10.387  17.209  68.294  1.00  0.00    -0.354 C  
HETATM   12  O   UNK A   0     -10.321  19.428  65.521  1.00  0.00    -0.454 OA 
HETATM   13  C   UNK A   0     -10.498  17.517  66.973  1.00  0.00    -0.293 C  
HETATM   14  H1  UNK A   0     -10.036  20.023  70.894  1.00  0.00     0.000 HD 
HETATM   15  C   UNK A   0     -10.448  18.977  66.655  1.00  0.00    -0.437 C  
HETATM   16  N   UNK A   0     -10.266  18.145  69.291  1.00  0.00    -0.365 NA 
HETATM   17  N   UNK A   0     -10.169  20.349  69.937  1.00  0.00    -0.304 NA 
HETATM   18  N   UNK A   0     -10.485  19.829  67.716  1.00  0.00    -0.430 N  
ENDROOT
BRANCH   4  19
HETATM   19  C   UNK A   0     -10.618  13.977  65.420  1.00  0.00    -0.341 C  
BRANCH  19  20
HETATM   20  N   UNK A   0     -11.576  13.031  66.016  1.00  0.00    -0.346 NA 
HETATM   21  H   UNK A   0     -12.548  13.293  66.183  1.00  0.00     0.000 HD 
BRANCH  20  22
HETATM   22  C   UNK A   0     -11.097  11.758  66.345  1.00  0.00    -0.307 A  
HETATM   23  C   UNK A   0     -11.039   9.938  67.964  1.00  0.00    -0.220 A  
HETATM   24  C   UNK A   0     -10.434   9.109  67.013  1.00  0.00    -0.311 A  
HETATM   25  C   UNK A   0     -10.381  10.951  65.453  1.00  0.00    -0.326 A  
HETATM   26  C   UNK A   0     -11.357  11.260  67.628  1.00  0.00    -0.352 A  
HETATM   27  C   UNK A   0     -10.057   9.635  65.775  1.00  0.00    -0.274 A  
BRANCH  24  28
HETATM   28  C   UNK A   0     -10.199   7.679  67.321  1.00  0.00    -0.272 C  
ATOM     29  H   GLU A   1      -9.029   8.191  68.984  1.00  0.00     0.000 HD 
ATOM     30  N   GLU A   1      -9.364   7.424  68.401  1.00  0.00    -0.144 N  
HETATM   31  O   UNK A   0     -10.693   6.797  66.631  1.00  0.00    -0.245 OA 
BRANCH  30  32
ATOM     32  CA  GLU A   1      -8.964   6.035  68.699  1.00  0.00    -0.118 C  
ATOM     33  C   GLU A   1      -9.780   5.514  69.897  1.00  0.00    -0.174 C  
ATOM     34  O   GLU A   1     -10.237   6.507  70.701  1.00  0.00    -0.184 OA 
ATOM     35  OXT GLU A   1      -9.883   4.333  70.199  1.00  0.00    -0.209 OA 
BRANCH  32  36
ATOM     36  CB  GLU A   1      -7.463   5.972  69.021  1.00  0.00    -0.086 C  
BRANCH  36  37
ATOM     37  CG  GLU A   1      -6.760   7.325  68.870  1.00  0.00    -0.060 C  
ATOM     38  CD  GLU A   1      -5.850   7.373  67.669  1.00  0.00    -0.034 C  
ATOM     39  OE2 GLU A   1      -5.661   6.450  66.893  1.00  0.00    -0.012 OA 
ATOM     40  OE1 GLU A   1      -5.256   8.580  67.528  1.00  0.00    -0.033 OA 
ENDBRANCH  36  37
ENDBRANCH  32  36
ENDBRANCH  30  32
ENDBRANCH  24  28
ENDBRANCH  20  22
ENDBRANCH  19  20
ENDBRANCH   4  19
TORSDOF 7
ENDMDL
MODEL      129
REMARK 921   NORMALIZED FREE ENERGY PREDICTED BY IDOCK:   -5.48 KCAL/MOL
REMARK 922        TOTAL FREE ENERGY PREDICTED BY IDOCK:   -9.00 KCAL/MOL
REMARK 923 INTER-LIGAND FREE ENERGY PREDICTED BY IDOCK:   -8.13 KCAL/MOL
REMARK 924 INTRA-LIGAND FREE ENERGY PREDICTED BY IDOCK:   -0.87 KCAL/MOL
REMARK 927      BINDING AFFINITY PREDICTED BY RF-SCORE:    0.00 PKD
ROOT
HETATM    1  C   UNK A   0     -10.719   6.194  67.866  1.00  0.00    -0.296 C  
HETATM    2  N   UNK A   0      -9.527   6.672  68.392  1.00  0.00    -0.126 N  
HETATM    3  O   UNK A   0     -10.920   5.844  66.707  1.00  0.00    -0.299 OA 
HETATM    4  C   UNK A   0      -8.291   6.815  67.538  1.00  0.00    -0.122 C  
HETATM    5  C   UNK A   0      -7.071   6.297  68.335  1.00  0.00    -0.083 C  
HETATM    6  C   UNK A   0      -9.041   7.802  72.384  1.00  0.00    -0.155 C  
HETATM    7  H   UNK A   0     -11.072   7.609  72.602  1.00  0.00     0.000 HD 
HETATM    8  N   UNK A   0      -7.023   7.005  69.602  1.00  0.00    -0.060 NA 
HETATM    9  H   UNK A   0      -6.126   7.328  69.963  1.00  0.00     0.000 HD 
HETATM   10  H2  UNK A   0      -9.724   8.346  74.270  1.00  0.00     0.000 HD 
HETATM   11  C   UNK A   0      -8.177   7.249  70.330  1.00  0.00    -0.125 C  
HETATM   12  O   UNK A   0     -11.719   7.488  70.209  1.00  0.00    -0.166 OA 
HETATM   13  C   UNK A   0      -9.393   7.081  69.743  1.00  0.00    -0.146 C  
HETATM   14  H1  UNK A   0      -7.962   8.357  74.009  1.00  0.00     0.000 HD 
HETATM   15  C   UNK A   0     -10.568   7.380  70.619  1.00  0.00    -0.223 C  
HETATM   16  N   UNK A   0      -8.004   7.633  71.637  1.00  0.00    -0.089 NA 
HETATM   17  N   UNK A   0      -8.912   8.204  73.670  1.00  0.00    -0.247 NA 
HETATM   18  N   UNK A   0     -10.300   7.599  71.935  1.00  0.00    -0.195 N  
ENDROOT
BRANCH   4  19
HETATM   19  C   UNK A   0      -8.327   6.154  66.143  1.00  0.00    -0.128 C  
BRANCH  19  20
HETATM   20  N   UNK A   0      -8.446   7.150  65.065  1.00  0.00    -0.332 NA 
HETATM   21  H   UNK A   0      -8.498   6.870  64.085  1.00  0.00     0.000 HD 
BRANCH  20  22
HETATM   22  C   UNK A   0      -8.483   8.497  65.441  1.00  0.00    -0.173 A  
HETATM   23  C   UNK A   0      -9.835  10.397  66.150  1.00  0.00    -0.278 A  
HETATM   24  C   UNK A   0      -8.673  11.106  66.472  1.00  0.00    -0.174 A  
HETATM   25  C   UNK A   0      -7.335   9.270  65.653  1.00  0.00    -0.093 A  
HETATM   26  C   UNK A   0      -9.733   9.101  65.627  1.00  0.00    -0.247 A  
HETATM   27  C   UNK A   0      -7.423  10.560  66.171  1.00  0.00    -0.136 A  
BRANCH  24  28
HETATM   28  C   UNK A   0      -8.772  12.429  67.131  1.00  0.00    -0.195 C  
ATOM     29  H   GLU A   1     -10.456  12.918  65.981  1.00  0.00     0.000 HD 
ATOM     30  N   GLU A   1      -9.781  13.261  66.665  1.00  0.00    -0.263 N  
HETATM   31  O   UNK A   0      -7.981  12.758  68.006  1.00  0.00    -0.136 OA 
BRANCH  30  32
ATOM     32  CA  GLU A   1      -9.872  14.646  67.166  1.00  0.00    -0.237 C  
ATOM     33  C   GLU A   1     -11.311  14.924  67.641  1.00  0.00    -0.337 C  
ATOM     34  O   GLU A   1     -12.231  14.126  67.044  1.00  0.00    -0.432 OA 
ATOM     35  OXT GLU A   1     -11.631  15.865  68.355  1.00  0.00    -0.371 OA 
BRANCH  32  36
ATOM     36  CB  GLU A   1      -9.484  15.639  66.060  1.00  0.00    -0.390 C  
BRANCH  36  37
ATOM     37  CG  GLU A   1      -9.607  17.102  66.497  1.00  0.00    -0.294 C  
ATOM     38  CD  GLU A   1     -10.555  17.887  65.627  1.00  0.00    -0.109 C  
ATOM     39  OE2 GLU A   1     -11.160  17.440  64.665  1.00  0.00    -1.029 OA 
ATOM     40  OE1 GLU A   1     -10.679  19.170  66.037  1.00  0.00    -0.439 OA 
ENDBRANCH  36  37
ENDBRANCH  32  36
ENDBRANCH  30  32
ENDBRANCH  24  28
ENDBRANCH  20  22
ENDBRANCH  19  20
ENDBRANCH   4  19
TORSDOF 7
ENDMDL
MODEL      130
REMARK 921   NORMALIZED FREE ENERGY PREDICTED BY IDOCK:   -5.47 KCAL/MOL
REMARK 922        TOTAL FREE ENERGY PREDICTED BY IDOCK:   -8.98 KCAL/MOL
REMARK 923 INTER-LIGAND FREE ENERGY PREDICTED BY IDOCK:   -8.46 KCAL/MOL
REMARK 924 INTRA-LIGAND FREE ENERGY PREDICTED BY IDOCK:   -0.51 KCAL/MOL
REMARK 927      BINDING AFFINITY PREDICTED BY RF-SCORE:    0.00 PKD
ROOT
HETATM    1  C   UNK A   0     -10.685   7.437  68.245  1.00  0.00    -0.099 C  
HETATM    2  N   UNK A   0      -9.915   8.377  68.915  1.00  0.00    -0.182 N  
HETATM    3  O   UNK A   0     -11.109   7.522  67.096  1.00  0.00    -0.216 OA 
HETATM    4  C   UNK A   0      -9.499   9.669  68.255  1.00  0.00    -0.136 C  
HETATM    5  C   UNK A   0      -8.014   9.944  68.589  1.00  0.00    -0.087 C  
HETATM    6  C   UNK A   0      -8.559   7.894  72.837  1.00  0.00    -0.180 C  
HETATM    7  H   UNK A   0      -9.766   6.240  72.965  1.00  0.00     0.000 HD 
HETATM    8  N   UNK A   0      -7.861   9.918  70.033  1.00  0.00    -0.174 NA 
HETATM    9  H   UNK A   0      -7.274  10.617  70.488  1.00  0.00     0.000 HD 
HETATM   10  H2  UNK A   0      -8.558   7.016  74.721  1.00  0.00     0.000 HD 
HETATM   11  C   UNK A   0      -8.499   8.959  70.804  1.00  0.00    -0.182 C  
HETATM   12  O   UNK A   0     -11.151   6.600  70.937  1.00  0.00    -0.255 OA 
HETATM   13  C   UNK A   0      -9.493   8.207  70.258  1.00  0.00    -0.170 C  
HETATM   14  H1  UNK A   0      -7.450   8.386  74.462  1.00  0.00     0.000 HD 
HETATM   15  C   UNK A   0     -10.115   7.210  71.183  1.00  0.00    -0.187 C  
HETATM   16  N   UNK A   0      -8.053   8.819  72.095  1.00  0.00    -0.368 NA 
HETATM   17  N   UNK A   0      -8.164   7.740  74.122  1.00  0.00    -0.211 NA 
HETATM   18  N   UNK A   0      -9.504   7.038  72.386  1.00  0.00    -0.142 N  
ENDROOT
BRANCH   4  19
HETATM   19  C   UNK A   0      -9.725   9.778  66.732  1.00  0.00    -0.194 C  
BRANCH  19  20
HETATM   20  N   UNK A   0     -11.022  10.396  66.410  1.00  0.00     0.011 NA 
HETATM   21  H   UNK A   0     -11.760   9.870  65.942  1.00  0.00     0.000 HD 
BRANCH  20  22
HETATM   22  C   UNK A   0     -11.198  11.735  66.775  1.00  0.00    -0.328 A  
HETATM   23  C   UNK A   0     -10.803  13.487  68.423  1.00  0.00    -0.286 A  
HETATM   24  C   UNK A   0     -11.241  14.449  67.507  1.00  0.00    -0.329 A  
HETATM   25  C   UNK A   0     -11.749  12.700  65.922  1.00  0.00    -0.470 A  
HETATM   26  C   UNK A   0     -10.794  12.135  68.055  1.00  0.00    -0.258 A  
HETATM   27  C   UNK A   0     -11.764  14.047  66.276  1.00  0.00    -0.401 A  
BRANCH  24  28
HETATM   28  C   UNK A   0     -11.146  15.889  67.845  1.00  0.00    -0.317 C  
ATOM     29  H   GLU A   1      -9.829  16.216  66.246  1.00  0.00     0.000 HD 
ATOM     30  N   GLU A   1     -10.281  16.638  67.057  1.00  0.00    -0.285 N  
HETATM   31  O   UNK A   0     -11.775  16.359  68.784  1.00  0.00    -0.262 OA 
BRANCH  30  32
ATOM     32  CA  GLU A   1     -10.019  18.048  67.402  1.00  0.00    -0.326 C  
ATOM     33  C   GLU A   1     -10.587  18.958  66.296  1.00  0.00    -0.392 C  
ATOM     34  O   GLU A   1     -10.691  18.335  65.096  1.00  0.00    -0.586 OA 
ATOM     35  OXT GLU A   1     -10.778  20.160  66.424  1.00  0.00    -0.353 OA 
BRANCH  32  36
ATOM     36  CB  GLU A   1      -8.509  18.287  67.554  1.00  0.00    -0.252 C  
BRANCH  36  37
ATOM     37  CG  GLU A   1      -7.662  17.294  66.751  1.00  0.00    -0.279 C  
ATOM     38  CD  GLU A   1      -6.520  16.726  67.555  1.00  0.00    -0.152 C  
ATOM     39  OE2 GLU A   1      -6.263  17.016  68.713  1.00  0.00    -0.154 OA 
ATOM     40  OE1 GLU A   1      -5.795  15.831  66.847  1.00  0.00    -0.260 OA 
ENDBRANCH  36  37
ENDBRANCH  32  36
ENDBRANCH  30  32
ENDBRANCH  24  28
ENDBRANCH  20  22
ENDBRANCH  19  20
ENDBRANCH   4  19
TORSDOF 7
ENDMDL
MODEL      131
REMARK 921   NORMALIZED FREE ENERGY PREDICTED BY IDOCK:   -5.46 KCAL/MOL
REMARK 922        TOTAL FREE ENERGY PREDICTED BY IDOCK:   -8.96 KCAL/MOL
REMARK 923 INTER-LIGAND FREE ENERGY PREDICTED BY IDOCK:   -8.27 KCAL/MOL
REMARK 924 INTRA-LIGAND FREE ENERGY PREDICTED BY IDOCK:   -0.69 KCAL/MOL
REMARK 927      BINDING AFFINITY PREDICTED BY RF-SCORE:    0.00 PKD
ROOT
HETATM    1  C   UNK A   0      -8.042   3.768  68.496  1.00  0.00    -0.074 C  
HETATM    2  N   UNK A   0      -8.435   4.831  69.297  1.00  0.00    -0.080 N  
HETATM    3  O   UNK A   0      -7.527   3.841  67.384  1.00  0.00    -0.066 OA 
HETATM    4  C   UNK A   0      -8.257   6.262  68.852  1.00  0.00    -0.113 C  
HETATM    5  C   UNK A   0      -7.723   7.092  70.042  1.00  0.00    -0.104 C  
HETATM    6  C   UNK A   0     -10.165   4.372  73.072  1.00  0.00    -0.168 C  
HETATM    7  H   UNK A   0     -10.294   2.362  72.681  1.00  0.00     0.000 HD 
HETATM    8  N   UNK A   0      -8.626   6.909  71.165  1.00  0.00    -0.131 NA 
HETATM    9  H   UNK A   0      -8.881   7.713  71.740  1.00  0.00     0.000 HD 
HETATM   10  H2  UNK A   0     -11.117   3.297  74.575  1.00  0.00     0.000 HD 
HETATM   11  C   UNK A   0      -9.149   5.662  71.468  1.00  0.00    -0.140 C  
HETATM   12  O   UNK A   0      -9.849   2.404  70.238  1.00  0.00    -0.002 OA 
HETATM   13  C   UNK A   0      -9.051   4.652  70.562  1.00  0.00    -0.120 C  
HETATM   14  H1  UNK A   0     -10.840   5.032  74.867  1.00  0.00     0.000 HD 
HETATM   15  C   UNK A   0      -9.656   3.353  70.992  1.00  0.00    -0.169 C  
HETATM   16  N   UNK A   0      -9.727   5.528  72.706  1.00  0.00    -0.149 NA 
HETATM   17  N   UNK A   0     -10.762   4.205  74.275  1.00  0.00    -0.229 NA 
HETATM   18  N   UNK A   0     -10.061   3.275  72.288  1.00  0.00    -0.162 N  
ENDROOT
BRANCH   4  19
HETATM   19  C   UNK A   0      -7.374   6.499  67.607  1.00  0.00    -0.095 C  
BRANCH  19  20
HETATM   20  N   UNK A   0      -8.177   6.623  66.379  1.00  0.00    -0.112 NA 
HETATM   21  H   UNK A   0      -8.181   5.890  65.669  1.00  0.00     0.000 HD 
BRANCH  20  22
HETATM   22  C   UNK A   0      -8.935   7.789  66.227  1.00  0.00    -0.174 A  
HETATM   23  C   UNK A   0     -10.680   9.239  67.119  1.00  0.00    -0.222 A  
HETATM   24  C   UNK A   0     -10.334  10.228  66.193  1.00  0.00    -0.253 A  
HETATM   25  C   UNK A   0      -8.690   8.744  65.231  1.00  0.00    -0.216 A  
HETATM   26  C   UNK A   0      -9.986   8.021  67.123  1.00  0.00    -0.303 A  
HETATM   27  C   UNK A   0      -9.375   9.957  65.215  1.00  0.00    -0.309 A  
BRANCH  24  28
HETATM   28  C   UNK A   0     -10.983  11.559  66.254  1.00  0.00    -0.275 C  
ATOM     29  H   GLU A   1      -9.963  12.178  64.530  1.00  0.00     0.000 HD 
ATOM     30  N   GLU A   1     -10.588  12.468  65.282  1.00  0.00    -0.283 N  
HETATM   31  O   UNK A   0     -11.789  11.827  67.136  1.00  0.00    -0.599 OA 
BRANCH  30  32
ATOM     32  CA  GLU A   1     -11.078  13.859  65.344  1.00  0.00    -0.310 C  
ATOM     33  C   GLU A   1     -12.261  14.027  64.373  1.00  0.00    -0.426 C  
ATOM     34  O   GLU A   1     -12.249  13.127  63.358  1.00  0.00    -0.646 OA 
ATOM     35  OXT GLU A   1     -13.048  14.963  64.402  1.00  0.00    -0.262 OA 
BRANCH  32  36
ATOM     36  CB  GLU A   1      -9.952  14.836  64.972  1.00  0.00    -0.204 C  
BRANCH  36  37
ATOM     37  CG  GLU A   1      -9.807  15.989  65.971  1.00  0.00    -0.365 C  
ATOM     38  CD  GLU A   1     -10.516  17.240  65.517  1.00  0.00    -0.122 C  
ATOM     39  OE2 GLU A   1     -11.133  17.356  64.470  1.00  0.00    -1.008 OA 
ATOM     40  OE1 GLU A   1     -10.406  18.243  66.417  1.00  0.00    -0.378 OA 
ENDBRANCH  36  37
ENDBRANCH  32  36
ENDBRANCH  30  32
ENDBRANCH  24  28
ENDBRANCH  20  22
ENDBRANCH  19  20
ENDBRANCH   4  19
TORSDOF 7
ENDMDL
MODEL      132
REMARK 921   NORMALIZED FREE ENERGY PREDICTED BY IDOCK:   -5.44 KCAL/MOL
REMARK 922        TOTAL FREE ENERGY PREDICTED BY IDOCK:   -8.94 KCAL/MOL
REMARK 923 INTER-LIGAND FREE ENERGY PREDICTED BY IDOCK:   -7.93 KCAL/MOL
REMARK 924 INTRA-LIGAND FREE ENERGY PREDICTED BY IDOCK:   -1.01 KCAL/MOL
REMARK 927      BINDING AFFINITY PREDICTED BY RF-SCORE:    0.00 PKD
ROOT
HETATM    1  C   UNK A   0     -10.271   6.976  67.312  1.00  0.00    -0.234 C  
HETATM    2  N   UNK A   0     -10.133   6.790  68.680  1.00  0.00    -0.153 N  
HETATM    3  O   UNK A   0     -10.745   7.960  66.751  1.00  0.00    -0.304 OA 
HETATM    4  C   UNK A   0     -10.576   7.843  69.667  1.00  0.00    -0.234 C  
HETATM    5  C   UNK A   0      -9.496   7.984  70.765  1.00  0.00    -0.161 C  
HETATM    6  C   UNK A   0      -8.481   3.359  70.399  1.00  0.00    -0.057 C  
HETATM    7  H   UNK A   0      -8.514   2.506  68.534  1.00  0.00     0.000 HD 
HETATM    8  N   UNK A   0      -9.258   6.670  71.338  1.00  0.00    -0.151 NA 
HETATM    9  H   UNK A   0      -9.146   6.576  72.347  1.00  0.00     0.000 HD 
HETATM   10  H2  UNK A   0      -7.850   1.379  70.386  1.00  0.00     0.000 HD 
HETATM   11  C   UNK A   0      -9.179   5.543  70.537  1.00  0.00    -0.148 C  
HETATM   12  O   UNK A   0      -9.991   4.133  67.378  1.00  0.00    -0.151 OA 
HETATM   13  C   UNK A   0      -9.599   5.603  69.244  1.00  0.00    -0.138 C  
HETATM   14  H1  UNK A   0      -7.744   2.256  71.933  1.00  0.00     0.000 HD 
HETATM   15  C   UNK A   0      -9.475   4.326  68.475  1.00  0.00    -0.153 C  
HETATM   16  N   UNK A   0      -8.647   4.418  71.117  1.00  0.00    -0.096 NA 
HETATM   17  N   UNK A   0      -7.982   2.225  70.941  1.00  0.00    -0.048 NA 
HETATM   18  N   UNK A   0      -8.795   3.318  69.085  1.00  0.00    -0.093 N  
ENDROOT
BRANCH   4  19
HETATM   19  C   UNK A   0     -10.926   9.233  69.092  1.00  0.00    -0.060 C  
BRANCH  19  20
HETATM   20  N   UNK A   0      -9.740  10.097  68.980  1.00  0.00    -0.195 NA 
HETATM   21  H   UNK A   0      -8.800   9.734  69.140  1.00  0.00     0.000 HD 
BRANCH  20  22
HETATM   22  C   UNK A   0      -9.957  11.438  68.644  1.00  0.00    -0.202 A  
HETATM   23  C   UNK A   0     -11.352  13.421  68.893  1.00  0.00    -0.331 A  
HETATM   24  C   UNK A   0     -10.365  14.195  68.275  1.00  0.00    -0.245 A  
HETATM   25  C   UNK A   0      -9.040  12.209  67.918  1.00  0.00    -0.185 A  
HETATM   26  C   UNK A   0     -11.146  12.045  69.065  1.00  0.00    -0.291 A  
HETATM   27  C   UNK A   0      -9.233  13.577  67.740  1.00  0.00    -0.213 A  
BRANCH  24  28
HETATM   28  C   UNK A   0     -10.523  15.667  68.192  1.00  0.00    -0.259 C  
ATOM     29  H   GLU A   1      -8.985  15.788  66.772  1.00  0.00     0.000 HD 
ATOM     30  N   GLU A   1      -9.630  16.322  67.353  1.00  0.00    -0.229 N  
HETATM   31  O   UNK A   0     -11.371  16.248  68.856  1.00  0.00    -0.342 OA 
BRANCH  30  32
ATOM     32  CA  GLU A   1      -9.623  17.797  67.310  1.00  0.00    -0.272 C  
ATOM     33  C   GLU A   1     -10.471  18.277  66.117  1.00  0.00    -0.383 C  
ATOM     34  O   GLU A   1     -10.571  17.353  65.130  1.00  0.00    -0.681 OA 
ATOM     35  OXT GLU A   1     -10.885  19.421  65.983  1.00  0.00    -0.407 OA 
BRANCH  32  36
ATOM     36  CB  GLU A   1      -8.184  18.317  67.173  1.00  0.00    -0.239 C  
BRANCH  36  37
ATOM     37  CG  GLU A   1      -7.478  18.488  68.522  1.00  0.00    -0.318 C  
ATOM     38  CD  GLU A   1      -6.846  19.848  68.676  1.00  0.00    -0.317 C  
ATOM     39  OE2 GLU A   1      -6.865  20.731  67.833  1.00  0.00    -0.309 OA 
ATOM     40  OE1 GLU A   1      -6.250  20.000  69.880  1.00  0.00    -0.326 OA 
ENDBRANCH  36  37
ENDBRANCH  32  36
ENDBRANCH  30  32
ENDBRANCH  24  28
ENDBRANCH  20  22
ENDBRANCH  19  20
ENDBRANCH   4  19
TORSDOF 7
ENDMDL
MODEL      133
REMARK 921   NORMALIZED FREE ENERGY PREDICTED BY IDOCK:   -5.44 KCAL/MOL
REMARK 922        TOTAL FREE ENERGY PREDICTED BY IDOCK:   -8.94 KCAL/MOL
REMARK 923 INTER-LIGAND FREE ENERGY PREDICTED BY IDOCK:   -8.11 KCAL/MOL
REMARK 924 INTRA-LIGAND FREE ENERGY PREDICTED BY IDOCK:   -0.82 KCAL/MOL
REMARK 927      BINDING AFFINITY PREDICTED BY RF-SCORE:    0.00 PKD
ROOT
HETATM    1  C   UNK A   0     -12.143  13.374  63.986  1.00  0.00    -0.449 C  
HETATM    2  N   UNK A   0     -10.977  13.625  64.695  1.00  0.00    -0.377 N  
HETATM    3  O   UNK A   0     -12.500  12.295  63.522  1.00  0.00    -0.583 OA 
HETATM    4  C   UNK A   0      -9.978  12.530  64.981  1.00  0.00    -0.176 C  
HETATM    5  C   UNK A   0      -9.503  12.659  66.447  1.00  0.00    -0.231 C  
HETATM    6  C   UNK A   0      -9.946  17.381  66.207  1.00  0.00    -0.297 C  
HETATM    7  H   UNK A   0     -11.524  18.152  65.147  1.00  0.00     0.000 HD 
HETATM    8  N   UNK A   0      -9.005  14.009  66.646  1.00  0.00    -0.423 NA 
HETATM    9  H   UNK A   0      -8.152  14.155  67.186  1.00  0.00     0.000 HD 
HETATM   10  H2  UNK A   0     -10.097  19.449  66.339  1.00  0.00     0.000 HD 
HETATM   11  C   UNK A   0      -9.669  15.103  66.115  1.00  0.00    -0.310 C  
HETATM   12  O   UNK A   0     -12.001  16.210  63.674  1.00  0.00    -0.826 OA 
HETATM   13  C   UNK A   0     -10.631  14.915  65.171  1.00  0.00    -0.428 C  
HETATM   14  H1  UNK A   0      -8.837  18.662  67.320  1.00  0.00     0.000 HD 
HETATM   15  C   UNK A   0     -11.275  16.166  64.663  1.00  0.00    -0.298 C  
HETATM   16  N   UNK A   0      -9.312  16.333  66.610  1.00  0.00    -0.232 NA 
HETATM   17  N   UNK A   0      -9.607  18.612  66.653  1.00  0.00    -0.320 NA 
HETATM   18  N   UNK A   0     -10.968  17.315  65.323  1.00  0.00    -0.101 N  
ENDROOT
BRANCH   4  19
HETATM   19  C   UNK A   0     -10.432  11.082  64.700  1.00  0.00    -0.329 C  
BRANCH  19  20
HETATM   20  N   UNK A   0      -9.341  10.114  64.900  1.00  0.00    -0.230 NA 
HETATM   21  H   UNK A   0      -8.525  10.099  64.288  1.00  0.00     0.000 HD 
BRANCH  20  22
HETATM   22  C   UNK A   0      -9.471   9.215  65.964  1.00  0.00    -0.255 A  
HETATM   23  C   UNK A   0      -8.365   7.721  67.541  1.00  0.00    -0.120 A  
HETATM   24  C   UNK A   0      -9.553   7.608  68.269  1.00  0.00    -0.160 A  
HETATM   25  C   UNK A   0     -10.677   8.988  66.638  1.00  0.00    -0.043 A  
HETATM   26  C   UNK A   0      -8.333   8.516  66.387  1.00  0.00    -0.115 A  
HETATM   27  C   UNK A   0     -10.722   8.199  67.785  1.00  0.00    -0.166 A  
BRANCH  24  28
HETATM   28  C   UNK A   0      -9.567   6.864  69.551  1.00  0.00    -0.148 C  
ATOM     29  H   GLU A   1      -8.098   8.132  70.346  1.00  0.00     0.000 HD 
ATOM     30  N   GLU A   1      -8.657   7.294  70.508  1.00  0.00    -0.142 N  
HETATM   31  O   UNK A   0     -10.319   5.913  69.719  1.00  0.00    -0.198 OA 
BRANCH  30  32
ATOM     32  CA  GLU A   1      -8.505   6.532  71.762  1.00  0.00    -0.123 C  
ATOM     33  C   GLU A   1      -8.764   7.463  72.961  1.00  0.00    -0.139 C  
ATOM     34  O   GLU A   1      -8.542   8.771  72.676  1.00  0.00    -0.411 OA 
ATOM     35  OXT GLU A   1      -8.989   7.074  74.099  1.00  0.00    -0.170 OA 
BRANCH  32  36
ATOM     36  CB  GLU A   1      -7.091   5.938  71.855  1.00  0.00    -0.083 C  
BRANCH  36  37
ATOM     37  CG  GLU A   1      -7.091   4.414  72.019  1.00  0.00    -0.059 C  
ATOM     38  CD  GLU A   1      -7.093   3.989  73.465  1.00  0.00    -0.064 C  
ATOM     39  OE2 GLU A   1      -7.080   4.748  74.421  1.00  0.00    -0.074 OA 
ATOM     40  OE1 GLU A   1      -7.121   2.643  73.600  1.00  0.00    -0.036 OA 
ENDBRANCH  36  37
ENDBRANCH  32  36
ENDBRANCH  30  32
ENDBRANCH  24  28
ENDBRANCH  20  22
ENDBRANCH  19  20
ENDBRANCH   4  19
TORSDOF 7
ENDMDL
MODEL      134
REMARK 921   NORMALIZED FREE ENERGY PREDICTED BY IDOCK:   -5.44 KCAL/MOL
REMARK 922        TOTAL FREE ENERGY PREDICTED BY IDOCK:   -8.93 KCAL/MOL
REMARK 923 INTER-LIGAND FREE ENERGY PREDICTED BY IDOCK:   -7.87 KCAL/MOL
REMARK 924 INTRA-LIGAND FREE ENERGY PREDICTED BY IDOCK:   -1.07 KCAL/MOL
REMARK 927      BINDING AFFINITY PREDICTED BY RF-SCORE:    0.00 PKD
ROOT
HETATM    1  C   UNK A   0     -10.659   4.363  72.820  1.00  0.00    -0.182 C  
HETATM    2  N   UNK A   0     -10.397   4.790  71.526  1.00  0.00    -0.171 N  
HETATM    3  O   UNK A   0     -11.097   5.046  73.742  1.00  0.00    -0.308 OA 
HETATM    4  C   UNK A   0     -10.640   6.218  71.103  1.00  0.00    -0.239 C  
HETATM    5  C   UNK A   0     -11.312   6.218  69.711  1.00  0.00    -0.436 C  
HETATM    6  C   UNK A   0      -8.913   2.298  68.519  1.00  0.00    -0.129 C  
HETATM    7  H   UNK A   0      -8.620   0.868  69.960  1.00  0.00     0.000 HD 
HETATM    8  N   UNK A   0     -10.480   5.446  68.805  1.00  0.00    -0.181 NA 
HETATM    9  H   UNK A   0     -10.322   5.785  67.856  1.00  0.00     0.000 HD 
HETATM   10  H2  UNK A   0      -7.999   0.576  67.799  1.00  0.00     0.000 HD 
HETATM   11  C   UNK A   0      -9.897   4.255  69.208  1.00  0.00    -0.110 C  
HETATM   12  O   UNK A   0      -8.892   2.280  71.984  1.00  0.00    -0.067 OA 
HETATM   13  C   UNK A   0      -9.862   3.935  70.530  1.00  0.00    -0.110 C  
HETATM   14  H1  UNK A   0      -8.413   1.835  66.610  1.00  0.00     0.000 HD 
HETATM   15  C   UNK A   0      -9.202   2.631  70.850  1.00  0.00    -0.131 C  
HETATM   16  N   UNK A   0      -9.401   3.451  68.211  1.00  0.00    -0.182 NA 
HETATM   17  N   UNK A   0      -8.392   1.488  67.569  1.00  0.00    -0.067 NA 
HETATM   18  N   UNK A   0      -8.885   1.838  69.791  1.00  0.00    -0.062 N  
ENDROOT
BRANCH   4  19
HETATM   19  C   UNK A   0     -11.445   7.106  72.077  1.00  0.00    -0.274 C  
BRANCH  19  20
HETATM   20  N   UNK A   0     -10.766   8.384  72.347  1.00  0.00    -0.339 NA 
HETATM   21  H   UNK A   0     -10.217   8.526  73.194  1.00  0.00     0.000 HD 
BRANCH  20  22
HETATM   22  C   UNK A   0     -10.906   9.395  71.390  1.00  0.00    -0.360 A  
HETATM   23  C   UNK A   0     -10.044  10.443  69.365  1.00  0.00    -0.251 A  
HETATM   24  C   UNK A   0     -11.216  11.198  69.255  1.00  0.00    -0.331 A  
HETATM   25  C   UNK A   0     -12.013  10.251  71.328  1.00  0.00    -0.457 A  
HETATM   26  C   UNK A   0      -9.892   9.554  70.437  1.00  0.00    -0.329 A  
HETATM   27  C   UNK A   0     -12.176  11.140  70.268  1.00  0.00    -0.436 A  
BRANCH  24  28
HETATM   28  C   UNK A   0     -11.437  12.055  68.066  1.00  0.00    -0.328 C  
ATOM     29  H   GLU A   1      -9.475  11.711  67.409  1.00  0.00     0.000 HD 
ATOM     30  N   GLU A   1     -10.336  12.230  67.237  1.00  0.00    -0.213 N  
HETATM   31  O   UNK A   0     -12.519  12.590  67.867  1.00  0.00    -0.068 OA 
BRANCH  30  32
ATOM     32  CA  GLU A   1     -10.421  13.172  66.104  1.00  0.00    -0.281 C  
ATOM     33  C   GLU A   1     -10.080  12.432  64.797  1.00  0.00    -0.236 C  
ATOM     34  O   GLU A   1      -9.305  11.336  64.993  1.00  0.00    -0.221 OA 
ATOM     35  OXT GLU A   1     -10.334  12.857  63.679  1.00  0.00    -0.346 OA 
BRANCH  32  36
ATOM     36  CB  GLU A   1      -9.449  14.343  66.313  1.00  0.00    -0.297 C  
BRANCH  36  37
ATOM     37  CG  GLU A   1      -8.413  14.074  67.410  1.00  0.00    -0.209 C  
ATOM     38  CD  GLU A   1      -8.383  15.160  68.456  1.00  0.00    -0.158 C  
ATOM     39  OE2 GLU A   1      -9.082  16.161  68.449  1.00  0.00    -0.189 OA 
ATOM     40  OE1 GLU A   1      -7.486  14.900  69.434  1.00  0.00    -0.168 OA 
ENDBRANCH  36  37
ENDBRANCH  32  36
ENDBRANCH  30  32
ENDBRANCH  24  28
ENDBRANCH  20  22
ENDBRANCH  19  20
ENDBRANCH   4  19
TORSDOF 7
ENDMDL
MODEL      135
REMARK 921   NORMALIZED FREE ENERGY PREDICTED BY IDOCK:   -5.43 KCAL/MOL
REMARK 922        TOTAL FREE ENERGY PREDICTED BY IDOCK:   -8.92 KCAL/MOL
REMARK 923 INTER-LIGAND FREE ENERGY PREDICTED BY IDOCK:   -8.00 KCAL/MOL
REMARK 924 INTRA-LIGAND FREE ENERGY PREDICTED BY IDOCK:   -0.92 KCAL/MOL
REMARK 927      BINDING AFFINITY PREDICTED BY RF-SCORE:    0.00 PKD
ROOT
HETATM    1  C   UNK A   0     -10.677  17.779  65.258  1.00  0.00     0.214 C  
HETATM    2  N   UNK A   0      -9.729  17.145  66.048  1.00  0.00    -0.231 N  
HETATM    3  O   UNK A   0     -11.497  17.238  64.521  1.00  0.00    -0.864 OA 
HETATM    4  C   UNK A   0      -9.610  15.641  66.082  1.00  0.00    -0.330 C  
HETATM    5  C   UNK A   0      -9.422  15.188  67.548  1.00  0.00    -0.206 C  
HETATM    6  C   UNK A   0      -7.024  19.174  68.502  1.00  0.00    -0.283 C  
HETATM    7  H   UNK A   0      -7.652  20.915  67.618  1.00  0.00     0.000 HD 
HETATM    8  N   UNK A   0      -8.285  15.903  68.102  1.00  0.00    -0.148 NA 
HETATM    9  H   UNK A   0      -7.617  15.406  68.691  1.00  0.00     0.000 HD 
HETATM   10  H2  UNK A   0      -5.983  20.851  69.151  1.00  0.00     0.000 HD 
HETATM   11  C   UNK A   0      -8.092  17.251  67.843  1.00  0.00    -0.210 C  
HETATM   12  O   UNK A   0      -8.881  19.960  65.684  1.00  0.00    -0.307 OA 
HETATM   13  C   UNK A   0      -8.799  17.855  66.849  1.00  0.00    -0.253 C  
HETATM   14  H1  UNK A   0      -5.604  19.301  69.943  1.00  0.00     0.000 HD 
HETATM   15  C   UNK A   0      -8.504  19.308  66.653  1.00  0.00    -0.316 C  
HETATM   16  N   UNK A   0      -7.191  17.904  68.647  1.00  0.00    -0.264 NA 
HETATM   17  N   UNK A   0      -6.128  19.847  69.259  1.00  0.00    -0.280 NA 
HETATM   18  N   UNK A   0      -7.719  19.898  67.595  1.00  0.00    -0.284 N  
ENDROOT
BRANCH   4  19
HETATM   19  C   UNK A   0     -10.753  14.837  65.425  1.00  0.00    -0.371 C  
BRANCH  19  20
HETATM   20  N   UNK A   0     -10.243  13.789  64.524  1.00  0.00    -0.675 NA 
HETATM   21  H   UNK A   0      -9.833  14.020  63.619  1.00  0.00     0.000 HD 
BRANCH  20  22
HETATM   22  C   UNK A   0     -10.344  12.465  64.964  1.00  0.00    -0.293 A  
HETATM   23  C   UNK A   0      -9.747  10.129  64.607  1.00  0.00    -0.377 A  
HETATM   24  C   UNK A   0     -10.236   9.808  65.878  1.00  0.00    -0.245 A  
HETATM   25  C   UNK A   0     -10.938  12.099  66.178  1.00  0.00    -0.335 A  
HETATM   26  C   UNK A   0      -9.814  11.453  64.154  1.00  0.00    -0.307 A  
HETATM   27  C   UNK A   0     -10.880  10.786  66.640  1.00  0.00    -0.228 A  
BRANCH  24  28
HETATM   28  C   UNK A   0     -10.066   8.436  66.412  1.00  0.00    -0.172 C  
ATOM     29  H   GLU A   1      -8.045   8.429  65.854  1.00  0.00     0.000 HD 
ATOM     30  N   GLU A   1      -8.808   7.873  66.239  1.00  0.00    -0.152 N  
HETATM   31  O   UNK A   0     -11.000   7.845  66.938  1.00  0.00    -0.188 OA 
BRANCH  30  32
ATOM     32  CA  GLU A   1      -8.584   6.464  66.616  1.00  0.00    -0.121 C  
ATOM     33  C   GLU A   1      -7.566   6.401  67.771  1.00  0.00    -0.102 C  
ATOM     34  O   GLU A   1      -6.747   7.481  67.818  1.00  0.00    -0.062 OA 
ATOM     35  OXT GLU A   1      -7.390   5.420  68.480  1.00  0.00    -0.072 OA 
BRANCH  32  36
ATOM     36  CB  GLU A   1      -8.061   5.668  65.411  1.00  0.00    -0.126 C  
BRANCH  36  37
ATOM     37  CG  GLU A   1      -8.438   4.184  65.465  1.00  0.00    -0.110 C  
ATOM     38  CD  GLU A   1      -9.366   3.782  64.347  1.00  0.00    -0.150 C  
ATOM     39  OE2 GLU A   1      -9.799   4.535  63.489  1.00  0.00    -0.012 OA 
ATOM     40  OE1 GLU A   1      -9.671   2.465  64.387  1.00  0.00    -0.142 OA 
ENDBRANCH  36  37
ENDBRANCH  32  36
ENDBRANCH  30  32
ENDBRANCH  24  28
ENDBRANCH  20  22
ENDBRANCH  19  20
ENDBRANCH   4  19
TORSDOF 7
ENDMDL
MODEL      136
REMARK 921   NORMALIZED FREE ENERGY PREDICTED BY IDOCK:   -5.42 KCAL/MOL
REMARK 922        TOTAL FREE ENERGY PREDICTED BY IDOCK:   -8.90 KCAL/MOL
REMARK 923 INTER-LIGAND FREE ENERGY PREDICTED BY IDOCK:   -7.91 KCAL/MOL
REMARK 924 INTRA-LIGAND FREE ENERGY PREDICTED BY IDOCK:   -0.99 KCAL/MOL
REMARK 927      BINDING AFFINITY PREDICTED BY RF-SCORE:    0.00 PKD
ROOT
HETATM    1  C   UNK A   0      -8.117   5.301  68.366  1.00  0.00    -0.091 C  
HETATM    2  N   UNK A   0      -8.001   6.606  68.824  1.00  0.00    -0.117 N  
HETATM    3  O   UNK A   0      -7.898   4.903  67.225  1.00  0.00    -0.094 OA 
HETATM    4  C   UNK A   0      -7.569   7.726  67.911  1.00  0.00    -0.116 C  
HETATM    5  C   UNK A   0      -6.553   8.618  68.662  1.00  0.00    -0.055 C  
HETATM    6  C   UNK A   0      -8.787   7.757  72.763  1.00  0.00    -0.173 C  
HETATM    7  H   UNK A   0      -9.537   5.874  73.079  1.00  0.00     0.000 HD 
HETATM    8  N   UNK A   0      -7.162   9.047  69.910  1.00  0.00    -0.054 NA 
HETATM    9  H   UNK A   0      -7.042  10.011  70.221  1.00  0.00     0.000 HD 
HETATM   10  H2  UNK A   0      -9.581   7.494  74.665  1.00  0.00     0.000 HD 
HETATM   11  C   UNK A   0      -7.902   8.169  70.684  1.00  0.00    -0.091 C  
HETATM   12  O   UNK A   0      -9.724   5.119  70.721  1.00  0.00    -0.167 OA 
HETATM   13  C   UNK A   0      -8.305   6.980  70.158  1.00  0.00    -0.138 C  
HETATM   14  H1  UNK A   0      -8.790   9.053  74.322  1.00  0.00     0.000 HD 
HETATM   15  C   UNK A   0      -9.104   6.116  71.080  1.00  0.00    -0.146 C  
HETATM   16  N   UNK A   0      -8.165   8.564  71.972  1.00  0.00    -0.242 NA 
HETATM   17  N   UNK A   0      -9.085   8.120  74.031  1.00  0.00    -0.281 NA 
HETATM   18  N   UNK A   0      -9.177   6.521  72.377  1.00  0.00    -0.137 N  
ENDROOT
BRANCH   4  19
HETATM   19  C   UNK A   0      -6.997   7.322  66.535  1.00  0.00    -0.073 C  
BRANCH  19  20
HETATM   20  N   UNK A   0      -8.056   7.151  65.527  1.00  0.00    -0.129 NA 
HETATM   21  H   UNK A   0      -8.269   6.236  65.128  1.00  0.00     0.000 HD 
BRANCH  20  22
HETATM   22  C   UNK A   0      -8.759   8.297  65.139  1.00  0.00    -0.054 A  
HETATM   23  C   UNK A   0     -10.238  10.122  65.792  1.00  0.00    -0.283 A  
HETATM   24  C   UNK A   0      -9.998  10.756  64.569  1.00  0.00    -0.395 A  
HETATM   25  C   UNK A   0      -8.634   8.888  63.876  1.00  0.00    -0.110 A  
HETATM   26  C   UNK A   0      -9.625   8.891  66.066  1.00  0.00    -0.320 A  
HETATM   27  C   UNK A   0      -9.238  10.110  63.591  1.00  0.00    -0.320 A  
BRANCH  24  28
HETATM   28  C   UNK A   0     -10.548  12.109  64.316  1.00  0.00    -0.345 C  
ATOM     29  H   GLU A   1      -9.679  12.832  66.083  1.00  0.00     0.000 HD 
ATOM     30  N   GLU A   1     -10.291  13.057  65.298  1.00  0.00    -0.300 N  
HETATM   31  O   UNK A   0     -11.210  12.342  63.314  1.00  0.00    -0.441 OA 
BRANCH  30  32
ATOM     32  CA  GLU A   1     -10.911  14.392  65.199  1.00  0.00    -0.386 C  
ATOM     33  C   GLU A   1      -9.891  15.462  65.634  1.00  0.00    -0.352 C  
ATOM     34  O   GLU A   1      -8.935  14.979  66.465  1.00  0.00    -0.269 OA 
ATOM     35  OXT GLU A   1     -10.004  16.657  65.397  1.00  0.00    -0.565 OA 
BRANCH  32  36
ATOM     36  CB  GLU A   1     -12.160  14.466  66.090  1.00  0.00    -0.373 C  
BRANCH  36  37
ATOM     37  CG  GLU A   1     -12.177  13.397  67.188  1.00  0.00    -0.306 C  
ATOM     38  CD  GLU A   1     -11.935  13.974  68.560  1.00  0.00    -0.348 C  
ATOM     39  OE2 GLU A   1     -11.731  15.153  68.801  1.00  0.00    -0.329 OA 
ATOM     40  OE1 GLU A   1     -11.979  13.027  69.525  1.00  0.00    -0.309 OA 
ENDBRANCH  36  37
ENDBRANCH  32  36
ENDBRANCH  30  32
ENDBRANCH  24  28
ENDBRANCH  20  22
ENDBRANCH  19  20
ENDBRANCH   4  19
TORSDOF 7
ENDMDL
MODEL      137
REMARK 921   NORMALIZED FREE ENERGY PREDICTED BY IDOCK:   -5.38 KCAL/MOL
REMARK 922        TOTAL FREE ENERGY PREDICTED BY IDOCK:   -8.86 KCAL/MOL
REMARK 923 INTER-LIGAND FREE ENERGY PREDICTED BY IDOCK:   -8.26 KCAL/MOL
REMARK 924 INTRA-LIGAND FREE ENERGY PREDICTED BY IDOCK:   -0.60 KCAL/MOL
REMARK 927      BINDING AFFINITY PREDICTED BY RF-SCORE:    0.00 PKD
ROOT
HETATM    1  C   UNK A   0      -8.248  14.376  67.561  1.00  0.00    -0.188 C  
HETATM    2  N   UNK A   0      -9.352  14.648  66.765  1.00  0.00    -0.245 N  
HETATM    3  O   UNK A   0      -7.869  13.270  67.934  1.00  0.00    -0.123 OA 
HETATM    4  C   UNK A   0     -10.243  13.544  66.250  1.00  0.00    -0.299 C  
HETATM    5  C   UNK A   0     -10.577  13.824  64.766  1.00  0.00    -0.428 C  
HETATM    6  C   UNK A   0     -10.473  18.498  65.593  1.00  0.00    -0.103 C  
HETATM    7  H   UNK A   0      -9.062  19.219  66.896  1.00  0.00     0.000 HD 
HETATM    8  N   UNK A   0     -11.141  15.159  64.671  1.00  0.00    -0.617 NA 
HETATM    9  H   UNK A   0     -11.943  15.322  64.064  1.00  0.00     0.000 HD 
HETATM   10  H2  UNK A   0     -10.446  20.573  65.715  1.00  0.00     0.000 HD 
HETATM   11  C   UNK A   0     -10.607  16.215  65.393  1.00  0.00    -0.380 C  
HETATM   12  O   UNK A   0      -8.608  17.143  68.179  1.00  0.00    -0.218 OA 
HETATM   13  C   UNK A   0      -9.733  15.966  66.406  1.00  0.00    -0.287 C  
HETATM   14  H1  UNK A   0     -11.548  19.843  64.521  1.00  0.00     0.000 HD 
HETATM   15  C   UNK A   0      -9.227  17.179  67.120  1.00  0.00    -0.236 C  
HETATM   16  N   UNK A   0     -10.993  17.474  65.006  1.00  0.00    -0.749 NA 
HETATM   17  N   UNK A   0     -10.846  19.754  65.257  1.00  0.00    -0.302 NA 
HETATM   18  N   UNK A   0      -9.542  18.381  66.567  1.00  0.00    -0.318 N  
ENDROOT
BRANCH   4  19
HETATM   19  C   UNK A   0      -9.725  12.099  66.410  1.00  0.00    -0.231 C  
BRANCH  19  20
HETATM   20  N   UNK A   0     -10.686  11.245  67.127  1.00  0.00    -0.239 NA 
HETATM   21  H   UNK A   0     -11.629  11.089  66.770  1.00  0.00     0.000 HD 
BRANCH  20  22
HETATM   22  C   UNK A   0     -10.252  10.657  68.320  1.00  0.00    -0.166 A  
HETATM   23  C   UNK A   0     -10.858   9.606  70.435  1.00  0.00    -0.353 A  
HETATM   24  C   UNK A   0      -9.528   9.215  70.623  1.00  0.00    -0.316 A  
HETATM   25  C   UNK A   0      -8.910  10.364  68.591  1.00  0.00    -0.142 A  
HETATM   26  C   UNK A   0     -11.210  10.333  69.290  1.00  0.00    -0.281 A  
HETATM   27  C   UNK A   0      -8.546   9.643  69.727  1.00  0.00    -0.211 A  
BRANCH  24  28
HETATM   28  C   UNK A   0      -9.167   8.349  71.770  1.00  0.00    -0.220 C  
ATOM     29  H   GLU A   1      -9.081   6.667  70.521  1.00  0.00     0.000 HD 
ATOM     30  N   GLU A   1      -9.028   6.997  71.485  1.00  0.00    -0.139 N  
HETATM   31  O   UNK A   0      -9.037   8.815  72.895  1.00  0.00    -0.311 OA 
BRANCH  30  32
ATOM     32  CA  GLU A   1      -8.802   6.041  72.586  1.00  0.00    -0.124 C  
ATOM     33  C   GLU A   1      -7.574   5.170  72.262  1.00  0.00    -0.096 C  
ATOM     34  O   GLU A   1      -7.320   5.080  70.933  1.00  0.00    -0.064 OA 
ATOM     35  OXT GLU A   1      -6.973   4.494  73.086  1.00  0.00    -0.063 OA 
BRANCH  32  36
ATOM     36  CB  GLU A   1     -10.040   5.151  72.778  1.00  0.00    -0.209 C  
BRANCH  36  37
ATOM     37  CG  GLU A   1     -10.098   3.983  71.788  1.00  0.00    -0.199 C  
ATOM     38  CD  GLU A   1      -9.966   2.643  72.466  1.00  0.00    -0.156 C  
ATOM     39  OE2 GLU A   1      -9.813   2.475  73.666  1.00  0.00    -0.096 OA 
ATOM     40  OE1 GLU A   1     -10.046   1.618  71.588  1.00  0.00    -0.151 OA 
ENDBRANCH  36  37
ENDBRANCH  32  36
ENDBRANCH  30  32
ENDBRANCH  24  28
ENDBRANCH  20  22
ENDBRANCH  19  20
ENDBRANCH   4  19
TORSDOF 7
ENDMDL
MODEL      138
REMARK 921   NORMALIZED FREE ENERGY PREDICTED BY IDOCK:   -5.35 KCAL/MOL
REMARK 922        TOTAL FREE ENERGY PREDICTED BY IDOCK:   -8.81 KCAL/MOL
REMARK 923 INTER-LIGAND FREE ENERGY PREDICTED BY IDOCK:   -7.92 KCAL/MOL
REMARK 924 INTRA-LIGAND FREE ENERGY PREDICTED BY IDOCK:   -0.89 KCAL/MOL
REMARK 927      BINDING AFFINITY PREDICTED BY RF-SCORE:    0.00 PKD
ROOT
HETATM    1  C   UNK A   0      -9.692   4.241  66.677  1.00  0.00    -0.219 C  
HETATM    2  N   UNK A   0      -8.400   4.664  66.954  1.00  0.00    -0.106 N  
HETATM    3  O   UNK A   0     -10.434   4.678  65.802  1.00  0.00    -0.285 OA 
HETATM    4  C   UNK A   0      -7.745   5.767  66.159  1.00  0.00    -0.095 C  
HETATM    5  C   UNK A   0      -6.286   5.359  65.848  1.00  0.00    -0.035 C  
HETATM    6  C   UNK A   0      -6.025   3.032  69.979  1.00  0.00    -0.023 C  
HETATM    7  H   UNK A   0      -7.684   2.011  70.621  1.00  0.00     0.000 HD 
HETATM    8  N   UNK A   0      -5.628   5.035  67.102  1.00  0.00    -0.013 NA 
HETATM    9  H   UNK A   0      -4.672   5.352  67.263  1.00  0.00     0.000 HD 
HETATM   10  H2  UNK A   0      -5.698   1.931  71.711  1.00  0.00     0.000 HD 
HETATM   11  C   UNK A   0      -6.277   4.303  68.083  1.00  0.00    -0.036 C  
HETATM   12  O   UNK A   0      -9.424   3.231  69.336  1.00  0.00    -0.167 OA 
HETATM   13  C   UNK A   0      -7.623   4.119  68.007  1.00  0.00    -0.068 C  
HETATM   14  H1  UNK A   0      -4.292   2.758  70.995  1.00  0.00     0.000 HD 
HETATM   15  C   UNK A   0      -8.218   3.320  69.123  1.00  0.00    -0.059 C  
HETATM   16  N   UNK A   0      -5.488   3.783  69.079  1.00  0.00    -0.012 NA 
HETATM   17  N   UNK A   0      -5.285   2.522  70.990  1.00  0.00    -0.004 NA 
HETATM   18  N   UNK A   0      -7.341   2.719  69.972  1.00  0.00    -0.043 N  
ENDROOT
BRANCH   4  19
HETATM   19  C   UNK A   0      -8.456   6.208  64.862  1.00  0.00    -0.036 C  
BRANCH  19  20
HETATM   20  N   UNK A   0      -7.792   7.363  64.235  1.00  0.00    -0.130 NA 
HETATM   21  H   UNK A   0      -6.871   7.278  63.804  1.00  0.00     0.000 HD 
BRANCH  20  22
HETATM   22  C   UNK A   0      -8.478   8.583  64.255  1.00  0.00    -0.051 A  
HETATM   23  C   UNK A   0      -9.425  10.430  62.978  1.00  0.00    -0.362 A  
HETATM   24  C   UNK A   0     -10.079  10.890  64.126  1.00  0.00    -0.416 A  
HETATM   25  C   UNK A   0      -9.041   9.132  65.414  1.00  0.00    -0.271 A  
HETATM   26  C   UNK A   0      -8.621   9.286  63.052  1.00  0.00    -0.217 A  
HETATM   27  C   UNK A   0      -9.842  10.270  65.355  1.00  0.00    -0.362 A  
BRANCH  24  28
HETATM   28  C   UNK A   0     -11.022  12.030  64.034  1.00  0.00    -0.381 C  
ATOM     29  H   GLU A   1      -9.822  13.174  65.319  1.00  0.00     0.000 HD 
ATOM     30  N   GLU A   1     -10.704  13.139  64.808  1.00  0.00    -0.343 N  
HETATM   31  O   UNK A   0     -12.027  11.962  63.340  1.00  0.00    -0.483 OA 
BRANCH  30  32
ATOM     32  CA  GLU A   1     -11.652  14.267  64.886  1.00  0.00    -0.384 C  
ATOM     33  C   GLU A   1     -10.884  15.592  64.717  1.00  0.00    -0.363 C  
ATOM     34  O   GLU A   1      -9.576  15.496  65.063  1.00  0.00    -0.173 OA 
ATOM     35  OXT GLU A   1     -11.411  16.665  64.455  1.00  0.00    -1.023 OA 
BRANCH  32  36
ATOM     36  CB  GLU A   1     -12.385  14.254  66.236  1.00  0.00    -0.399 C  
BRANCH  36  37
ATOM     37  CG  GLU A   1     -11.909  13.132  67.164  1.00  0.00    -0.424 C  
ATOM     38  CD  GLU A   1     -11.869  13.556  68.610  1.00  0.00    -0.369 C  
ATOM     39  OE2 GLU A   1     -12.161  14.667  69.025  1.00  0.00    -0.295 OA 
ATOM     40  OE1 GLU A   1     -11.474  12.551  69.425  1.00  0.00    -0.270 OA 
ENDBRANCH  36  37
ENDBRANCH  32  36
ENDBRANCH  30  32
ENDBRANCH  24  28
ENDBRANCH  20  22
ENDBRANCH  19  20
ENDBRANCH   4  19
TORSDOF 7
ENDMDL
MODEL      139
REMARK 921   NORMALIZED FREE ENERGY PREDICTED BY IDOCK:   -5.34 KCAL/MOL
REMARK 922        TOTAL FREE ENERGY PREDICTED BY IDOCK:   -8.80 KCAL/MOL
REMARK 923 INTER-LIGAND FREE ENERGY PREDICTED BY IDOCK:   -7.87 KCAL/MOL
REMARK 924 INTRA-LIGAND FREE ENERGY PREDICTED BY IDOCK:   -0.93 KCAL/MOL
REMARK 927      BINDING AFFINITY PREDICTED BY RF-SCORE:    0.00 PKD
ROOT
HETATM    1  C   UNK A   0     -10.617   6.116  67.192  1.00  0.00    -0.305 C  
HETATM    2  N   UNK A   0      -9.537   6.573  66.450  1.00  0.00    -0.297 N  
HETATM    3  O   UNK A   0     -11.187   6.715  68.099  1.00  0.00    -0.230 OA 
HETATM    4  C   UNK A   0      -8.925   7.930  66.700  1.00  0.00    -0.151 C  
HETATM    5  C   UNK A   0      -8.642   8.608  65.340  1.00  0.00    -0.181 C  
HETATM    6  C   UNK A   0      -7.735   4.377  63.386  1.00  0.00    -0.073 C  
HETATM    7  H   UNK A   0      -8.879   2.777  63.969  1.00  0.00     0.000 HD 
HETATM    8  N   UNK A   0      -7.826   7.708  64.545  1.00  0.00    -0.129 NA 
HETATM    9  H   UNK A   0      -7.049   8.083  64.001  1.00  0.00     0.000 HD 
HETATM   10  H2  UNK A   0      -7.330   2.640  62.318  1.00  0.00     0.000 HD 
HETATM   11  C   UNK A   0      -8.084   6.347  64.513  1.00  0.00    -0.088 C  
HETATM   12  O   UNK A   0      -9.660   3.627  66.167  1.00  0.00    -0.181 OA 
HETATM   13  C   UNK A   0      -8.920   5.797  65.436  1.00  0.00    -0.036 C  
HETATM   14  H1  UNK A   0      -6.483   4.123  61.812  1.00  0.00     0.000 HD 
HETATM   15  C   UNK A   0      -9.119   4.320  65.311  1.00  0.00    -0.143 C  
HETATM   16  N   UNK A   0      -7.475   5.634  63.510  1.00  0.00    -0.061 NA 
HETATM   17  N   UNK A   0      -7.137   3.636  62.425  1.00  0.00    -0.035 NA 
HETATM   18  N   UNK A   0      -8.603   3.732  64.198  1.00  0.00    -0.091 N  
ENDROOT
BRANCH   4  19
HETATM   19  C   UNK A   0      -9.716   8.892  67.614  1.00  0.00    -0.161 C  
BRANCH  19  20
HETATM   20  N   UNK A   0     -10.623   9.760  66.845  1.00  0.00    -0.206 NA 
HETATM   21  H   UNK A   0     -11.369   9.371  66.268  1.00  0.00     0.000 HD 
BRANCH  20  22
HETATM   22  C   UNK A   0     -10.419  11.141  66.940  1.00  0.00    -0.246 A  
HETATM   23  C   UNK A   0     -11.412  13.364  67.047  1.00  0.00    -0.372 A  
HETATM   24  C   UNK A   0     -10.170  13.903  67.399  1.00  0.00    -0.252 A  
HETATM   25  C   UNK A   0      -9.165  11.720  67.171  1.00  0.00    -0.179 A  
HETATM   26  C   UNK A   0     -11.526  11.988  66.809  1.00  0.00    -0.410 A  
HETATM   27  C   UNK A   0      -9.037  13.087  67.407  1.00  0.00    -0.201 A  
BRANCH  24  28
HETATM   28  C   UNK A   0     -10.062  15.336  67.763  1.00  0.00    -0.230 C  
ATOM     29  H   GLU A   1     -10.230  15.899  65.750  1.00  0.00     0.000 HD 
ATOM     30  N   GLU A   1     -10.064  16.230  66.701  1.00  0.00    -0.266 N  
HETATM   31  O   UNK A   0      -9.945  15.682  68.931  1.00  0.00    -0.196 OA 
BRANCH  30  32
ATOM     32  CA  GLU A   1      -9.826  17.664  66.956  1.00  0.00    -0.307 C  
ATOM     33  C   GLU A   1     -10.643  18.504  65.956  1.00  0.00    -0.331 C  
ATOM     34  O   GLU A   1     -10.934  17.835  64.813  1.00  0.00    -0.855 OA 
ATOM     35  OXT GLU A   1     -10.877  19.697  66.089  1.00  0.00    -0.424 OA 
BRANCH  32  36
ATOM     36  CB  GLU A   1      -8.331  17.987  66.814  1.00  0.00    -0.271 C  
BRANCH  36  37
ATOM     37  CG  GLU A   1      -7.845  19.031  67.825  1.00  0.00    -0.279 C  
ATOM     38  CD  GLU A   1      -6.650  18.559  68.614  1.00  0.00    -0.247 C  
ATOM     39  OE2 GLU A   1      -6.116  17.468  68.495  1.00  0.00    -0.165 OA 
ATOM     40  OE1 GLU A   1      -6.212  19.497  69.484  1.00  0.00    -0.271 OA 
ENDBRANCH  36  37
ENDBRANCH  32  36
ENDBRANCH  30  32
ENDBRANCH  24  28
ENDBRANCH  20  22
ENDBRANCH  19  20
ENDBRANCH   4  19
TORSDOF 7
ENDMDL
MODEL      140
REMARK 921   NORMALIZED FREE ENERGY PREDICTED BY IDOCK:   -5.32 KCAL/MOL
REMARK 922        TOTAL FREE ENERGY PREDICTED BY IDOCK:   -8.76 KCAL/MOL
REMARK 923 INTER-LIGAND FREE ENERGY PREDICTED BY IDOCK:   -8.17 KCAL/MOL
REMARK 924 INTRA-LIGAND FREE ENERGY PREDICTED BY IDOCK:   -0.60 KCAL/MOL
REMARK 927      BINDING AFFINITY PREDICTED BY RF-SCORE:    0.00 PKD
ROOT
HETATM    1  C   UNK A   0      -9.391   8.674  71.277  1.00  0.00    -0.224 C  
HETATM    2  N   UNK A   0     -10.604   8.013  71.418  1.00  0.00    -0.213 N  
HETATM    3  O   UNK A   0      -9.220   9.800  70.819  1.00  0.00    -0.109 OA 
HETATM    4  C   UNK A   0     -11.904   8.654  70.998  1.00  0.00    -0.265 C  
HETATM    5  C   UNK A   0     -12.969   8.380  72.085  1.00  0.00    -0.337 C  
HETATM    6  C   UNK A   0     -10.977   4.171  73.015  1.00  0.00    -0.141 C  
HETATM    7  H   UNK A   0      -8.931   4.035  72.958  1.00  0.00     0.000 HD 
HETATM    8  N   UNK A   0     -13.036   6.945  72.302  1.00  0.00    -0.524 NA 
HETATM    9  H   UNK A   0     -13.946   6.497  72.416  1.00  0.00     0.000 HD 
HETATM   10  H2  UNK A   0     -10.256   2.314  73.609  1.00  0.00     0.000 HD 
HETATM   11  C   UNK A   0     -11.887   6.174  72.357  1.00  0.00    -0.238 C  
HETATM   12  O   UNK A   0      -8.443   5.989  71.505  1.00  0.00    -0.126 OA 
HETATM   13  C   UNK A   0     -10.704   6.696  71.932  1.00  0.00    -0.223 C  
HETATM   14  H1  UNK A   0     -12.012   2.584  73.738  1.00  0.00     0.000 HD 
HETATM   15  C   UNK A   0      -9.531   5.772  72.029  1.00  0.00    -0.150 C  
HETATM   16  N   UNK A   0     -12.025   4.908  72.871  1.00  0.00    -0.211 NA 
HETATM   17  N   UNK A   0     -11.076   2.910  73.495  1.00  0.00    -0.219 NA 
HETATM   18  N   UNK A   0      -9.736   4.603  72.694  1.00  0.00    -0.139 N  
ENDROOT
BRANCH   4  19
HETATM   19  C   UNK A   0     -11.863  10.163  70.670  1.00  0.00    -0.342 C  
BRANCH  19  20
HETATM   20  N   UNK A   0     -11.950  10.414  69.222  1.00  0.00    -0.528 NA 
HETATM   21  H   UNK A   0     -12.509   9.818  68.612  1.00  0.00     0.000 HD 
BRANCH  20  22
HETATM   22  C   UNK A   0     -11.234  11.506  68.719  1.00  0.00    -0.249 A  
HETATM   23  C   UNK A   0     -10.846  13.911  68.773  1.00  0.00    -0.282 A  
HETATM   24  C   UNK A   0      -9.692  13.744  68.001  1.00  0.00    -0.232 A  
HETATM   25  C   UNK A   0     -10.147  11.378  67.845  1.00  0.00    -0.198 A  
HETATM   26  C   UNK A   0     -11.616  12.793  69.119  1.00  0.00    -0.373 A  
HETATM   27  C   UNK A   0      -9.375  12.482  67.493  1.00  0.00    -0.187 A  
BRANCH  24  28
HETATM   28  C   UNK A   0      -8.810  14.903  67.727  1.00  0.00    -0.173 C  
ATOM     29  H   GLU A   1     -10.108  16.183  68.764  1.00  0.00     0.000 HD 
ATOM     30  N   GLU A   1      -9.265  16.130  68.191  1.00  0.00    -0.191 N  
HETATM   31  O   UNK A   0      -7.767  14.767  67.100  1.00  0.00    -0.200 OA 
BRANCH  30  32
ATOM     32  CA  GLU A   1      -8.523  17.358  67.849  1.00  0.00    -0.228 C  
ATOM     33  C   GLU A   1      -9.217  18.572  68.495  1.00  0.00    -0.335 C  
ATOM     34  O   GLU A   1     -10.534  18.362  68.742  1.00  0.00    -0.270 OA 
ATOM     35  OXT GLU A   1      -8.697  19.671  68.632  1.00  0.00    -0.343 OA 
BRANCH  32  36
ATOM     36  CB  GLU A   1      -8.466  17.537  66.324  1.00  0.00    -0.247 C  
BRANCH  36  37
ATOM     37  CG  GLU A   1      -9.823  17.901  65.712  1.00  0.00     0.089 C  
ATOM     38  CD  GLU A   1     -10.472  16.735  65.012  1.00  0.00     0.077 C  
ATOM     39  OE2 GLU A   1      -9.990  15.618  64.913  1.00  0.00    -0.331 OA 
ATOM     40  OE1 GLU A   1     -11.681  17.058  64.499  1.00  0.00    -0.504 OA 
ENDBRANCH  36  37
ENDBRANCH  32  36
ENDBRANCH  30  32
ENDBRANCH  24  28
ENDBRANCH  20  22
ENDBRANCH  19  20
ENDBRANCH   4  19
TORSDOF 7
ENDMDL
MODEL      141
REMARK 921   NORMALIZED FREE ENERGY PREDICTED BY IDOCK:   -5.31 KCAL/MOL
REMARK 922        TOTAL FREE ENERGY PREDICTED BY IDOCK:   -8.76 KCAL/MOL
REMARK 923 INTER-LIGAND FREE ENERGY PREDICTED BY IDOCK:   -7.68 KCAL/MOL
REMARK 924 INTRA-LIGAND FREE ENERGY PREDICTED BY IDOCK:   -1.07 KCAL/MOL
REMARK 927      BINDING AFFINITY PREDICTED BY RF-SCORE:    0.00 PKD
ROOT
HETATM    1  C   UNK A   0     -10.503  16.968  65.341  1.00  0.00    -0.112 C  
HETATM    2  N   UNK A   0     -10.191  16.776  66.679  1.00  0.00    -0.301 N  
HETATM    3  O   UNK A   0     -11.266  16.287  64.662  1.00  0.00    -0.558 OA 
HETATM    4  C   UNK A   0     -10.796  15.645  67.475  1.00  0.00    -0.316 C  
HETATM    5  C   UNK A   0     -11.215  16.181  68.864  1.00  0.00    -0.351 C  
HETATM    6  C   UNK A   0      -7.567  19.221  68.822  1.00  0.00    -0.358 C  
HETATM    7  H   UNK A   0      -7.070  20.111  67.042  1.00  0.00     0.000 HD 
HETATM    8  N   UNK A   0     -10.056  16.808  69.477  1.00  0.00    -0.167 NA 
HETATM    9  H   UNK A   0      -9.868  16.655  70.467  1.00  0.00     0.000 HD 
HETATM   10  H2  UNK A   0      -6.066  20.647  69.004  1.00  0.00     0.000 HD 
HETATM   11  C   UNK A   0      -9.202  17.611  68.738  1.00  0.00    -0.215 C  
HETATM   12  O   UNK A   0      -8.072  18.462  65.479  1.00  0.00    -0.295 OA 
HETATM   13  C   UNK A   0      -9.272  17.599  67.379  1.00  0.00    -0.247 C  
HETATM   14  H1  UNK A   0      -6.663  19.899  70.506  1.00  0.00     0.000 HD 
HETATM   15  C   UNK A   0      -8.298  18.497  66.685  1.00  0.00    -0.272 C  
HETATM   16  N   UNK A   0      -8.335  18.399  69.453  1.00  0.00     0.276 NA 
HETATM   17  N   UNK A   0      -6.683  19.997  69.490  1.00  0.00    -0.308 NA 
HETATM   18  N   UNK A   0      -7.593  19.351  67.476  1.00  0.00    -0.246 N  
ENDROOT
BRANCH   4  19
HETATM   19  C   UNK A   0     -11.976  14.890  66.825  1.00  0.00    -0.090 C  
BRANCH  19  20
HETATM   20  N   UNK A   0     -11.541  13.636  66.187  1.00  0.00    -0.334 NA 
HETATM   21  H   UNK A   0     -11.572  13.517  65.174  1.00  0.00     0.000 HD 
BRANCH  20  22
HETATM   22  C   UNK A   0     -11.085  12.616  67.028  1.00  0.00    -0.281 A  
HETATM   23  C   UNK A   0     -11.516  11.203  68.967  1.00  0.00    -0.364 A  
HETATM   24  C   UNK A   0     -10.420  10.402  68.629  1.00  0.00    -0.216 A  
HETATM   25  C   UNK A   0      -9.923  11.875  66.782  1.00  0.00    -0.215 A  
HETATM   26  C   UNK A   0     -11.836  12.311  68.171  1.00  0.00    -0.372 A  
HETATM   27  C   UNK A   0      -9.593  10.772  67.566  1.00  0.00    -0.176 A  
BRANCH  24  28
HETATM   28  C   UNK A   0     -10.143   9.165  69.396  1.00  0.00    -0.197 C  
ATOM     29  H   GLU A   1     -11.746   9.562  70.689  1.00  0.00     0.000 HD 
ATOM     30  N   GLU A   1     -10.956   8.945  70.501  1.00  0.00    -0.235 N  
HETATM   31  O   UNK A   0      -9.229   8.417  69.076  1.00  0.00    -0.147 OA 
BRANCH  30  32
ATOM     32  CA  GLU A   1     -10.668   7.812  71.401  1.00  0.00    -0.222 C  
ATOM     33  C   GLU A   1     -11.962   7.396  72.127  1.00  0.00    -0.270 C  
ATOM     34  O   GLU A   1     -12.870   8.400  72.213  1.00  0.00    -0.342 OA 
ATOM     35  OXT GLU A   1     -12.111   6.332  72.712  1.00  0.00    -0.008 OA 
BRANCH  32  36
ATOM     36  CB  GLU A   1      -9.595   8.208  72.427  1.00  0.00    -0.335 C  
BRANCH  36  37
ATOM     37  CG  GLU A   1      -8.196   7.705  72.055  1.00  0.00    -0.122 C  
ATOM     38  CD  GLU A   1      -7.932   6.308  72.556  1.00  0.00    -0.103 C  
ATOM     39  OE2 GLU A   1      -8.717   5.633  73.201  1.00  0.00    -0.121 OA 
ATOM     40  OE1 GLU A   1      -6.706   5.863  72.198  1.00  0.00    -0.067 OA 
ENDBRANCH  36  37
ENDBRANCH  32  36
ENDBRANCH  30  32
ENDBRANCH  24  28
ENDBRANCH  20  22
ENDBRANCH  19  20
ENDBRANCH   4  19
TORSDOF 7
ENDMDL
MODEL      142
REMARK 921   NORMALIZED FREE ENERGY PREDICTED BY IDOCK:   -5.29 KCAL/MOL
REMARK 922        TOTAL FREE ENERGY PREDICTED BY IDOCK:   -8.72 KCAL/MOL
REMARK 923 INTER-LIGAND FREE ENERGY PREDICTED BY IDOCK:   -7.79 KCAL/MOL
REMARK 924 INTRA-LIGAND FREE ENERGY PREDICTED BY IDOCK:   -0.93 KCAL/MOL
REMARK 927      BINDING AFFINITY PREDICTED BY RF-SCORE:    0.00 PKD
ROOT
HETATM    1  C   UNK A   0     -10.369   9.456  67.968  1.00  0.00    -0.220 C  
HETATM    2  N   UNK A   0     -10.186   8.968  69.254  1.00  0.00    -0.199 N  
HETATM    3  O   UNK A   0      -9.529   9.494  67.073  1.00  0.00    -0.146 OA 
HETATM    4  C   UNK A   0      -8.859   8.405  69.702  1.00  0.00    -0.141 C  
HETATM    5  C   UNK A   0      -9.115   7.113  70.512  1.00  0.00    -0.155 C  
HETATM    6  C   UNK A   0     -13.186   8.917  72.161  1.00  0.00    -0.429 C  
HETATM    7  H   UNK A   0     -14.328  10.049  70.888  1.00  0.00     0.000 HD 
HETATM    8  N   UNK A   0     -10.040   7.427  71.588  1.00  0.00    -0.184 NA 
HETATM    9  H   UNK A   0      -9.880   7.037  72.517  1.00  0.00     0.000 HD 
HETATM   10  H2  UNK A   0     -15.011   9.487  72.976  1.00  0.00     0.000 HD 
HETATM   11  C   UNK A   0     -11.136   8.246  71.372  1.00  0.00    -0.251 C  
HETATM   12  O   UNK A   0     -12.569  10.728  69.272  1.00  0.00    -0.324 OA 
HETATM   13  C   UNK A   0     -11.209   8.991  70.235  1.00  0.00    -0.205 C  
HETATM   14  H1  UNK A   0     -13.991   8.398  73.949  1.00  0.00     0.000 HD 
HETATM   15  C   UNK A   0     -12.432   9.843  70.112  1.00  0.00     0.141 C  
HETATM   16  N   UNK A   0     -12.109   8.230  72.341  1.00  0.00    -0.429 NA 
HETATM   17  N   UNK A   0     -14.156   8.946  73.104  1.00  0.00    -1.225 NA 
HETATM   18  N   UNK A   0     -13.406   9.642  71.041  1.00  0.00    -0.565 N  
ENDROOT
BRANCH   4  19
HETATM   19  C   UNK A   0      -7.809   8.138  68.602  1.00  0.00    -0.114 C  
BRANCH  19  20
HETATM   20  N   UNK A   0      -6.590   8.941  68.798  1.00  0.00    -0.053 NA 
HETATM   21  H   UNK A   0      -5.709   8.510  69.076  1.00  0.00     0.000 HD 
BRANCH  20  22
HETATM   22  C   UNK A   0      -6.694  10.320  68.586  1.00  0.00    -0.053 A  
HETATM   23  C   UNK A   0      -6.989  12.139  66.991  1.00  0.00    -0.068 A  
HETATM   24  C   UNK A   0      -7.187  13.034  68.046  1.00  0.00    -0.119 A  
HETATM   25  C   UNK A   0      -6.771  11.256  69.625  1.00  0.00    -0.122 A  
HETATM   26  C   UNK A   0      -6.733  10.789  67.267  1.00  0.00    -0.080 A  
HETATM   27  C   UNK A   0      -7.024  12.600  69.364  1.00  0.00     0.108 A  
BRANCH  24  28
HETATM   28  C   UNK A   0      -7.571  14.438  67.764  1.00  0.00    -0.164 C  
ATOM     29  H   GLU A   1      -8.897  14.441  69.389  1.00  0.00     0.000 HD 
ATOM     30  N   GLU A   1      -8.553  14.972  68.589  1.00  0.00    -0.166 N  
HETATM   31  O   UNK A   0      -7.065  15.055  66.836  1.00  0.00    -0.115 OA 
BRANCH  30  32
ATOM     32  CA  GLU A   1      -9.095  16.313  68.300  1.00  0.00    -0.197 C  
ATOM     33  C   GLU A   1      -8.037  17.378  68.646  1.00  0.00    -0.264 C  
ATOM     34  O   GLU A   1      -7.141  16.955  69.572  1.00  0.00    -0.192 OA 
ATOM     35  OXT GLU A   1      -8.075  18.538  68.260  1.00  0.00    -0.284 OA 
BRANCH  32  36
ATOM     36  CB  GLU A   1     -10.372  16.558  69.119  1.00  0.00    -0.316 C  
BRANCH  36  37
ATOM     37  CG  GLU A   1     -10.560  15.545  70.253  1.00  0.00    -0.324 C  
ATOM     38  CD  GLU A   1     -12.010  15.342  70.612  1.00  0.00    -0.356 C  
ATOM     39  OE2 GLU A   1     -12.951  15.917  70.088  1.00  0.00    -0.239 OA 
ATOM     40  OE1 GLU A   1     -12.168  14.426  71.594  1.00  0.00    -0.344 OA 
ENDBRANCH  36  37
ENDBRANCH  32  36
ENDBRANCH  30  32
ENDBRANCH  24  28
ENDBRANCH  20  22
ENDBRANCH  19  20
ENDBRANCH   4  19
TORSDOF 7
ENDMDL
MODEL      143
REMARK 921   NORMALIZED FREE ENERGY PREDICTED BY IDOCK:   -5.29 KCAL/MOL
REMARK 922        TOTAL FREE ENERGY PREDICTED BY IDOCK:   -8.72 KCAL/MOL
REMARK 923 INTER-LIGAND FREE ENERGY PREDICTED BY IDOCK:   -7.91 KCAL/MOL
REMARK 924 INTRA-LIGAND FREE ENERGY PREDICTED BY IDOCK:   -0.81 KCAL/MOL
REMARK 927      BINDING AFFINITY PREDICTED BY RF-SCORE:    0.00 PKD
ROOT
HETATM    1  C   UNK A   0      -8.294  13.962  67.092  1.00  0.00    -0.154 C  
HETATM    2  N   UNK A   0      -9.438  14.317  66.390  1.00  0.00    -0.349 N  
HETATM    3  O   UNK A   0      -7.935  12.824  67.379  1.00  0.00    -0.165 OA 
HETATM    4  C   UNK A   0     -10.404  13.275  65.880  1.00  0.00    -0.292 C  
HETATM    5  C   UNK A   0     -10.826  13.649  64.440  1.00  0.00    -0.361 C  
HETATM    6  C   UNK A   0     -10.484  18.264  65.505  1.00  0.00     0.070 C  
HETATM    7  H   UNK A   0      -8.962  18.860  66.744  1.00  0.00     0.000 HD 
HETATM    8  N   UNK A   0     -11.342  15.007  64.456  1.00  0.00    -0.627 NA 
HETATM    9  H   UNK A   0     -12.177  15.232  63.915  1.00  0.00     0.000 HD 
HETATM   10  H2  UNK A   0     -10.368  20.326  65.736  1.00  0.00     0.000 HD 
HETATM   11  C   UNK A   0     -10.720  16.001  65.194  1.00  0.00    -0.409 C  
HETATM   12  O   UNK A   0      -8.503  16.700  67.880  1.00  0.00    -0.188 OA 
HETATM   13  C   UNK A   0      -9.791  15.665  66.130  1.00  0.00    -0.314 C  
HETATM   14  H1  UNK A   0     -11.575  19.703  64.585  1.00  0.00     0.000 HD 
HETATM   15  C   UNK A   0      -9.191  16.818  66.870  1.00  0.00    -0.232 C  
HETATM   16  N   UNK A   0     -11.082  17.293  64.903  1.00  0.00    -0.817 NA 
HETATM   17  N   UNK A   0     -10.830  19.549  65.264  1.00  0.00    -0.394 NA 
HETATM   18  N   UNK A   0      -9.495  18.060  66.405  1.00  0.00    -0.291 N  
ENDROOT
BRANCH   4  19
HETATM   19  C   UNK A   0      -9.933  11.806  65.927  1.00  0.00    -0.236 C  
BRANCH  19  20
HETATM   20  N   UNK A   0     -10.892  10.942  66.635  1.00  0.00    -0.233 NA 
HETATM   21  H   UNK A   0     -11.898  11.092  66.562  1.00  0.00     0.000 HD 
BRANCH  20  22
HETATM   22  C   UNK A   0     -10.364   9.906  67.414  1.00  0.00    -0.246 A  
HETATM   23  C   UNK A   0      -9.724   7.558  67.552  1.00  0.00    -0.190 A  
HETATM   24  C   UNK A   0      -9.074   7.806  68.766  1.00  0.00    -0.140 A  
HETATM   25  C   UNK A   0      -9.815  10.102  68.688  1.00  0.00    -0.170 A  
HETATM   26  C   UNK A   0     -10.374   8.608  66.889  1.00  0.00    -0.355 A  
HETATM   27  C   UNK A   0      -9.168   9.067  69.358  1.00  0.00    -0.150 A  
BRANCH  24  28
HETATM   28  C   UNK A   0      -8.288   6.731  69.417  1.00  0.00    -0.132 C  
ATOM     29  H   GLU A   1      -9.934   6.193  70.600  1.00  0.00     0.000 HD 
ATOM     30  N   GLU A   1      -8.945   6.024  70.416  1.00  0.00    -0.147 N  
HETATM   31  O   UNK A   0      -7.125   6.520  69.099  1.00  0.00    -0.082 OA 
BRANCH  30  32
ATOM     32  CA  GLU A   1      -8.201   5.029  71.212  1.00  0.00    -0.116 C  
ATOM     33  C   GLU A   1      -9.196   4.175  72.021  1.00  0.00    -0.124 C  
ATOM     34  O   GLU A   1     -10.373   4.807  72.253  1.00  0.00    -0.195 OA 
ATOM     35  OXT GLU A   1      -8.918   3.105  72.544  1.00  0.00    -0.085 OA 
BRANCH  32  36
ATOM     36  CB  GLU A   1      -7.220   5.732  72.162  1.00  0.00    -0.089 C  
BRANCH  36  37
ATOM     37  CG  GLU A   1      -7.920   6.622  73.194  1.00  0.00    -0.106 C  
ATOM     38  CD  GLU A   1      -7.360   8.021  73.226  1.00  0.00    -0.128 C  
ATOM     39  OE2 GLU A   1      -6.442   8.426  72.530  1.00  0.00    -0.079 OA 
ATOM     40  OE1 GLU A   1      -8.002   8.807  74.120  1.00  0.00    -0.387 OA 
ENDBRANCH  36  37
ENDBRANCH  32  36
ENDBRANCH  30  32
ENDBRANCH  24  28
ENDBRANCH  20  22
ENDBRANCH  19  20
ENDBRANCH   4  19
TORSDOF 7
ENDMDL
MODEL      144
REMARK 921   NORMALIZED FREE ENERGY PREDICTED BY IDOCK:   -5.26 KCAL/MOL
REMARK 922        TOTAL FREE ENERGY PREDICTED BY IDOCK:   -8.68 KCAL/MOL
REMARK 923 INTER-LIGAND FREE ENERGY PREDICTED BY IDOCK:   -7.44 KCAL/MOL
REMARK 924 INTRA-LIGAND FREE ENERGY PREDICTED BY IDOCK:   -1.24 KCAL/MOL
REMARK 927      BINDING AFFINITY PREDICTED BY RF-SCORE:    0.00 PKD
ROOT
HETATM    1  C   UNK A   0     -10.393   7.622  67.899  1.00  0.00    -0.212 C  
HETATM    2  N   UNK A   0      -9.118   7.130  68.141  1.00  0.00    -0.134 N  
HETATM    3  O   UNK A   0     -10.779   8.181  66.876  1.00  0.00    -0.309 OA 
HETATM    4  C   UNK A   0      -8.021   7.240  67.111  1.00  0.00    -0.110 C  
HETATM    5  C   UNK A   0      -7.253   5.899  67.055  1.00  0.00    -0.075 C  
HETATM    6  C   UNK A   0      -8.000   5.244  71.698  1.00  0.00    -0.115 C  
HETATM    7  H   UNK A   0      -9.808   5.818  72.477  1.00  0.00     0.000 HD 
HETATM    8  N   UNK A   0      -6.800   5.579  68.397  1.00  0.00    -0.058 NA 
HETATM    9  H   UNK A   0      -5.861   5.205  68.534  1.00  0.00     0.000 HD 
HETATM   10  H2  UNK A   0      -8.234   4.736  73.699  1.00  0.00     0.000 HD 
HETATM   11  C   UNK A   0      -7.622   5.773  69.496  1.00  0.00    -0.087 C  
HETATM   12  O   UNK A   0     -10.479   7.472  70.751  1.00  0.00    -0.210 OA 
HETATM   13  C   UNK A   0      -8.751   6.523  69.369  1.00  0.00    -0.134 C  
HETATM   14  H1  UNK A   0      -6.752   4.177  72.887  1.00  0.00     0.000 HD 
HETATM   15  C   UNK A   0      -9.557   6.671  70.620  1.00  0.00    -0.169 C  
HETATM   16  N   UNK A   0      -7.237   5.160  70.662  1.00  0.00    -0.065 NA 
HETATM   17  N   UNK A   0      -7.643   4.673  72.871  1.00  0.00    -0.085 NA 
HETATM   18  N   UNK A   0      -9.181   5.902  71.677  1.00  0.00    -0.146 N  
ENDROOT
BRANCH   4  19
HETATM   19  C   UNK A   0      -8.444   7.665  65.687  1.00  0.00    -0.142 C  
BRANCH  19  20
HETATM   20  N   UNK A   0      -7.853   8.957  65.301  1.00  0.00    -0.100 NA 
HETATM   21  H   UNK A   0      -6.897   9.022  64.951  1.00  0.00     0.000 HD 
BRANCH  20  22
HETATM   22  C   UNK A   0      -8.660  10.093  65.433  1.00  0.00    -0.155 A  
HETATM   23  C   UNK A   0      -9.152  12.133  66.671  1.00  0.00    -0.206 A  
HETATM   24  C   UNK A   0     -10.021  12.543  65.655  1.00  0.00    -0.259 A  
HETATM   25  C   UNK A   0      -9.628  10.464  64.490  1.00  0.00    -0.369 A  
HETATM   26  C   UNK A   0      -8.485  10.906  66.559  1.00  0.00    -0.159 A  
HETATM   27  C   UNK A   0     -10.299  11.681  64.591  1.00  0.00    -0.341 A  
BRANCH  24  28
HETATM   28  C   UNK A   0     -10.642  13.887  65.709  1.00  0.00    -0.297 C  
ATOM     29  H   GLU A   1      -9.569  14.354  67.449  1.00  0.00     0.000 HD 
ATOM     30  N   GLU A   1     -10.287  14.672  66.798  1.00  0.00    -0.265 N  
HETATM   31  O   UNK A   0     -11.440  14.247  64.854  1.00  0.00    -0.344 OA 
BRANCH  30  32
ATOM     32  CA  GLU A   1     -10.956  15.970  67.008  1.00  0.00    -0.154 C  
ATOM     33  C   GLU A   1     -10.051  17.102  66.485  1.00  0.00    -0.310 C  
ATOM     34  O   GLU A   1      -8.738  16.765  66.463  1.00  0.00    -0.230 OA 
ATOM     35  OXT GLU A   1     -10.435  18.242  66.261  1.00  0.00    -0.399 OA 
BRANCH  32  36
ATOM     36  CB  GLU A   1     -11.249  16.182  68.502  1.00  0.00    -0.365 C  
BRANCH  36  37
ATOM     37  CG  GLU A   1     -11.243  14.876  69.304  1.00  0.00    -0.300 C  
ATOM     38  CD  GLU A   1     -12.382  14.797  70.288  1.00  0.00    -0.345 C  
ATOM     39  OE2 GLU A   1     -13.223  15.664  70.460  1.00  0.00    -0.434 OA 
ATOM     40  OE1 GLU A   1     -12.384  13.629  70.971  1.00  0.00    -0.356 OA 
ENDBRANCH  36  37
ENDBRANCH  32  36
ENDBRANCH  30  32
ENDBRANCH  24  28
ENDBRANCH  20  22
ENDBRANCH  19  20
ENDBRANCH   4  19
TORSDOF 7
ENDMDL
MODEL      145
REMARK 921   NORMALIZED FREE ENERGY PREDICTED BY IDOCK:   -5.24 KCAL/MOL
REMARK 922        TOTAL FREE ENERGY PREDICTED BY IDOCK:   -8.66 KCAL/MOL
REMARK 923 INTER-LIGAND FREE ENERGY PREDICTED BY IDOCK:   -7.53 KCAL/MOL
REMARK 924 INTRA-LIGAND FREE ENERGY PREDICTED BY IDOCK:   -1.13 KCAL/MOL
REMARK 927      BINDING AFFINITY PREDICTED BY RF-SCORE:    0.00 PKD
ROOT
HETATM    1  C   UNK A   0      -8.402   7.896  70.302  1.00  0.00    -0.126 C  
HETATM    2  N   UNK A   0      -8.338   7.986  68.919  1.00  0.00    -0.125 N  
HETATM    3  O   UNK A   0      -7.818   8.612  71.110  1.00  0.00    -0.094 OA 
HETATM    4  C   UNK A   0      -7.496   9.036  68.235  1.00  0.00    -0.083 C  
HETATM    5  C   UNK A   0      -8.304   9.638  67.063  1.00  0.00    -0.117 C  
HETATM    6  C   UNK A   0     -10.420   5.450  66.332  1.00  0.00    -0.267 C  
HETATM    7  H   UNK A   0     -10.914   4.317  67.968  1.00  0.00     0.000 HD 
HETATM    8  N   UNK A   0      -8.739   8.550  66.205  1.00  0.00    -0.142 NA 
HETATM    9  H   UNK A   0      -8.691   8.659  65.192  1.00  0.00     0.000 HD 
HETATM   10  H2  UNK A   0     -11.488   3.733  65.854  1.00  0.00     0.000 HD 
HETATM   11  C   UNK A   0      -9.218   7.364  66.739  1.00  0.00    -0.156 C  
HETATM   12  O   UNK A   0      -9.323   5.280  69.614  1.00  0.00    -0.116 OA 
HETATM   13  C   UNK A   0      -9.028   7.094  68.059  1.00  0.00    -0.127 C  
HETATM   14  H1  UNK A   0     -11.114   4.854  64.522  1.00  0.00     0.000 HD 
HETATM   15  C   UNK A   0      -9.579   5.784  68.524  1.00  0.00    -0.126 C  
HETATM   16  N   UNK A   0      -9.888   6.533  65.875  1.00  0.00    -0.338 NA 
HETATM   17  N   UNK A   0     -11.067   4.595  65.508  1.00  0.00    -0.942 NA 
HETATM   18  N   UNK A   0     -10.359   5.107  67.638  1.00  0.00    -0.146 N  
ENDROOT
BRANCH   4  19
HETATM   19  C   UNK A   0      -6.937  10.167  69.125  1.00  0.00    -0.062 C  
BRANCH  19  20
HETATM   20  N   UNK A   0      -7.862  11.309  69.211  1.00  0.00    -0.359 NA 
HETATM   21  H   UNK A   0      -8.766  11.227  69.677  1.00  0.00     0.000 HD 
BRANCH  20  22
HETATM   22  C   UNK A   0      -7.449  12.511  68.625  1.00  0.00    -0.090 A  
HETATM   23  C   UNK A   0      -8.086  14.684  67.724  1.00  0.00    -0.160 A  
HETATM   24  C   UNK A   0      -6.741  15.070  67.700  1.00  0.00    -0.201 A  
HETATM   25  C   UNK A   0      -6.105  12.873  68.475  1.00  0.00    -0.071 A  
HETATM   26  C   UNK A   0      -8.431  13.404  68.176  1.00  0.00    -0.172 A  
HETATM   27  C   UNK A   0      -5.749  14.143  68.025  1.00  0.00    -0.131 A  
BRANCH  24  28
HETATM   28  C   UNK A   0      -6.376  16.458  67.332  1.00  0.00    -0.171 C  
ATOM     29  H   GLU A   1      -7.554  17.220  68.891  1.00  0.00     0.000 HD 
ATOM     30  N   GLU A   1      -6.979  17.459  68.083  1.00  0.00    -0.185 N  
HETATM   31  O   UNK A   0      -5.615  16.684  66.401  1.00  0.00    -0.313 OA 
BRANCH  30  32
ATOM     32  CA  GLU A   1      -6.781  18.871  67.705  1.00  0.00    -0.208 C  
ATOM     33  C   GLU A   1      -6.018  19.599  68.827  1.00  0.00    -0.233 C  
ATOM     34  O   GLU A   1      -6.166  19.010  70.040  1.00  0.00    -0.237 OA 
ATOM     35  OXT GLU A   1      -5.463  20.682  68.693  1.00  0.00    -0.260 OA 
BRANCH  32  36
ATOM     36  CB  GLU A   1      -8.137  19.553  67.465  1.00  0.00    -0.325 C  
BRANCH  36  37
ATOM     37  CG  GLU A   1      -9.308  18.794  68.099  1.00  0.00    -0.352 C  
ATOM     38  CD  GLU A   1     -10.095  17.998  67.089  1.00  0.00    -0.346 C  
ATOM     39  OE2 GLU A   1      -9.860  17.954  65.892  1.00  0.00    -0.529 OA 
ATOM     40  OE1 GLU A   1     -11.109  17.310  67.661  1.00  0.00    -0.219 OA 
ENDBRANCH  36  37
ENDBRANCH  32  36
ENDBRANCH  30  32
ENDBRANCH  24  28
ENDBRANCH  20  22
ENDBRANCH  19  20
ENDBRANCH   4  19
TORSDOF 7
ENDMDL
MODEL      146
REMARK 921   NORMALIZED FREE ENERGY PREDICTED BY IDOCK:   -5.21 KCAL/MOL
REMARK 922        TOTAL FREE ENERGY PREDICTED BY IDOCK:   -8.61 KCAL/MOL
REMARK 923 INTER-LIGAND FREE ENERGY PREDICTED BY IDOCK:   -7.94 KCAL/MOL
REMARK 924 INTRA-LIGAND FREE ENERGY PREDICTED BY IDOCK:   -0.67 KCAL/MOL
REMARK 927      BINDING AFFINITY PREDICTED BY RF-SCORE:    0.00 PKD
ROOT
HETATM    1  C   UNK A   0     -10.868  11.729  64.752  1.00  0.00    -0.302 C  
HETATM    2  N   UNK A   0     -10.350  11.896  66.028  1.00  0.00    -0.225 N  
HETATM    3  O   UNK A   0     -10.422  11.000  63.870  1.00  0.00    -0.357 OA 
HETATM    4  C   UNK A   0      -9.116  11.154  66.481  1.00  0.00    -0.182 C  
HETATM    5  C   UNK A   0      -9.349  10.631  67.918  1.00  0.00    -0.148 C  
HETATM    6  C   UNK A   0     -12.028  14.427  68.898  1.00  0.00    -0.302 C  
HETATM    7  H   UNK A   0     -13.263  15.145  67.426  1.00  0.00     0.000 HD 
HETATM    8  N   UNK A   0      -9.727  11.756  68.755  1.00  0.00    -0.384 NA 
HETATM    9  H   UNK A   0      -9.336  11.837  69.694  1.00  0.00     0.000 HD 
HETATM   10  H2  UNK A   0     -13.255  15.978  69.535  1.00  0.00     0.000 HD 
HETATM   11  C   UNK A   0     -10.610  12.722  68.300  1.00  0.00    -0.238 C  
HETATM   12  O   UNK A   0     -12.100  14.213  65.440  1.00  0.00    -0.375 OA 
HETATM   13  C   UNK A   0     -10.917  12.786  66.976  1.00  0.00    -0.263 C  
HETATM   14  H1  UNK A   0     -12.230  15.196  70.763  1.00  0.00     0.000 HD 
HETATM   15  C   UNK A   0     -11.874  13.871  66.597  1.00  0.00    -0.420 C  
HETATM   16  N   UNK A   0     -11.145  13.556  69.251  1.00  0.00    -0.393 NA 
HETATM   17  N   UNK A   0     -12.559  15.282  69.801  1.00  0.00    -0.611 NA 
HETATM   18  N   UNK A   0     -12.466  14.540  67.623  1.00  0.00    -0.514 N  
ENDROOT
BRANCH   4  19
HETATM   19  C   UNK A   0      -8.623  10.005  65.576  1.00  0.00    -0.151 C  
BRANCH  19  20
HETATM   20  N   UNK A   0      -9.602   8.907  65.497  1.00  0.00    -0.459 NA 
HETATM   21  H   UNK A   0     -10.300   8.870  64.754  1.00  0.00     0.000 HD 
BRANCH  20  22
HETATM   22  C   UNK A   0      -9.533   7.919  66.485  1.00  0.00    -0.214 A  
HETATM   23  C   UNK A   0     -10.739   6.410  67.972  1.00  0.00    -0.362 A  
HETATM   24  C   UNK A   0      -9.546   5.745  68.267  1.00  0.00    -0.139 A  
HETATM   25  C   UNK A   0      -8.336   7.317  66.891  1.00  0.00    -0.118 A  
HETATM   26  C   UNK A   0     -10.725   7.500  67.090  1.00  0.00    -0.379 A  
HETATM   27  C   UNK A   0      -8.337   6.234  67.768  1.00  0.00    -0.117 A  
BRANCH  24  28
HETATM   28  C   UNK A   0      -9.567   4.523  69.106  1.00  0.00    -0.180 C  
ATOM     29  H   GLU A   1      -9.537   5.679  70.856  1.00  0.00     0.000 HD 
ATOM     30  N   GLU A   1      -9.502   4.732  70.478  1.00  0.00    -0.157 N  
HETATM   31  O   UNK A   0      -9.607   3.410  68.598  1.00  0.00    -0.160 OA 
BRANCH  30  32
ATOM     32  CA  GLU A   1      -9.383   3.575  71.385  1.00  0.00    -0.143 C  
ATOM     33  C   GLU A   1     -10.380   3.732  72.548  1.00  0.00    -0.132 C  
ATOM     34  O   GLU A   1     -10.721   5.023  72.785  1.00  0.00    -0.212 OA 
ATOM     35  OXT GLU A   1     -10.717   2.823  73.295  1.00  0.00    -0.154 OA 
BRANCH  32  36
ATOM     36  CB  GLU A   1      -7.951   3.474  71.932  1.00  0.00    -0.063 C  
BRANCH  36  37
ATOM     37  CG  GLU A   1      -7.112   2.407  71.221  1.00  0.00    -0.032 C  
ATOM     38  CD  GLU A   1      -6.140   2.999  70.233  1.00  0.00    -0.023 C  
ATOM     39  OE2 GLU A   1      -6.021   4.190  69.992  1.00  0.00    -0.017 OA 
ATOM     40  OE1 GLU A   1      -5.385   2.052  69.630  1.00  0.00    -0.011 OA 
ENDBRANCH  36  37
ENDBRANCH  32  36
ENDBRANCH  30  32
ENDBRANCH  24  28
ENDBRANCH  20  22
ENDBRANCH  19  20
ENDBRANCH   4  19
TORSDOF 7
ENDMDL
MODEL      147
REMARK 921   NORMALIZED FREE ENERGY PREDICTED BY IDOCK:   -5.20 KCAL/MOL
REMARK 922        TOTAL FREE ENERGY PREDICTED BY IDOCK:   -8.60 KCAL/MOL
REMARK 923 INTER-LIGAND FREE ENERGY PREDICTED BY IDOCK:   -7.58 KCAL/MOL
REMARK 924 INTRA-LIGAND FREE ENERGY PREDICTED BY IDOCK:   -1.02 KCAL/MOL
REMARK 927      BINDING AFFINITY PREDICTED BY RF-SCORE:    0.00 PKD
ROOT
HETATM    1  C   UNK A   0      -8.412   4.708  66.867  1.00  0.00    -0.105 C  
HETATM    2  N   UNK A   0      -9.344   4.864  67.883  1.00  0.00    -0.123 N  
HETATM    3  O   UNK A   0      -8.386   5.312  65.798  1.00  0.00    -0.115 OA 
HETATM    4  C   UNK A   0     -10.481   5.850  67.766  1.00  0.00    -0.238 C  
HETATM    5  C   UNK A   0     -10.633   6.598  69.110  1.00  0.00    -0.244 C  
HETATM    6  C   UNK A   0      -9.252   2.711  71.463  1.00  0.00    -0.114 C  
HETATM    7  H   UNK A   0      -7.774   1.554  70.636  1.00  0.00     0.000 HD 
HETATM    8  N   UNK A   0     -10.787   5.610  70.164  1.00  0.00    -0.313 NA 
HETATM    9  H   UNK A   0     -11.473   5.767  70.903  1.00  0.00     0.000 HD 
HETATM   10  H2  UNK A   0      -8.643   1.149  72.690  1.00  0.00     0.000 HD 
HETATM   11  C   UNK A   0     -10.018   4.458  70.184  1.00  0.00    -0.179 C  
HETATM   12  O   UNK A   0      -8.005   2.249  68.263  1.00  0.00    -0.057 OA 
HETATM   13  C   UNK A   0      -9.313   4.099  69.077  1.00  0.00    -0.165 C  
HETATM   14  H1  UNK A   0      -9.835   2.291  73.359  1.00  0.00     0.000 HD 
HETATM   15  C   UNK A   0      -8.525   2.834  69.208  1.00  0.00    -0.063 C  
HETATM   16  N   UNK A   0     -10.007   3.752  71.361  1.00  0.00    -0.151 NA 
HETATM   17  N   UNK A   0      -9.232   1.976  72.598  1.00  0.00    -0.076 NA 
HETATM   18  N   UNK A   0      -8.452   2.295  70.455  1.00  0.00    -0.049 N  
ENDROOT
BRANCH   4  19
HETATM   19  C   UNK A   0     -10.405   6.865  66.604  1.00  0.00    -0.144 C  
BRANCH  19  20
HETATM   20  N   UNK A   0      -9.652   8.073  66.978  1.00  0.00    -0.180 NA 
HETATM   21  H   UNK A   0      -8.742   8.013  67.434  1.00  0.00     0.000 HD 
BRANCH  20  22
HETATM   22  C   UNK A   0     -10.238   9.308  66.679  1.00  0.00    -0.253 A  
HETATM   23  C   UNK A   0     -11.516  11.224  67.477  1.00  0.00    -0.324 A  
HETATM   24  C   UNK A   0     -11.225  11.913  66.295  1.00  0.00    -0.392 A  
HETATM   25  C   UNK A   0     -10.065   9.969  65.456  1.00  0.00    -0.325 A  
HETATM   26  C   UNK A   0     -11.030   9.922  67.658  1.00  0.00    -0.263 A  
HETATM   27  C   UNK A   0     -10.544  11.262  65.264  1.00  0.00    -0.323 A  
BRANCH  24  28
HETATM   28  C   UNK A   0     -11.636  13.329  66.143  1.00  0.00    -0.348 C  
ATOM     29  H   GLU A   1      -9.800  13.984  66.916  1.00  0.00     0.000 HD 
ATOM     30  N   GLU A   1     -10.724  14.274  66.595  1.00  0.00    -0.288 N  
HETATM   31  O   UNK A   0     -12.729  13.620  65.676  1.00  0.00    -0.495 OA 
BRANCH  30  32
ATOM     32  CA  GLU A   1     -11.101  15.700  66.609  1.00  0.00    -0.147 C  
ATOM     33  C   GLU A   1     -10.764  16.330  65.244  1.00  0.00    -0.332 C  
ATOM     34  O   GLU A   1      -9.782  15.671  64.582  1.00  0.00     0.141 OA 
ATOM     35  OXT GLU A   1     -11.208  17.401  64.852  1.00  0.00    -0.744 OA 
BRANCH  32  36
ATOM     36  CB  GLU A   1     -10.349  16.438  67.727  1.00  0.00    -0.287 C  
BRANCH  36  37
ATOM     37  CG  GLU A   1      -9.508  15.502  68.602  1.00  0.00    -0.204 C  
ATOM     38  CD  GLU A   1      -8.173  16.098  68.968  1.00  0.00    -0.244 C  
ATOM     39  OE2 GLU A   1      -7.771  17.194  68.610  1.00  0.00    -0.240 OA 
ATOM     40  OE1 GLU A   1      -7.449  15.277  69.763  1.00  0.00    -0.201 OA 
ENDBRANCH  36  37
ENDBRANCH  32  36
ENDBRANCH  30  32
ENDBRANCH  24  28
ENDBRANCH  20  22
ENDBRANCH  19  20
ENDBRANCH   4  19
TORSDOF 7
ENDMDL
MODEL      148
REMARK 921   NORMALIZED FREE ENERGY PREDICTED BY IDOCK:   -5.19 KCAL/MOL
REMARK 922        TOTAL FREE ENERGY PREDICTED BY IDOCK:   -8.58 KCAL/MOL
REMARK 923 INTER-LIGAND FREE ENERGY PREDICTED BY IDOCK:   -8.64 KCAL/MOL
REMARK 924 INTRA-LIGAND FREE ENERGY PREDICTED BY IDOCK:    0.07 KCAL/MOL
REMARK 927      BINDING AFFINITY PREDICTED BY RF-SCORE:    0.00 PKD
ROOT
HETATM    1  C   UNK A   0     -10.428  17.320  65.797  1.00  0.00    -0.229 C  
HETATM    2  N   UNK A   0     -10.935  16.207  66.453  1.00  0.00    -0.123 N  
HETATM    3  O   UNK A   0      -9.918  18.308  66.319  1.00  0.00    -0.355 OA 
HETATM    4  C   UNK A   0     -10.905  16.097  67.958  1.00  0.00    -0.333 C  
HETATM    5  C   UNK A   0     -10.468  14.665  68.344  1.00  0.00    -0.243 C  
HETATM    6  C   UNK A   0     -12.627  12.932  64.487  1.00  0.00    -0.350 C  
HETATM    7  H   UNK A   0     -12.542  14.028  62.756  1.00  0.00     0.000 HD 
HETATM    8  N   UNK A   0     -11.354  13.725  67.680  1.00  0.00    -0.290 NA 
HETATM    9  H   UNK A   0     -11.694  12.910  68.190  1.00  0.00     0.000 HD 
HETATM   10  H2  UNK A   0     -13.469  11.961  62.853  1.00  0.00     0.000 HD 
HETATM   11  C   UNK A   0     -11.744  13.916  66.364  1.00  0.00    -0.383 C  
HETATM   12  O   UNK A   0     -12.091  16.269  63.726  1.00  0.00    -0.959 OA 
HETATM   13  C   UNK A   0     -11.535  15.121  65.767  1.00  0.00    -0.172 C  
HETATM   14  H1  UNK A   0     -13.378  11.051  64.381  1.00  0.00     0.000 HD 
HETATM   15  C   UNK A   0     -12.003  15.216  64.350  1.00  0.00    -0.310 C  
HETATM   16  N   UNK A   0     -12.311  12.836  65.734  1.00  0.00    -0.594 NA 
HETATM   17  N   UNK A   0     -13.210  11.898  63.838  1.00  0.00    -0.576 NA 
HETATM   18  N   UNK A   0     -12.405  14.054  63.766  1.00  0.00    -0.976 N  
ENDROOT
BRANCH   4  19
HETATM   19  C   UNK A   0     -10.046  17.133  68.715  1.00  0.00    -0.329 C  
BRANCH  19  20
HETATM   20  N   UNK A   0      -8.655  17.151  68.233  1.00  0.00    -0.233 NA 
HETATM   21  H   UNK A   0      -8.251  17.985  67.806  1.00  0.00     0.000 HD 
BRANCH  20  22
HETATM   22  C   UNK A   0      -7.910  15.977  68.387  1.00  0.00    -0.149 A  
HETATM   23  C   UNK A   0      -6.906  14.364  69.914  1.00  0.00    -0.060 A  
HETATM   24  C   UNK A   0      -6.665  13.498  68.842  1.00  0.00    -0.109 A  
HETATM   25  C   UNK A   0      -7.546  15.149  67.317  1.00  0.00    -0.236 A  
HETATM   26  C   UNK A   0      -7.518  15.602  69.678  1.00  0.00    -0.134 A  
HETATM   27  C   UNK A   0      -6.936  13.916  67.538  1.00  0.00    -0.162 A  
BRANCH  24  28
HETATM   28  C   UNK A   0      -6.124  12.141  69.094  1.00  0.00    -0.082 C  
ATOM     29  H   GLU A   1      -7.391  11.325  67.637  1.00  0.00     0.000 HD 
ATOM     30  N   GLU A   1      -6.707  11.114  68.363  1.00  0.00    -0.058 N  
HETATM   31  O   UNK A   0      -5.243  11.958  69.924  1.00  0.00    -0.070 OA 
BRANCH  30  32
ATOM     32  CA  GLU A   1      -6.328   9.716  68.643  1.00  0.00    -0.047 C  
ATOM     33  C   GLU A   1      -5.812   9.057  67.350  1.00  0.00    -0.046 C  
ATOM     34  O   GLU A   1      -6.290   9.647  66.226  1.00  0.00    -0.066 OA 
ATOM     35  OXT GLU A   1      -5.171   8.016  67.316  1.00  0.00    -0.030 OA 
BRANCH  32  36
ATOM     36  CB  GLU A   1      -7.537   8.936  69.183  1.00  0.00    -0.080 C  
BRANCH  36  37
ATOM     37  CG  GLU A   1      -8.876   9.472  68.664  1.00  0.00    -0.132 C  
ATOM     38  CD  GLU A   1      -9.888   9.660  69.765  1.00  0.00    -0.229 C  
ATOM     39  OE2 GLU A   1      -9.699   9.409  70.944  1.00  0.00    -0.272 OA 
ATOM     40  OE1 GLU A   1     -11.057  10.160  69.302  1.00  0.00    -0.225 OA 
ENDBRANCH  36  37
ENDBRANCH  32  36
ENDBRANCH  30  32
ENDBRANCH  24  28
ENDBRANCH  20  22
ENDBRANCH  19  20
ENDBRANCH   4  19
TORSDOF 7
ENDMDL
MODEL      149
REMARK 921   NORMALIZED FREE ENERGY PREDICTED BY IDOCK:   -5.14 KCAL/MOL
REMARK 922        TOTAL FREE ENERGY PREDICTED BY IDOCK:   -8.51 KCAL/MOL
REMARK 923 INTER-LIGAND FREE ENERGY PREDICTED BY IDOCK:   -7.58 KCAL/MOL
REMARK 924 INTRA-LIGAND FREE ENERGY PREDICTED BY IDOCK:   -0.93 KCAL/MOL
REMARK 927      BINDING AFFINITY PREDICTED BY RF-SCORE:    0.00 PKD
ROOT
HETATM    1  C   UNK A   0      -8.462  17.868  66.493  1.00  0.00    -0.258 C  
HETATM    2  N   UNK A   0      -7.641  17.499  67.550  1.00  0.00    -0.194 N  
HETATM    3  O   UNK A   0      -9.040  17.113  65.717  1.00  0.00    -0.525 OA 
HETATM    4  C   UNK A   0      -7.364  16.049  67.863  1.00  0.00    -0.131 C  
HETATM    5  C   UNK A   0      -7.445  15.846  69.394  1.00  0.00    -0.213 C  
HETATM    6  C   UNK A   0      -5.769  20.233  70.094  1.00  0.00    -0.333 C  
HETATM    7  H   UNK A   0      -6.383  21.718  68.820  1.00  0.00     0.000 HD 
HETATM    8  N   UNK A   0      -6.541  16.791  70.026  1.00  0.00     0.079 NA 
HETATM    9  H   UNK A   0      -5.964  16.486  70.810  1.00  0.00     0.000 HD 
HETATM   10  H2  UNK A   0      -5.084  22.119  70.634  1.00  0.00     0.000 HD 
HETATM   11  C   UNK A   0      -6.449  18.101  69.582  1.00  0.00    -0.127 C  
HETATM   12  O   UNK A   0      -7.054  20.324  66.878  1.00  0.00    -0.235 OA 
HETATM   13  C   UNK A   0      -6.989  18.445  68.381  1.00  0.00    -0.253 C  
HETATM   14  H1  UNK A   0      -4.713  20.772  71.739  1.00  0.00     0.000 HD 
HETATM   15  C   UNK A   0      -6.824  19.881  67.999  1.00  0.00    -0.274 C  
HETATM   16  N   UNK A   0      -5.820  18.986  70.421  1.00  0.00    -0.210 NA 
HETATM   17  N   UNK A   0      -5.136  21.132  70.883  1.00  0.00    -0.562 NA 
HETATM   18  N   UNK A   0      -6.329  20.709  68.959  1.00  0.00    -0.253 N  
ENDROOT
BRANCH   4  19
HETATM   19  C   UNK A   0      -8.243  15.001  67.146  1.00  0.00    -0.222 C  
BRANCH  19  20
HETATM   20  N   UNK A   0      -7.493  13.773  66.836  1.00  0.00    -0.273 NA 
HETATM   21  H   UNK A   0      -6.651  13.795  66.261  1.00  0.00     0.000 HD 
BRANCH  20  22
HETATM   22  C   UNK A   0      -7.985  12.574  67.364  1.00  0.00    -0.180 A  
HETATM   23  C   UNK A   0      -9.806  11.423  68.503  1.00  0.00    -0.200 A  
HETATM   24  C   UNK A   0      -9.207  10.191  68.219  1.00  0.00    -0.130 A  
HETATM   25  C   UNK A   0      -7.343  11.340  67.201  1.00  0.00    -0.130 A  
HETATM   26  C   UNK A   0      -9.186  12.607  68.083  1.00  0.00    -0.209 A  
HETATM   27  C   UNK A   0      -7.949  10.155  67.615  1.00  0.00    -0.102 A  
BRANCH  24  28
HETATM   28  C   UNK A   0      -9.910   8.931  68.557  1.00  0.00    -0.167 C  
ATOM     29  H   GLU A   1     -10.119   9.539  70.553  1.00  0.00     0.000 HD 
ATOM     30  N   GLU A   1     -10.262   8.776  69.892  1.00  0.00    -0.194 N  
HETATM   31  O   UNK A   0     -10.126   8.081  67.703  1.00  0.00    -0.180 OA 
BRANCH  30  32
ATOM     32  CA  GLU A   1     -10.843   7.498  70.347  1.00  0.00    -0.244 C  
ATOM     33  C   GLU A   1     -12.010   7.783  71.311  1.00  0.00    -0.302 C  
ATOM     34  O   GLU A   1     -11.913   8.990  71.922  1.00  0.00    -0.338 OA 
ATOM     35  OXT GLU A   1     -12.857   6.960  71.629  1.00  0.00    -0.373 OA 
BRANCH  32  36
ATOM     36  CB  GLU A   1      -9.775   6.650  71.053  1.00  0.00    -0.185 C  
BRANCH  36  37
ATOM     37  CG  GLU A   1     -10.033   5.144  70.938  1.00  0.00    -0.280 C  
ATOM     38  CD  GLU A   1      -9.277   4.513  69.797  1.00  0.00    -0.125 C  
ATOM     39  OE2 GLU A   1      -8.545   5.111  69.024  1.00  0.00    -0.090 OA 
ATOM     40  OE1 GLU A   1      -9.490   3.180  69.720  1.00  0.00    -0.162 OA 
ENDBRANCH  36  37
ENDBRANCH  32  36
ENDBRANCH  30  32
ENDBRANCH  24  28
ENDBRANCH  20  22
ENDBRANCH  19  20
ENDBRANCH   4  19
TORSDOF 7
ENDMDL
MODEL      150
REMARK 921   NORMALIZED FREE ENERGY PREDICTED BY IDOCK:   -5.13 KCAL/MOL
REMARK 922        TOTAL FREE ENERGY PREDICTED BY IDOCK:   -8.50 KCAL/MOL
REMARK 923 INTER-LIGAND FREE ENERGY PREDICTED BY IDOCK:   -7.38 KCAL/MOL
REMARK 924 INTRA-LIGAND FREE ENERGY PREDICTED BY IDOCK:   -1.12 KCAL/MOL
REMARK 927      BINDING AFFINITY PREDICTED BY RF-SCORE:    0.00 PKD
ROOT
HETATM    1  C   UNK A   0     -11.579   9.395  69.958  1.00  0.00    -0.009 C  
HETATM    2  N   UNK A   0     -11.048   8.127  69.767  1.00  0.00    -0.431 N  
HETATM    3  O   UNK A   0     -11.594  10.312  69.142  1.00  0.00    -0.196 OA 
HETATM    4  C   UNK A   0     -10.402   7.731  68.462  1.00  0.00    -0.197 C  
HETATM    5  C   UNK A   0     -10.875   6.308  68.083  1.00  0.00    -0.320 C  
HETATM    6  C   UNK A   0     -11.105   5.129  72.677  1.00  0.00    -0.234 C  
HETATM    7  H   UNK A   0     -11.767   6.544  74.006  1.00  0.00     0.000 HD 
HETATM    8  N   UNK A   0     -10.591   5.423  69.199  1.00  0.00    -0.213 NA 
HETATM    9  H   UNK A   0     -10.215   4.492  69.018  1.00  0.00     0.000 HD 
HETATM   10  H2  UNK A   0     -11.310   4.408  74.615  1.00  0.00     0.000 HD 
HETATM   11  C   UNK A   0     -10.821   5.821  70.506  1.00  0.00    -0.278 C  
HETATM   12  O   UNK A   0     -11.288   8.589  72.683  1.00  0.00    -0.343 OA 
HETATM   13  C   UNK A   0     -11.049   7.135  70.780  1.00  0.00    -0.269 C  
HETATM   14  H1  UNK A   0     -10.859   3.234  73.354  1.00  0.00     0.000 HD 
HETATM   15  C   UNK A   0     -11.277   7.451  72.224  1.00  0.00    -0.272 C  
HETATM   16  N   UNK A   0     -10.824   4.829  71.455  1.00  0.00     0.111 NA 
HETATM   17  N   UNK A   0     -11.094   4.183  73.644  1.00  0.00    -0.261 NA 
HETATM   18  N   UNK A   0     -11.417   6.388  73.061  1.00  0.00    -0.478 N  
ENDROOT
BRANCH   4  19
HETATM   19  C   UNK A   0     -10.603   8.688  67.267  1.00  0.00    -0.238 C  
BRANCH  19  20
HETATM   20  N   UNK A   0      -9.343   8.943  66.548  1.00  0.00    -0.179 NA 
HETATM   21  H   UNK A   0      -8.901   8.223  65.977  1.00  0.00     0.000 HD 
BRANCH  20  22
HETATM   22  C   UNK A   0      -8.779  10.216  66.682  1.00  0.00    -0.126 A  
HETATM   23  C   UNK A   0      -9.129  12.628  66.715  1.00  0.00    -0.214 A  
HETATM   24  C   UNK A   0      -7.831  12.812  67.201  1.00  0.00    -0.097 A  
HETATM   25  C   UNK A   0      -7.445  10.433  67.050  1.00  0.00    -0.097 A  
HETATM   26  C   UNK A   0      -9.592  11.333  66.449  1.00  0.00    -0.223 A  
HETATM   27  C   UNK A   0      -6.972  11.716  67.316  1.00  0.00    -0.131 A  
BRANCH  24  28
HETATM   28  C   UNK A   0      -7.372  14.166  67.593  1.00  0.00    -0.176 C  
ATOM     29  H   GLU A   1      -9.092  15.030  66.761  1.00  0.00     0.000 HD 
ATOM     30  N   GLU A   1      -8.191  15.217  67.202  1.00  0.00    -0.207 N  
HETATM   31  O   UNK A   0      -6.318  14.324  68.194  1.00  0.00    -0.104 OA 
BRANCH  30  32
ATOM     32  CA  GLU A   1      -7.750  16.606  67.430  1.00  0.00    -0.163 C  
ATOM     33  C   GLU A   1      -8.656  17.263  68.489  1.00  0.00    -0.270 C  
ATOM     34  O   GLU A   1      -9.882  16.689  68.570  1.00  0.00    -0.232 OA 
ATOM     35  OXT GLU A   1      -8.378  18.292  69.089  1.00  0.00    -0.093 OA 
BRANCH  32  36
ATOM     36  CB  GLU A   1      -7.811  17.405  66.119  1.00  0.00    -0.293 C  
BRANCH  36  37
ATOM     37  CG  GLU A   1      -6.743  18.501  66.035  1.00  0.00    -0.293 C  
ATOM     38  CD  GLU A   1      -7.334  19.887  66.074  1.00  0.00    -0.309 C  
ATOM     39  OE2 GLU A   1      -8.525  20.142  66.149  1.00  0.00    -0.295 OA 
ATOM     40  OE1 GLU A   1      -6.382  20.847  66.027  1.00  0.00    -0.248 OA 
ENDBRANCH  36  37
ENDBRANCH  32  36
ENDBRANCH  30  32
ENDBRANCH  24  28
ENDBRANCH  20  22
ENDBRANCH  19  20
ENDBRANCH   4  19
TORSDOF 7
ENDMDL
MODEL      151
REMARK 921   NORMALIZED FREE ENERGY PREDICTED BY IDOCK:   -5.07 KCAL/MOL
REMARK 922        TOTAL FREE ENERGY PREDICTED BY IDOCK:   -8.42 KCAL/MOL
REMARK 923 INTER-LIGAND FREE ENERGY PREDICTED BY IDOCK:   -7.04 KCAL/MOL
REMARK 924 INTRA-LIGAND FREE ENERGY PREDICTED BY IDOCK:   -1.38 KCAL/MOL
REMARK 927      BINDING AFFINITY PREDICTED BY RF-SCORE:    0.00 PKD
ROOT
HETATM    1  C   UNK A   0      -9.782  15.043  67.545  1.00  0.00    -0.215 C  
HETATM    2  N   UNK A   0     -10.444  14.138  68.362  1.00  0.00    -0.247 N  
HETATM    3  O   UNK A   0      -9.043  14.774  66.602  1.00  0.00    -0.254 OA 
HETATM    4  C   UNK A   0     -10.312  12.648  68.157  1.00  0.00    -0.234 C  
HETATM    5  C   UNK A   0     -11.708  12.000  68.297  1.00  0.00    -0.334 C  
HETATM    6  C   UNK A   0     -12.931  15.259  71.527  1.00  0.00    -0.412 C  
HETATM    7  H   UNK A   0     -12.274  17.183  71.256  1.00  0.00     0.000 HD 
HETATM    8  N   UNK A   0     -12.265  12.393  69.579  1.00  0.00    -0.155 NA 
HETATM    9  H   UNK A   0     -12.758  11.702  70.145  1.00  0.00     0.000 HD 
HETATM   10  H2  UNK A   0     -13.689  16.594  72.927  1.00  0.00     0.000 HD 
HETATM   11  C   UNK A   0     -12.139  13.691  70.048  1.00  0.00    -0.348 C  
HETATM   12  O   UNK A   0     -10.327  16.735  69.782  1.00  0.00    -0.198 OA 
HETATM   13  C   UNK A   0     -11.257  14.540  69.452  1.00  0.00    -0.280 C  
HETATM   14  H1  UNK A   0     -14.290  14.919  72.992  1.00  0.00     0.000 HD 
HETATM   15  C   UNK A   0     -11.198  15.912  70.044  1.00  0.00    -0.353 C  
HETATM   16  N   UNK A   0     -12.952  14.043  71.096  1.00  0.00    -0.337 NA 
HETATM   17  N   UNK A   0     -13.699  15.637  72.574  1.00  0.00    -0.551 NA 
HETATM   18  N   UNK A   0     -12.148  16.211  70.971  1.00  0.00    -0.563 N  
ENDROOT
BRANCH   4  19
HETATM   19  C   UNK A   0      -9.643  12.183  66.845  1.00  0.00    -0.206 C  
BRANCH  19  20
HETATM   20  N   UNK A   0      -8.318  11.587  67.083  1.00  0.00    -0.153 NA 
HETATM   21  H   UNK A   0      -7.481  11.956  66.633  1.00  0.00     0.000 HD 
BRANCH  20  22
HETATM   22  C   UNK A   0      -8.256  10.494  67.954  1.00  0.00    -0.107 A  
HETATM   23  C   UNK A   0      -7.328   9.541  69.997  1.00  0.00    -0.115 A  
HETATM   24  C   UNK A   0      -8.246   8.488  69.924  1.00  0.00    -0.121 A  
HETATM   25  C   UNK A   0      -9.080   9.367  67.836  1.00  0.00    -0.136 A  
HETATM   26  C   UNK A   0      -7.332  10.532  69.006  1.00  0.00    -0.103 A  
HETATM   27  C   UNK A   0      -9.084   8.374  68.813  1.00  0.00    -0.143 A  
BRANCH  24  28
HETATM   28  C   UNK A   0      -8.326   7.500  71.026  1.00  0.00    -0.113 C  
ATOM     29  H   GLU A   1      -7.862   5.937  69.707  1.00  0.00     0.000 HD 
ATOM     30  N   GLU A   1      -8.135   6.173  70.661  1.00  0.00    -0.114 N  
HETATM   31  O   UNK A   0      -8.579   7.851  72.170  1.00  0.00    -0.120 OA 
BRANCH  30  32
ATOM     32  CA  GLU A   1      -8.330   5.108  71.663  1.00  0.00    -0.117 C  
ATOM     33  C   GLU A   1      -6.967   4.484  72.017  1.00  0.00    -0.055 C  
ATOM     34  O   GLU A   1      -6.044   4.630  71.034  1.00  0.00    -0.017 OA 
ATOM     35  OXT GLU A   1      -6.763   3.788  73.002  1.00  0.00    -0.035 OA 
BRANCH  32  36
ATOM     36  CB  GLU A   1      -9.274   4.028  71.113  1.00  0.00    -0.196 C  
BRANCH  36  37
ATOM     37  CG  GLU A   1      -9.784   4.339  69.702  1.00  0.00    -0.284 C  
ATOM     38  CD  GLU A   1      -9.207   3.412  68.662  1.00  0.00    -0.168 C  
ATOM     39  OE2 GLU A   1      -8.411   2.514  68.885  1.00  0.00    -0.057 OA 
ATOM     40  OE1 GLU A   1      -9.684   3.676  67.424  1.00  0.00    -0.194 OA 
ENDBRANCH  36  37
ENDBRANCH  32  36
ENDBRANCH  30  32
ENDBRANCH  24  28
ENDBRANCH  20  22
ENDBRANCH  19  20
ENDBRANCH   4  19
TORSDOF 7
ENDMDL
MODEL      152
REMARK 921   NORMALIZED FREE ENERGY PREDICTED BY IDOCK:   -5.07 KCAL/MOL
REMARK 922        TOTAL FREE ENERGY PREDICTED BY IDOCK:   -8.42 KCAL/MOL
REMARK 923 INTER-LIGAND FREE ENERGY PREDICTED BY IDOCK:   -7.40 KCAL/MOL
REMARK 924 INTRA-LIGAND FREE ENERGY PREDICTED BY IDOCK:   -1.02 KCAL/MOL
REMARK 927      BINDING AFFINITY PREDICTED BY RF-SCORE:    0.00 PKD
ROOT
HETATM    1  C   UNK A   0     -11.268  10.399  68.635  1.00  0.00    -0.248 C  
HETATM    2  N   UNK A   0     -10.214  10.666  67.774  1.00  0.00    -0.173 N  
HETATM    3  O   UNK A   0     -12.395  10.885  68.586  1.00  0.00    -0.501 OA 
HETATM    4  C   UNK A   0     -10.360  11.636  66.626  1.00  0.00    -0.222 C  
HETATM    5  C   UNK A   0      -9.689  11.029  65.372  1.00  0.00    -0.232 C  
HETATM    6  C   UNK A   0      -6.445   8.894  68.105  1.00  0.00    -0.060 C  
HETATM    7  H   UNK A   0      -7.052   8.128  69.907  1.00  0.00     0.000 HD 
HETATM    8  N   UNK A   0      -8.319  10.685  65.712  1.00  0.00    -0.160 NA 
HETATM    9  H   UNK A   0      -7.572  10.884  65.046  1.00  0.00     0.000 HD 
HETATM   10  H2  UNK A   0      -4.952   7.846  69.100  1.00  0.00     0.000 HD 
HETATM   11  C   UNK A   0      -8.009  10.092  66.925  1.00  0.00    -0.113 C  
HETATM   12  O   UNK A   0      -9.095   9.495  70.254  1.00  0.00    -0.225 OA 
HETATM   13  C   UNK A   0      -8.932  10.078  67.924  1.00  0.00    -0.131 C  
HETATM   14  H1  UNK A   0      -4.571   8.450  67.469  1.00  0.00     0.000 HD 
HETATM   15  C   UNK A   0      -8.487   9.419  69.191  1.00  0.00    -0.134 C  
HETATM   16  N   UNK A   0      -6.762   9.525  67.026  1.00  0.00    -0.071 NA 
HETATM   17  N   UNK A   0      -5.217   8.344  68.251  1.00  0.00    -0.033 NA 
HETATM   18  N   UNK A   0      -7.302   8.752  69.141  1.00  0.00    -0.071 N  
ENDROOT
BRANCH   4  19
HETATM   19  C   UNK A   0     -11.792  12.100  66.285  1.00  0.00    -0.246 C  
BRANCH  19  20
HETATM   20  N   UNK A   0     -12.127  13.378  66.936  1.00  0.00    -0.379 NA 
HETATM   21  H   UNK A   0     -13.037  13.531  67.369  1.00  0.00     0.000 HD 
BRANCH  20  22
HETATM   22  C   UNK A   0     -11.142  14.372  66.934  1.00  0.00    -0.323 A  
HETATM   23  C   UNK A   0      -9.428  15.570  68.186  1.00  0.00    -0.198 A  
HETATM   24  C   UNK A   0      -8.959  16.142  66.999  1.00  0.00    -0.232 A  
HETATM   25  C   UNK A   0     -10.735  15.052  65.780  1.00  0.00    -0.351 A  
HETATM   26  C   UNK A   0     -10.523  14.696  68.148  1.00  0.00    -0.237 A  
HETATM   27  C   UNK A   0      -9.649  15.924  65.804  1.00  0.00    -0.339 A  
BRANCH  24  28
HETATM   28  C   UNK A   0      -7.733  16.975  67.012  1.00  0.00    -0.186 C  
ATOM     29  H   GLU A   1      -8.605  18.301  68.384  1.00  0.00     0.000 HD 
ATOM     30  N   GLU A   1      -7.792  18.123  67.793  1.00  0.00    -0.232 N  
HETATM   31  O   UNK A   0      -6.756  16.668  66.343  1.00  0.00    -0.201 OA 
BRANCH  30  32
ATOM     32  CA  GLU A   1      -6.671  19.081  67.763  1.00  0.00    -0.206 C  
ATOM     33  C   GLU A   1      -6.343  19.529  69.199  1.00  0.00    -0.300 C  
ATOM     34  O   GLU A   1      -7.394  19.408  70.048  1.00  0.00     0.098 OA 
ATOM     35  OXT GLU A   1      -5.304  20.087  69.526  1.00  0.00    -0.202 OA 
BRANCH  32  36
ATOM     36  CB  GLU A   1      -7.039  20.301  66.904  1.00  0.00    -0.303 C  
BRANCH  36  37
ATOM     37  CG  GLU A   1      -8.109  19.993  65.852  1.00  0.00    -0.226 C  
ATOM     38  CD  GLU A   1      -9.487  20.423  66.286  1.00  0.00    -0.177 C  
ATOM     39  OE2 GLU A   1      -9.756  20.947  67.355  1.00  0.00    -0.456 OA 
ATOM     40  OE1 GLU A   1     -10.421  20.172  65.340  1.00  0.00    -0.329 OA 
ENDBRANCH  36  37
ENDBRANCH  32  36
ENDBRANCH  30  32
ENDBRANCH  24  28
ENDBRANCH  20  22
ENDBRANCH  19  20
ENDBRANCH   4  19
TORSDOF 7
ENDMDL
MODEL      153
REMARK 921   NORMALIZED FREE ENERGY PREDICTED BY IDOCK:   -5.06 KCAL/MOL
REMARK 922        TOTAL FREE ENERGY PREDICTED BY IDOCK:   -8.40 KCAL/MOL
REMARK 923 INTER-LIGAND FREE ENERGY PREDICTED BY IDOCK:   -8.30 KCAL/MOL
REMARK 924 INTRA-LIGAND FREE ENERGY PREDICTED BY IDOCK:   -0.10 KCAL/MOL
REMARK 927      BINDING AFFINITY PREDICTED BY RF-SCORE:    0.00 PKD
ROOT
HETATM    1  C   UNK A   0      -7.494   6.380  68.635  1.00  0.00    -0.088 C  
HETATM    2  N   UNK A   0      -8.856   6.256  68.399  1.00  0.00    -0.115 N  
HETATM    3  O   UNK A   0      -6.602   6.383  67.791  1.00  0.00    -0.056 OA 
HETATM    4  C   UNK A   0      -9.403   6.104  67.000  1.00  0.00    -0.124 C  
HETATM    5  C   UNK A   0     -10.653   7.003  66.854  1.00  0.00    -0.301 C  
HETATM    6  C   UNK A   0     -11.743   6.279  71.419  1.00  0.00    -0.254 C  
HETATM    7  H   UNK A   0     -10.208   6.184  72.776  1.00  0.00     0.000 HD 
HETATM    8  N   UNK A   0     -11.585   6.661  67.915  1.00  0.00    -0.522 NA 
HETATM    9  H   UNK A   0     -12.581   6.593  67.706  1.00  0.00     0.000 HD 
HETATM   10  H2  UNK A   0     -12.391   6.131  73.388  1.00  0.00     0.000 HD 
HETATM   11  C   UNK A   0     -11.143   6.424  69.207  1.00  0.00    -0.373 C  
HETATM   12  O   UNK A   0      -8.354   5.580  71.239  1.00  0.00    -0.122 OA 
HETATM   13  C   UNK A   0      -9.816   6.233  69.442  1.00  0.00    -0.152 C  
HETATM   14  H1  UNK A   0     -13.638   6.344  72.135  1.00  0.00     0.000 HD 
HETATM   15  C   UNK A   0      -9.455   5.979  70.871  1.00  0.00    -0.168 C  
HETATM   16  N   UNK A   0     -12.103   6.421  70.189  1.00  0.00    -0.340 NA 
HETATM   17  N   UNK A   0     -12.661   6.247  72.412  1.00  0.00    -0.516 NA 
HETATM   18  N   UNK A   0     -10.447   6.151  71.786  1.00  0.00    -0.211 N  
ENDROOT
BRANCH   4  19
HETATM   19  C   UNK A   0      -8.424   6.372  65.837  1.00  0.00    -0.147 C  
BRANCH  19  20
HETATM   20  N   UNK A   0      -8.901   7.446  64.951  1.00  0.00    -0.296 NA 
HETATM   21  H   UNK A   0      -9.345   7.240  64.056  1.00  0.00     0.000 HD 
BRANCH  20  22
HETATM   22  C   UNK A   0      -8.721   8.763  65.390  1.00  0.00    -0.183 A  
HETATM   23  C   UNK A   0      -9.635  11.015  65.566  1.00  0.00    -0.263 A  
HETATM   24  C   UNK A   0      -8.610  11.364  66.452  1.00  0.00    -0.174 A  
HETATM   25  C   UNK A   0      -7.637   9.171  66.178  1.00  0.00    -0.095 A  
HETATM   26  C   UNK A   0      -9.678   9.720  65.033  1.00  0.00    -0.303 A  
HETATM   27  C   UNK A   0      -7.581  10.456  66.714  1.00  0.00    -0.110 A  
BRANCH  24  28
HETATM   28  C   UNK A   0      -8.620  12.692  67.110  1.00  0.00    -0.199 C  
ATOM     29  H   GLU A   1     -10.490  13.135  66.271  1.00  0.00     0.000 HD 
ATOM     30  N   GLU A   1      -9.713  13.499  66.824  1.00  0.00    -0.263 N  
HETATM   31  O   UNK A   0      -7.695  13.045  67.829  1.00  0.00    -0.122 OA 
BRANCH  30  32
ATOM     32  CA  GLU A   1      -9.744  14.886  67.324  1.00  0.00    -0.228 C  
ATOM     33  C   GLU A   1     -11.196  15.276  67.659  1.00  0.00    -0.320 C  
ATOM     34  O   GLU A   1     -12.114  14.552  66.971  1.00  0.00    -0.398 OA 
ATOM     35  OXT GLU A   1     -11.509  16.238  68.347  1.00  0.00    -0.357 OA 
BRANCH  32  36
ATOM     36  CB  GLU A   1      -9.174  15.845  66.267  1.00  0.00    -0.372 C  
BRANCH  36  37
ATOM     37  CG  GLU A   1      -9.789  17.247  66.337  1.00  0.00    -0.310 C  
ATOM     38  CD  GLU A   1      -8.752  18.324  66.532  1.00  0.00    -0.274 C  
ATOM     39  OE2 GLU A   1      -7.552  18.132  66.641  1.00  0.00    -0.209 OA 
ATOM     40  OE1 GLU A   1      -9.301  19.559  66.565  1.00  0.00    -0.332 OA 
ENDBRANCH  36  37
ENDBRANCH  32  36
ENDBRANCH  30  32
ENDBRANCH  24  28
ENDBRANCH  20  22
ENDBRANCH  19  20
ENDBRANCH   4  19
TORSDOF 7
ENDMDL
MODEL      154
REMARK 921   NORMALIZED FREE ENERGY PREDICTED BY IDOCK:   -5.06 KCAL/MOL
REMARK 922        TOTAL FREE ENERGY PREDICTED BY IDOCK:   -8.40 KCAL/MOL
REMARK 923 INTER-LIGAND FREE ENERGY PREDICTED BY IDOCK:   -8.36 KCAL/MOL
REMARK 924 INTRA-LIGAND FREE ENERGY PREDICTED BY IDOCK:   -0.03 KCAL/MOL
REMARK 927      BINDING AFFINITY PREDICTED BY RF-SCORE:    0.00 PKD
ROOT
HETATM    1  C   UNK A   0      -8.760   9.684  69.371  1.00  0.00    -0.171 C  
HETATM    2  N   UNK A   0      -9.424   8.490  69.125  1.00  0.00    -0.154 N  
HETATM    3  O   UNK A   0      -8.197  10.392  68.541  1.00  0.00    -0.108 OA 
HETATM    4  C   UNK A   0      -9.525   7.916  67.733  1.00  0.00    -0.144 C  
HETATM    5  C   UNK A   0     -10.967   7.403  67.509  1.00  0.00    -0.106 C  
HETATM    6  C   UNK A   0     -11.291   6.224  72.097  1.00  0.00    -0.297 C  
HETATM    7  H   UNK A   0     -10.419   7.464  73.479  1.00  0.00     0.000 HD 
HETATM    8  N   UNK A   0     -11.289   6.474  68.578  1.00  0.00    -0.578 NA 
HETATM    9  H   UNK A   0     -11.791   5.613  68.361  1.00  0.00     0.000 HD 
HETATM   10  H2  UNK A   0     -11.666   5.663  74.063  1.00  0.00     0.000 HD 
HETATM   11  C   UNK A   0     -10.925   6.736  69.889  1.00  0.00    -0.291 C  
HETATM   12  O   UNK A   0      -8.765   8.594  72.012  1.00  0.00    -0.229 OA 
HETATM   13  C   UNK A   0     -10.023   7.720  70.155  1.00  0.00    -0.186 C  
HETATM   14  H1  UNK A   0     -12.477   4.728  72.782  1.00  0.00     0.000 HD 
HETATM   15  C   UNK A   0      -9.699   7.910  71.602  1.00  0.00    -0.163 C  
HETATM   16  N   UNK A   0     -11.535   5.976  70.856  1.00  0.00    -0.239 NA 
HETATM   17  N   UNK A   0     -11.854   5.481  73.078  1.00  0.00    -0.542 NA 
HETATM   18  N   UNK A   0     -10.466   7.222  72.489  1.00  0.00    -0.222 N  
ENDROOT
BRANCH   4  19
HETATM   19  C   UNK A   0      -9.108   8.839  66.568  1.00  0.00    -0.162 C  
BRANCH  19  20
HETATM   20  N   UNK A   0     -10.268   9.291  65.781  1.00  0.00    -0.288 NA 
HETATM   21  H   UNK A   0     -10.936   8.627  65.390  1.00  0.00     0.000 HD 
BRANCH  20  22
HETATM   22  C   UNK A   0     -10.413  10.670  65.592  1.00  0.00    -0.165 A  
HETATM   23  C   UNK A   0     -10.707  12.865  66.611  1.00  0.00    -0.280 A  
HETATM   24  C   UNK A   0     -10.442  13.473  65.380  1.00  0.00    -0.322 A  
HETATM   25  C   UNK A   0     -10.274  11.297  64.348  1.00  0.00    -0.377 A  
HETATM   26  C   UNK A   0     -10.702  11.467  66.707  1.00  0.00    -0.316 A  
HETATM   27  C   UNK A   0     -10.279  12.685  64.238  1.00  0.00    -0.358 A  
BRANCH  24  28
HETATM   28  C   UNK A   0     -10.332  14.948  65.292  1.00  0.00    -0.396 C  
ATOM     29  H   GLU A   1      -8.511  14.912  66.331  1.00  0.00     0.000 HD 
ATOM     30  N   GLU A   1      -9.231  15.510  65.924  1.00  0.00    -0.321 N  
HETATM   31  O   UNK A   0     -11.188  15.611  64.720  1.00  0.00    -0.430 OA 
BRANCH  30  32
ATOM     32  CA  GLU A   1      -9.109  16.978  66.005  1.00  0.00    -0.137 C  
ATOM     33  C   GLU A   1      -7.619  17.365  66.067  1.00  0.00    -0.210 C  
ATOM     34  O   GLU A   1      -6.832  16.373  66.554  1.00  0.00    -0.213 OA 
ATOM     35  OXT GLU A   1      -7.191  18.491  65.856  1.00  0.00    -0.330 OA 
BRANCH  32  36
ATOM     36  CB  GLU A   1      -9.839  17.504  67.251  1.00  0.00    -0.294 C  
BRANCH  36  37
ATOM     37  CG  GLU A   1     -10.370  18.931  67.076  1.00  0.00    -0.469 C  
ATOM     38  CD  GLU A   1     -10.793  19.220  65.658  1.00  0.00    -0.181 C  
ATOM     39  OE2 GLU A   1     -10.719  18.433  64.728  1.00  0.00    -0.121 OA 
ATOM     40  OE1 GLU A   1     -11.286  20.472  65.520  1.00  0.00     0.436 OA 
ENDBRANCH  36  37
ENDBRANCH  32  36
ENDBRANCH  30  32
ENDBRANCH  24  28
ENDBRANCH  20  22
ENDBRANCH  19  20
ENDBRANCH   4  19
TORSDOF 7
ENDMDL
MODEL      155
REMARK 921   NORMALIZED FREE ENERGY PREDICTED BY IDOCK:   -5.04 KCAL/MOL
REMARK 922        TOTAL FREE ENERGY PREDICTED BY IDOCK:   -8.37 KCAL/MOL
REMARK 923 INTER-LIGAND FREE ENERGY PREDICTED BY IDOCK:   -7.57 KCAL/MOL
REMARK 924 INTRA-LIGAND FREE ENERGY PREDICTED BY IDOCK:   -0.80 KCAL/MOL
REMARK 927      BINDING AFFINITY PREDICTED BY RF-SCORE:    0.00 PKD
ROOT
HETATM    1  C   UNK A   0      -8.310  10.026  68.695  1.00  0.00    -0.116 C  
HETATM    2  N   UNK A   0      -8.651   9.047  67.772  1.00  0.00    -0.121 N  
HETATM    3  O   UNK A   0      -8.905  11.080  68.898  1.00  0.00    -0.164 OA 
HETATM    4  C   UNK A   0      -9.857   9.193  66.878  1.00  0.00    -0.217 C  
HETATM    5  C   UNK A   0     -10.607   7.842  66.827  1.00  0.00    -0.177 C  
HETATM    6  C   UNK A   0      -6.491   5.510  67.241  1.00  0.00    -0.048 C  
HETATM    7  H   UNK A   0      -5.054   6.296  68.475  1.00  0.00     0.000 HD 
HETATM    8  N   UNK A   0      -9.664   6.815  66.418  1.00  0.00    -0.355 NA 
HETATM    9  H   UNK A   0      -9.956   6.103  65.748  1.00  0.00     0.000 HD 
HETATM   10  H2  UNK A   0      -4.822   4.289  67.446  1.00  0.00     0.000 HD 
HETATM   11  C   UNK A   0      -8.374   6.786  66.923  1.00  0.00    -0.114 C  
HETATM   12  O   UNK A   0      -5.806   8.662  68.506  1.00  0.00    -0.043 OA 
HETATM   13  C   UNK A   0      -7.884   7.869  67.586  1.00  0.00    -0.122 C  
HETATM   14  H1  UNK A   0      -6.185   3.649  66.495  1.00  0.00     0.000 HD 
HETATM   15  C   UNK A   0      -6.479   7.729  68.079  1.00  0.00    -0.055 C  
HETATM   16  N   UNK A   0      -7.670   5.623  66.730  1.00  0.00    -0.099 NA 
HETATM   17  N   UNK A   0      -5.757   4.389  67.052  1.00  0.00    -0.021 NA 
HETATM   18  N   UNK A   0      -5.924   6.491  67.979  1.00  0.00    -0.019 N  
ENDROOT
BRANCH   4  19
HETATM   19  C   UNK A   0     -10.844  10.330  67.221  1.00  0.00    -0.250 C  
BRANCH  19  20
HETATM   20  N   UNK A   0     -11.499  10.872  66.018  1.00  0.00     0.143 NA 
HETATM   21  H   UNK A   0     -12.133  10.304  65.456  1.00  0.00     0.000 HD 
BRANCH  20  22
HETATM   22  C   UNK A   0     -11.215  12.200  65.680  1.00  0.00    -0.335 A  
HETATM   23  C   UNK A   0     -12.065  14.360  64.938  1.00  0.00    -0.442 A  
HETATM   24  C   UNK A   0     -10.832  14.949  65.236  1.00  0.00    -0.398 A  
HETATM   25  C   UNK A   0      -9.954  12.786  65.852  1.00  0.00    -0.273 A  
HETATM   26  C   UNK A   0     -12.245  12.987  65.152  1.00  0.00    -0.507 A  
HETATM   27  C   UNK A   0      -9.761  14.149  65.642  1.00  0.00    -0.210 A  
BRANCH  24  28
HETATM   28  C   UNK A   0     -10.666  16.418  65.122  1.00  0.00    -0.291 C  
ATOM     29  H   GLU A   1      -9.242  16.414  66.662  1.00  0.00     0.000 HD 
ATOM     30  N   GLU A   1      -9.793  16.999  66.033  1.00  0.00    -0.271 N  
HETATM   31  O   UNK A   0     -11.296  17.060  64.292  1.00  0.00    -1.191 OA 
BRANCH  30  32
ATOM     32  CA  GLU A   1      -9.667  18.468  66.084  1.00  0.00    -0.232 C  
ATOM     33  C   GLU A   1      -8.175  18.852  66.107  1.00  0.00    -0.204 C  
ATOM     34  O   GLU A   1      -7.380  17.868  66.595  1.00  0.00    -0.196 OA 
ATOM     35  OXT GLU A   1      -7.750  19.973  65.867  1.00  0.00    -0.333 OA 
BRANCH  32  36
ATOM     36  CB  GLU A   1     -10.369  19.018  67.335  1.00  0.00    -0.504 C  
BRANCH  36  37
ATOM     37  CG  GLU A   1     -11.210  17.964  68.062  1.00  0.00     0.334 C  
ATOM     38  CD  GLU A   1     -10.410  17.184  69.074  1.00  0.00    -0.331 C  
ATOM     39  OE2 GLU A   1      -9.221  17.340  69.301  1.00  0.00    -0.071 OA 
ATOM     40  OE1 GLU A   1     -11.167  16.275  69.730  1.00  0.00    -0.334 OA 
ENDBRANCH  36  37
ENDBRANCH  32  36
ENDBRANCH  30  32
ENDBRANCH  24  28
ENDBRANCH  20  22
ENDBRANCH  19  20
ENDBRANCH   4  19
TORSDOF 7
ENDMDL
MODEL      156
REMARK 921   NORMALIZED FREE ENERGY PREDICTED BY IDOCK:   -5.00 KCAL/MOL
REMARK 922        TOTAL FREE ENERGY PREDICTED BY IDOCK:   -8.31 KCAL/MOL
REMARK 923 INTER-LIGAND FREE ENERGY PREDICTED BY IDOCK:   -9.91 KCAL/MOL
REMARK 924 INTRA-LIGAND FREE ENERGY PREDICTED BY IDOCK:    1.59 KCAL/MOL
REMARK 927      BINDING AFFINITY PREDICTED BY RF-SCORE:    0.00 PKD
ROOT
HETATM    1  C   UNK A   0     -12.778  13.380  65.105  1.00  0.00    -0.399 C  
HETATM    2  N   UNK A   0     -11.712  12.640  65.598  1.00  0.00    -0.390 N  
HETATM    3  O   UNK A   0     -13.569  14.051  65.762  1.00  0.00    -0.335 OA 
HETATM    4  C   UNK A   0     -11.406  12.586  67.075  1.00  0.00    -0.328 C  
HETATM    5  C   UNK A   0      -9.878  12.720  67.272  1.00  0.00    -0.207 C  
HETATM    6  C   UNK A   0      -9.119  10.423  63.186  1.00  0.00    -0.261 C  
HETATM    7  H   UNK A   0     -10.390  10.790  61.619  1.00  0.00     0.000 HD 
HETATM    8  N   UNK A   0      -9.225  11.696  66.475  1.00  0.00    -0.193 NA 
HETATM    9  H   UNK A   0      -8.435  11.183  66.866  1.00  0.00     0.000 HD 
HETATM   10  H2  UNK A   0      -8.553   9.475  61.425  1.00  0.00     0.000 HD 
HETATM   11  C   UNK A   0      -9.658  11.404  65.191  1.00  0.00    -0.229 C  
HETATM   12  O   UNK A   0     -12.353  11.629  62.888  1.00  0.00    -0.144 OA 
HETATM   13  C   UNK A   0     -10.864  11.868  64.764  1.00  0.00    -0.307 C  
HETATM   14  H1  UNK A   0      -7.454   9.326  62.818  1.00  0.00     0.000 HD 
HETATM   15  C   UNK A   0     -11.232  11.485  63.365  1.00  0.00    -0.249 C  
HETATM   16  N   UNK A   0      -8.802  10.664  64.413  1.00  0.00    -0.239 NA 
HETATM   17  N   UNK A   0      -8.313   9.677  62.395  1.00  0.00    -0.137 NA 
HETATM   18  N   UNK A   0     -10.258  10.889  62.626  1.00  0.00    -0.754 N  
ENDROOT
BRANCH   4  19
HETATM   19  C   UNK A   0     -12.144  13.599  67.976  1.00  0.00    -0.274 C  
BRANCH  19  20
HETATM   20  N   UNK A   0     -12.102  14.962  67.422  1.00  0.00    -0.441 NA 
HETATM   21  H   UNK A   0     -12.934  15.402  67.028  1.00  0.00     0.000 HD 
BRANCH  20  22
HETATM   22  C   UNK A   0     -10.873  15.628  67.458  1.00  0.00    -0.316 A  
HETATM   23  C   UNK A   0      -9.106  16.754  66.211  1.00  0.00    -0.320 A  
HETATM   24  C   UNK A   0      -8.552  17.215  67.409  1.00  0.00    -0.212 A  
HETATM   25  C   UNK A   0     -10.230  15.997  68.646  1.00  0.00    -0.231 A  
HETATM   26  C   UNK A   0     -10.257  15.955  66.243  1.00  0.00    -0.324 A  
HETATM   27  C   UNK A   0      -9.085  16.790  68.628  1.00  0.00    -0.254 A  
BRANCH  24  28
HETATM   28  C   UNK A   0      -7.405  18.153  67.381  1.00  0.00    -0.210 C  
ATOM     29  H   GLU A   1      -8.695  19.781  67.099  1.00  0.00     0.000 HD 
ATOM     30  N   GLU A   1      -7.720  19.485  67.148  1.00  0.00    -0.249 N  
HETATM   31  O   UNK A   0      -6.258  17.750  67.525  1.00  0.00    -0.153 OA 
BRANCH  30  32
ATOM     32  CA  GLU A   1      -6.636  20.469  66.969  1.00  0.00    -0.252 C  
ATOM     33  C   GLU A   1      -6.189  20.475  65.495  1.00  0.00    -0.236 C  
ATOM     34  O   GLU A   1      -6.455  19.310  64.854  1.00  0.00    -0.398 OA 
ATOM     35  OXT GLU A   1      -5.522  21.363  64.981  1.00  0.00    -0.172 OA 
BRANCH  32  36
ATOM     36  CB  GLU A   1      -5.446  20.119  67.876  1.00  0.00    -0.219 C  
BRANCH  36  37
ATOM     37  CG  GLU A   1      -5.382  20.982  69.140  1.00  0.00    -0.374 C  
ATOM     38  CD  GLU A   1      -5.639  20.187  70.395  1.00  0.00    -0.297 C  
ATOM     39  OE2 GLU A   1      -5.888  18.992  70.432  1.00  0.00    -0.233 OA 
ATOM     40  OE1 GLU A   1      -5.554  20.951  71.508  1.00  0.00    -0.566 OA 
ENDBRANCH  36  37
ENDBRANCH  32  36
ENDBRANCH  30  32
ENDBRANCH  24  28
ENDBRANCH  20  22
ENDBRANCH  19  20
ENDBRANCH   4  19
TORSDOF 7
ENDMDL
MODEL      157
REMARK 921   NORMALIZED FREE ENERGY PREDICTED BY IDOCK:   -4.97 KCAL/MOL
REMARK 922        TOTAL FREE ENERGY PREDICTED BY IDOCK:   -8.28 KCAL/MOL
REMARK 923 INTER-LIGAND FREE ENERGY PREDICTED BY IDOCK:   -7.18 KCAL/MOL
REMARK 924 INTRA-LIGAND FREE ENERGY PREDICTED BY IDOCK:   -1.10 KCAL/MOL
REMARK 927      BINDING AFFINITY PREDICTED BY RF-SCORE:    0.00 PKD
ROOT
HETATM    1  C   UNK A   0      -9.821   8.359  66.486  1.00  0.00    -0.268 C  
HETATM    2  N   UNK A   0      -9.730   8.484  67.865  1.00  0.00    -0.156 N  
HETATM    3  O   UNK A   0      -9.723   9.262  65.661  1.00  0.00    -0.284 OA 
HETATM    4  C   UNK A   0      -9.485   9.821  68.521  1.00  0.00    -0.145 C  
HETATM    5  C   UNK A   0      -8.440   9.640  69.646  1.00  0.00    -0.174 C  
HETATM    6  C   UNK A   0     -10.084   5.271  70.512  1.00  0.00    -0.245 C  
HETATM    7  H   UNK A   0     -10.671   4.124  68.916  1.00  0.00     0.000 HD 
HETATM    8  N   UNK A   0      -8.912   8.598  70.541  1.00  0.00    -0.153 NA 
HETATM    9  H   UNK A   0      -8.814   8.720  71.549  1.00  0.00     0.000 HD 
HETATM   10  H2  UNK A   0     -10.616   3.332  71.040  1.00  0.00     0.000 HD 
HETATM   11  C   UNK A   0      -9.494   7.441  70.049  1.00  0.00    -0.161 C  
HETATM   12  O   UNK A   0     -11.106   5.929  67.268  1.00  0.00    -0.251 OA 
HETATM   13  C   UNK A   0      -9.886   7.384  68.747  1.00  0.00    -0.164 C  
HETATM   14  H1  UNK A   0      -9.972   4.378  72.329  1.00  0.00     0.000 HD 
HETATM   15  C   UNK A   0     -10.508   6.091  68.328  1.00  0.00    -0.235 C  
HETATM   16  N   UNK A   0      -9.618   6.397  70.932  1.00  0.00    -0.175 NA 
HETATM   17  N   UNK A   0     -10.244   4.227  71.358  1.00  0.00    -0.110 NA 
HETATM   18  N   UNK A   0     -10.443   5.069  69.224  1.00  0.00    -0.137 N  
ENDROOT
BRANCH   4  19
HETATM   19  C   UNK A   0      -9.066  10.984  67.595  1.00  0.00    -0.145 C  
BRANCH  19  20
HETATM   20  N   UNK A   0      -7.693  11.439  67.870  1.00  0.00    -0.109 NA 
HETATM   21  H   UNK A   0      -6.957  10.783  68.130  1.00  0.00     0.000 HD 
BRANCH  20  22
HETATM   22  C   UNK A   0      -7.441  12.811  67.760  1.00  0.00    -0.135 A  
HETATM   23  C   UNK A   0      -5.794  14.607  67.774  1.00  0.00    -0.099 A  
HETATM   24  C   UNK A   0      -6.757  15.497  67.289  1.00  0.00    -0.128 A  
HETATM   25  C   UNK A   0      -8.417  13.747  67.394  1.00  0.00    -0.209 A  
HETATM   26  C   UNK A   0      -6.144  13.272  68.016  1.00  0.00    -0.122 A  
HETATM   27  C   UNK A   0      -8.082  15.077  67.152  1.00  0.00    -0.245 A  
BRANCH  24  28
HETATM   28  C   UNK A   0      -6.370  16.880  66.922  1.00  0.00    -0.202 C  
ATOM     29  H   GLU A   1      -7.739  17.669  68.300  1.00  0.00     0.000 HD 
ATOM     30  N   GLU A   1      -7.073  17.893  67.560  1.00  0.00    -0.192 N  
HETATM   31  O   UNK A   0      -5.504  17.089  66.082  1.00  0.00    -0.336 OA 
BRANCH  30  32
ATOM     32  CA  GLU A   1      -6.851  19.296  67.160  1.00  0.00    -0.194 C  
ATOM     33  C   GLU A   1      -6.278  20.083  68.354  1.00  0.00    -0.272 C  
ATOM     34  O   GLU A   1      -6.592  19.533  69.553  1.00  0.00    -0.317 OA 
ATOM     35  OXT GLU A   1      -5.733  21.174  68.262  1.00  0.00    -0.319 OA 
BRANCH  32  36
ATOM     36  CB  GLU A   1      -8.171  19.932  66.698  1.00  0.00    -0.359 C  
BRANCH  36  37
ATOM     37  CG  GLU A   1      -9.357  18.964  66.763  1.00  0.00    -0.343 C  
ATOM     38  CD  GLU A   1     -10.188  19.150  68.007  1.00  0.00    -0.401 C  
ATOM     39  OE2 GLU A   1      -9.958  19.961  68.890  1.00  0.00    -0.409 OA 
ATOM     40  OE1 GLU A   1     -11.248  18.311  68.042  1.00  0.00     0.013 OA 
ENDBRANCH  36  37
ENDBRANCH  32  36
ENDBRANCH  30  32
ENDBRANCH  24  28
ENDBRANCH  20  22
ENDBRANCH  19  20
ENDBRANCH   4  19
TORSDOF 7
ENDMDL
MODEL      158
REMARK 921   NORMALIZED FREE ENERGY PREDICTED BY IDOCK:   -4.97 KCAL/MOL
REMARK 922        TOTAL FREE ENERGY PREDICTED BY IDOCK:   -8.27 KCAL/MOL
REMARK 923 INTER-LIGAND FREE ENERGY PREDICTED BY IDOCK:   -7.18 KCAL/MOL
REMARK 924 INTRA-LIGAND FREE ENERGY PREDICTED BY IDOCK:   -1.09 KCAL/MOL
REMARK 927      BINDING AFFINITY PREDICTED BY RF-SCORE:    0.00 PKD
ROOT
HETATM    1  C   UNK A   0      -8.689   6.431  69.084  1.00  0.00    -0.127 C  
HETATM    2  N   UNK A   0      -9.135   7.540  69.789  1.00  0.00    -0.141 N  
HETATM    3  O   UNK A   0      -7.589   6.292  68.558  1.00  0.00    -0.089 OA 
HETATM    4  C   UNK A   0      -8.259   8.752  69.988  1.00  0.00    -0.120 C  
HETATM    5  C   UNK A   0      -8.397   9.232  71.452  1.00  0.00     0.197 C  
HETATM    6  C   UNK A   0     -12.928   7.812  71.521  1.00  0.00    -0.325 C  
HETATM    7  H   UNK A   0     -13.413   6.078  70.539  1.00  0.00     0.000 HD 
HETATM    8  N   UNK A   0      -9.807   9.445  71.728  1.00  0.00    -0.116 NA 
HETATM    9  H   UNK A   0     -10.096  10.265  72.263  1.00  0.00     0.000 HD 
HETATM   10  H2  UNK A   0     -14.907   7.239  71.788  1.00  0.00     0.000 HD 
HETATM   11  C   UNK A   0     -10.768   8.553  71.279  1.00  0.00    -0.240 C  
HETATM   12  O   UNK A   0     -11.506   5.972  68.953  1.00  0.00    -0.221 OA 
HETATM   13  C   UNK A   0     -10.439   7.624  70.341  1.00  0.00    -0.220 C  
HETATM   14  H1  UNK A   0     -14.344   8.664  72.696  1.00  0.00     0.000 HD 
HETATM   15  C   UNK A   0     -11.555   6.720  69.925  1.00  0.00    -0.270 C  
HETATM   16  N   UNK A   0     -12.014   8.662  71.846  1.00  0.00    -0.331 NA 
HETATM   17  N   UNK A   0     -14.174   7.902  72.040  1.00  0.00    -0.559 NA 
HETATM   18  N   UNK A   0     -12.702   6.801  70.652  1.00  0.00    -0.429 N  
ENDROOT
BRANCH   4  19
HETATM   19  C   UNK A   0      -6.767   8.601  69.622  1.00  0.00    -0.039 C  
BRANCH  19  20
HETATM   20  N   UNK A   0      -6.415   9.366  68.415  1.00  0.00    -0.053 NA 
HETATM   21  H   UNK A   0      -5.678   9.055  67.783  1.00  0.00     0.000 HD 
BRANCH  20  22
HETATM   22  C   UNK A   0      -7.137  10.540  68.171  1.00  0.00    -0.082 A  
HETATM   23  C   UNK A   0      -7.527  12.873  68.759  1.00  0.00    -0.047 A  
HETATM   24  C   UNK A   0      -8.311  13.033  67.612  1.00  0.00    -0.181 A  
HETATM   25  C   UNK A   0      -8.024  10.691  67.098  1.00  0.00    -0.121 A  
HETATM   26  C   UNK A   0      -6.953  11.626  69.038  1.00  0.00    -0.111 A  
HETATM   27  C   UNK A   0      -8.602  11.926  66.812  1.00  0.00    -0.181 A  
BRANCH  24  28
HETATM   28  C   UNK A   0      -8.827  14.374  67.248  1.00  0.00    -0.213 C  
ATOM     29  H   GLU A   1      -8.097  15.181  69.041  1.00  0.00     0.000 HD 
ATOM     30  N   GLU A   1      -8.642  15.369  68.200  1.00  0.00    -0.150 N  
HETATM   31  O   UNK A   0      -9.404  14.560  66.186  1.00  0.00    -0.277 OA 
BRANCH  30  32
ATOM     32  CA  GLU A   1      -9.240  16.701  67.984  1.00  0.00    -0.223 C  
ATOM     33  C   GLU A   1      -8.179  17.786  68.246  1.00  0.00    -0.285 C  
ATOM     34  O   GLU A   1      -7.189  17.373  69.077  1.00  0.00    -0.251 OA 
ATOM     35  OXT GLU A   1      -8.280  18.950  67.884  1.00  0.00    -0.267 OA 
BRANCH  32  36
ATOM     36  CB  GLU A   1     -10.439  16.903  68.923  1.00  0.00    -0.346 C  
BRANCH  36  37
ATOM     37  CG  GLU A   1     -11.463  15.766  68.842  1.00  0.00    -0.381 C  
ATOM     38  CD  GLU A   1     -11.919  15.300  70.201  1.00  0.00    -0.338 C  
ATOM     39  OE2 GLU A   1     -11.525  15.748  71.266  1.00  0.00    -0.361 OA 
ATOM     40  OE1 GLU A   1     -12.842  14.315  70.118  1.00  0.00    -0.281 OA 
ENDBRANCH  36  37
ENDBRANCH  32  36
ENDBRANCH  30  32
ENDBRANCH  24  28
ENDBRANCH  20  22
ENDBRANCH  19  20
ENDBRANCH   4  19
TORSDOF 7
ENDMDL
MODEL      159
REMARK 921   NORMALIZED FREE ENERGY PREDICTED BY IDOCK:   -4.89 KCAL/MOL
REMARK 922        TOTAL FREE ENERGY PREDICTED BY IDOCK:   -8.16 KCAL/MOL
REMARK 923 INTER-LIGAND FREE ENERGY PREDICTED BY IDOCK:   -7.70 KCAL/MOL
REMARK 924 INTRA-LIGAND FREE ENERGY PREDICTED BY IDOCK:   -0.46 KCAL/MOL
REMARK 927      BINDING AFFINITY PREDICTED BY RF-SCORE:    0.00 PKD
ROOT
HETATM    1  C   UNK A   0     -11.893  13.651  68.597  1.00  0.00    -0.374 C  
HETATM    2  N   UNK A   0     -11.728  12.342  68.168  1.00  0.00    -0.339 N  
HETATM    3  O   UNK A   0     -12.207  14.017  69.726  1.00  0.00    -0.327 OA 
HETATM    4  C   UNK A   0     -11.929  11.174  69.103  1.00  0.00    -0.343 C  
HETATM    5  C   UNK A   0     -10.793  10.151  68.874  1.00  0.00    -0.223 C  
HETATM    6  C   UNK A   0     -10.645  11.300  64.269  1.00  0.00    -0.358 C  
HETATM    7  H   UNK A   0     -10.916  13.266  63.754  1.00  0.00     0.000 HD 
HETATM    8  N   UNK A   0     -10.769   9.807  67.463  1.00  0.00    -0.277 NA 
HETATM    9  H   UNK A   0     -10.631   8.835  67.186  1.00  0.00     0.000 HD 
HETATM   10  H2  UNK A   0     -10.383  11.665  62.240  1.00  0.00     0.000 HD 
HETATM   11  C   UNK A   0     -10.931  10.776  66.486  1.00  0.00    -0.075 C  
HETATM   12  O   UNK A   0     -12.127  14.045  65.777  1.00  0.00    -0.384 OA 
HETATM   13  C   UNK A   0     -11.393  12.009  66.831  1.00  0.00    -0.341 C  
HETATM   14  H1  UNK A   0     -10.051  10.013  62.819  1.00  0.00     0.000 HD 
HETATM   15  C   UNK A   0     -11.536  12.972  65.695  1.00  0.00    -0.333 C  
HETATM   16  N   UNK A   0     -10.585  10.417  65.207  1.00  0.00    -0.110 NA 
HETATM   17  N   UNK A   0     -10.335  10.978  62.992  1.00  0.00    -0.746 NA 
HETATM   18  N   UNK A   0     -11.022  12.578  64.499  1.00  0.00    -0.304 N  
ENDROOT
BRANCH   4  19
HETATM   19  C   UNK A   0     -12.049  11.500  70.608  1.00  0.00    -0.353 C  
BRANCH  19  20
HETATM   20  N   UNK A   0     -12.833  10.485  71.330  1.00  0.00    -0.397 NA 
HETATM   21  H   UNK A   0     -13.791  10.667  71.631  1.00  0.00     0.000 HD 
BRANCH  20  22
HETATM   22  C   UNK A   0     -12.209   9.259  71.586  1.00  0.00    -0.370 A  
HETATM   23  C   UNK A   0     -12.278   6.832  71.371  1.00  0.00    -0.413 A  
HETATM   24  C   UNK A   0     -10.945   6.756  71.789  1.00  0.00    -0.266 A  
HETATM   25  C   UNK A   0     -10.919   9.148  72.119  1.00  0.00    -0.119 A  
HETATM   26  C   UNK A   0     -12.905   8.082  71.282  1.00  0.00    -0.221 A  
HETATM   27  C   UNK A   0     -10.285   7.911  72.214  1.00  0.00    -0.302 A  
BRANCH  24  28
HETATM   28  C   UNK A   0     -10.239   5.453  71.777  1.00  0.00    -0.206 C  
ATOM     29  H   GLU A   1      -8.382   6.416  71.931  1.00  0.00     0.000 HD 
ATOM     30  N   GLU A   1      -8.852   5.519  71.809  1.00  0.00    -0.135 N  
HETATM   31  O   UNK A   0     -10.860   4.401  71.709  1.00  0.00     0.109 OA 
BRANCH  30  32
ATOM     32  CA  GLU A   1      -8.062   4.281  71.664  1.00  0.00    -0.091 C  
ATOM     33  C   GLU A   1      -8.152   3.462  72.965  1.00  0.00    -0.073 C  
ATOM     34  O   GLU A   1      -8.435   4.221  74.053  1.00  0.00    -0.095 OA 
ATOM     35  OXT GLU A   1      -7.848   2.280  73.058  1.00  0.00    -0.045 OA 
BRANCH  32  36
ATOM     36  CB  GLU A   1      -6.594   4.620  71.359  1.00  0.00    -0.030 C  
BRANCH  36  37
ATOM     37  CG  GLU A   1      -6.356   6.119  71.154  1.00  0.00    -0.044 C  
ATOM     38  CD  GLU A   1      -5.823   6.794  72.393  1.00  0.00    -0.038 C  
ATOM     39  OE2 GLU A   1      -5.609   6.239  73.458  1.00  0.00    -0.040 OA 
ATOM     40  OE1 GLU A   1      -5.589   8.112  72.194  1.00  0.00    -0.035 OA 
ENDBRANCH  36  37
ENDBRANCH  32  36
ENDBRANCH  30  32
ENDBRANCH  24  28
ENDBRANCH  20  22
ENDBRANCH  19  20
ENDBRANCH   4  19
TORSDOF 7
ENDMDL
MODEL      160
REMARK 921   NORMALIZED FREE ENERGY PREDICTED BY IDOCK:   -4.88 KCAL/MOL
REMARK 922        TOTAL FREE ENERGY PREDICTED BY IDOCK:   -8.14 KCAL/MOL
REMARK 923 INTER-LIGAND FREE ENERGY PREDICTED BY IDOCK:   -7.24 KCAL/MOL
REMARK 924 INTRA-LIGAND FREE ENERGY PREDICTED BY IDOCK:   -0.90 KCAL/MOL
REMARK 927      BINDING AFFINITY PREDICTED BY RF-SCORE:    0.00 PKD
ROOT
HETATM    1  C   UNK A   0      -9.422  14.968  67.310  1.00  0.00    -0.208 C  
HETATM    2  N   UNK A   0     -10.089  14.020  68.073  1.00  0.00    -0.233 N  
HETATM    3  O   UNK A   0      -8.607  14.749  66.418  1.00  0.00    -0.144 OA 
HETATM    4  C   UNK A   0      -9.862  12.542  67.868  1.00  0.00    -0.207 C  
HETATM    5  C   UNK A   0     -11.228  11.818  67.906  1.00  0.00    -0.267 C  
HETATM    6  C   UNK A   0     -12.844  14.973  71.065  1.00  0.00    -0.387 C  
HETATM    7  H   UNK A   0     -12.276  16.933  70.853  1.00  0.00     0.000 HD 
HETATM    8  N   UNK A   0     -11.892  12.168  69.150  1.00  0.00    -0.312 NA 
HETATM    9  H   UNK A   0     -12.384  11.446  69.676  1.00  0.00     0.000 HD 
HETATM   10  H2  UNK A   0     -13.768  16.252  72.418  1.00  0.00     0.000 HD 
HETATM   11  C   UNK A   0     -11.869  13.466  69.634  1.00  0.00    -0.331 C  
HETATM   12  O   UNK A   0     -10.211  16.605  69.514  1.00  0.00    -0.255 OA 
HETATM   13  C   UNK A   0     -10.996  14.367  69.107  1.00  0.00    -0.265 C  
HETATM   14  H1  UNK A   0     -14.281  14.546  72.431  1.00  0.00     0.000 HD 
HETATM   15  C   UNK A   0     -11.052  15.734  69.710  1.00  0.00    -0.322 C  
HETATM   16  N   UNK A   0     -12.770  13.763  70.627  1.00  0.00    -0.293 NA 
HETATM   17  N   UNK A   0     -13.702  15.300  72.059  1.00  0.00    -0.444 NA 
HETATM   18  N   UNK A   0     -12.078  15.973  70.572  1.00  0.00    -0.456 N  
ENDROOT
BRANCH   4  19
HETATM   19  C   UNK A   0      -9.081  12.126  66.602  1.00  0.00    -0.206 C  
BRANCH  19  20
HETATM   20  N   UNK A   0      -7.810  11.462  66.933  1.00  0.00    -0.153 NA 
HETATM   21  H   UNK A   0      -6.920  11.807  66.573  1.00  0.00     0.000 HD 
BRANCH  20  22
HETATM   22  C   UNK A   0      -7.874  10.338  67.764  1.00  0.00    -0.101 A  
HETATM   23  C   UNK A   0      -7.672   7.917  67.966  1.00  0.00    -0.125 A  
HETATM   24  C   UNK A   0      -7.701   8.030  69.360  1.00  0.00    -0.104 A  
HETATM   25  C   UNK A   0      -8.025  10.414  69.154  1.00  0.00    -0.141 A  
HETATM   26  C   UNK A   0      -7.769   9.071  67.177  1.00  0.00    -0.099 A  
HETATM   27  C   UNK A   0      -7.932   9.275  69.950  1.00  0.00    -0.113 A  
BRANCH  24  28
HETATM   28  C   UNK A   0      -7.485   6.832  70.205  1.00  0.00    -0.094 C  
ATOM     29  H   GLU A   1      -9.525   6.752  70.681  1.00  0.00     0.000 HD 
ATOM     30  N   GLU A   1      -8.607   6.347  70.863  1.00  0.00    -0.134 N  
HETATM   31  O   UNK A   0      -6.371   6.338  70.324  1.00  0.00    -0.033 OA 
BRANCH  30  32
ATOM     32  CA  GLU A   1      -8.463   5.242  71.830  1.00  0.00    -0.126 C  
ATOM     33  C   GLU A   1      -8.914   3.925  71.171  1.00  0.00    -0.104 C  
ATOM     34  O   GLU A   1      -9.787   4.112  70.150  1.00  0.00    -0.209 OA 
ATOM     35  OXT GLU A   1      -8.652   2.812  71.606  1.00  0.00    -0.066 OA 
BRANCH  32  36
ATOM     36  CB  GLU A   1      -9.308   5.517  73.083  1.00  0.00    -0.141 C  
BRANCH  36  37
ATOM     37  CG  GLU A   1      -9.878   6.939  73.120  1.00  0.00    -0.213 C  
ATOM     38  CD  GLU A   1     -11.314   6.998  72.664  1.00  0.00    -0.252 C  
ATOM     39  OE2 GLU A   1     -11.972   6.041  72.288  1.00  0.00    -0.318 OA 
ATOM     40  OE1 GLU A   1     -11.817   8.252  72.727  1.00  0.00    -0.388 OA 
ENDBRANCH  36  37
ENDBRANCH  32  36
ENDBRANCH  30  32
ENDBRANCH  24  28
ENDBRANCH  20  22
ENDBRANCH  19  20
ENDBRANCH   4  19
TORSDOF 7
ENDMDL
MODEL      161
REMARK 921   NORMALIZED FREE ENERGY PREDICTED BY IDOCK:   -4.87 KCAL/MOL
REMARK 922        TOTAL FREE ENERGY PREDICTED BY IDOCK:   -8.14 KCAL/MOL
REMARK 923 INTER-LIGAND FREE ENERGY PREDICTED BY IDOCK:   -6.45 KCAL/MOL
REMARK 924 INTRA-LIGAND FREE ENERGY PREDICTED BY IDOCK:   -1.68 KCAL/MOL
REMARK 927      BINDING AFFINITY PREDICTED BY RF-SCORE:    0.00 PKD
ROOT
HETATM    1  C   UNK A   0      -9.633   4.329  70.062  1.00  0.00    -0.204 C  
HETATM    2  N   UNK A   0      -8.785   5.426  70.089  1.00  0.00    -0.124 N  
HETATM    3  O   UNK A   0      -9.776   3.537  69.134  1.00  0.00    -0.139 OA 
HETATM    4  C   UNK A   0      -7.904   5.771  68.913  1.00  0.00    -0.097 C  
HETATM    5  C   UNK A   0      -6.500   6.154  69.437  1.00  0.00    -0.043 C  
HETATM    6  C   UNK A   0      -8.436   8.005  73.358  1.00  0.00    -0.235 C  
HETATM    7  H   UNK A   0     -10.052   7.049  74.183  1.00  0.00     0.000 HD 
HETATM    8  N   UNK A   0      -6.655   7.215  70.417  1.00  0.00    -0.046 NA 
HETATM    9  H   UNK A   0      -6.002   7.999  70.415  1.00  0.00     0.000 HD 
HETATM   10  H2  UNK A   0      -9.057   8.838  75.158  1.00  0.00     0.000 HD 
HETATM   11  C   UNK A   0      -7.675   7.181  71.354  1.00  0.00    -0.093 C  
HETATM   12  O   UNK A   0     -10.846   5.810  72.182  1.00  0.00    -0.225 OA 
HETATM   13  C   UNK A   0      -8.706   6.308  71.197  1.00  0.00    -0.128 C  
HETATM   14  H1  UNK A   0      -7.586   9.512  74.415  1.00  0.00     0.000 HD 
HETATM   15  C   UNK A   0      -9.753   6.364  72.264  1.00  0.00    -0.150 C  
HETATM   16  N   UNK A   0      -7.555   8.043  72.417  1.00  0.00    -0.104 NA 
HETATM   17  N   UNK A   0      -8.366   8.854  74.409  1.00  0.00    -0.200 NA 
HETATM   18  N   UNK A   0      -9.469   7.132  73.350  1.00  0.00    -0.174 N  
ENDROOT
BRANCH   4  19
HETATM   19  C   UNK A   0      -7.779   4.707  67.801  1.00  0.00    -0.082 C  
BRANCH  19  20
HETATM   20  N   UNK A   0      -8.813   4.869  66.766  1.00  0.00    -0.110 NA 
HETATM   21  H   UNK A   0      -9.243   4.063  66.313  1.00  0.00     0.000 HD 
BRANCH  20  22
HETATM   22  C   UNK A   0      -9.181   6.177  66.430  1.00  0.00    -0.152 A  
HETATM   23  C   UNK A   0     -10.649   8.075  66.858  1.00  0.00    -0.324 A  
HETATM   24  C   UNK A   0      -9.844   8.882  66.048  1.00  0.00    -0.277 A  
HETATM   25  C   UNK A   0      -8.464   6.971  65.526  1.00  0.00    -0.120 A  
HETATM   26  C   UNK A   0     -10.318   6.724  67.036  1.00  0.00    -0.338 A  
HETATM   27  C   UNK A   0      -8.783   8.314  65.339  1.00  0.00    -0.147 A  
BRANCH  24  28
HETATM   28  C   UNK A   0     -10.119  10.335  65.945  1.00  0.00    -0.251 C  
ATOM     29  H   GLU A   1      -9.996  10.543  68.029  1.00  0.00     0.000 HD 
ATOM     30  N   GLU A   1     -10.208  11.018  67.151  1.00  0.00    -0.199 N  
HETATM   31  O   UNK A   0     -10.286  10.869  64.857  1.00  0.00    -0.281 OA 
BRANCH  30  32
ATOM     32  CA  GLU A   1     -10.611  12.438  67.155  1.00  0.00    -0.224 C  
ATOM     33  C   GLU A   1      -9.413  13.308  67.580  1.00  0.00    -0.220 C  
ATOM     34  O   GLU A   1      -8.505  12.633  68.328  1.00  0.00    -0.169 OA 
ATOM     35  OXT GLU A   1      -9.345  14.517  67.409  1.00  0.00    -0.188 OA 
BRANCH  32  36
ATOM     36  CB  GLU A   1     -11.785  12.654  68.121  1.00  0.00    -0.396 C  
BRANCH  36  37
ATOM     37  CG  GLU A   1     -12.198  11.376  68.859  1.00  0.00    -0.153 C  
ATOM     38  CD  GLU A   1     -12.247  11.562  70.354  1.00  0.00    -0.355 C  
ATOM     39  OE2 GLU A   1     -11.980  12.597  70.942  1.00  0.00    -0.177 OA 
ATOM     40  OE1 GLU A   1     -12.639  10.437  70.994  1.00  0.00    -0.329 OA 
ENDBRANCH  36  37
ENDBRANCH  32  36
ENDBRANCH  30  32
ENDBRANCH  24  28
ENDBRANCH  20  22
ENDBRANCH  19  20
ENDBRANCH   4  19
TORSDOF 7
ENDMDL
MODEL      162
REMARK 921   NORMALIZED FREE ENERGY PREDICTED BY IDOCK:   -4.85 KCAL/MOL
REMARK 922        TOTAL FREE ENERGY PREDICTED BY IDOCK:   -8.11 KCAL/MOL
REMARK 923 INTER-LIGAND FREE ENERGY PREDICTED BY IDOCK:   -7.01 KCAL/MOL
REMARK 924 INTRA-LIGAND FREE ENERGY PREDICTED BY IDOCK:   -1.09 KCAL/MOL
REMARK 927      BINDING AFFINITY PREDICTED BY RF-SCORE:    0.00 PKD
ROOT
HETATM    1  C   UNK A   0     -10.214  13.917  67.731  1.00  0.00    -0.237 C  
HETATM    2  N   UNK A   0     -10.088  12.776  66.952  1.00  0.00    -0.229 N  
HETATM    3  O   UNK A   0      -9.546  14.205  68.721  1.00  0.00    -0.199 OA 
HETATM    4  C   UNK A   0      -9.057  11.718  67.264  1.00  0.00    -0.171 C  
HETATM    5  C   UNK A   0      -8.389  11.269  65.944  1.00  0.00    -0.023 C  
HETATM    6  C   UNK A   0     -12.459  11.982  63.605  1.00  0.00    -0.525 C  
HETATM    7  H   UNK A   0     -13.614  13.590  64.141  1.00  0.00     0.000 HD 
HETATM    8  N   UNK A   0      -9.433  10.852  65.025  1.00  0.00    -0.220 NA 
HETATM    9  H   UNK A   0      -9.298  10.015  64.458  1.00  0.00     0.000 HD 
HETATM   10  H2  UNK A   0     -14.114  12.254  62.379  1.00  0.00     0.000 HD 
HETATM   11  C   UNK A   0     -10.611  11.572  64.905  1.00  0.00    -0.303 C  
HETATM   12  O   UNK A   0     -12.767  13.936  66.449  1.00  0.00    -0.355 OA 
HETATM   13  C   UNK A   0     -10.926  12.511  65.839  1.00  0.00    -0.279 C  
HETATM   14  H1  UNK A   0     -12.974  10.961  61.930  1.00  0.00     0.000 HD 
HETATM   15  C   UNK A   0     -12.223  13.220  65.614  1.00  0.00    -0.462 C  
HETATM   16  N   UNK A   0     -11.388  11.292  63.808  1.00  0.00    -0.509 NA 
HETATM   17  N   UNK A   0     -13.263  11.720  62.549  1.00  0.00     0.027 NA 
HETATM   18  N   UNK A   0     -12.840  12.988  64.424  1.00  0.00    -0.701 N  
ENDROOT
BRANCH   4  19
HETATM   19  C   UNK A   0      -7.976  12.084  68.304  1.00  0.00    -0.149 C  
BRANCH  19  20
HETATM   20  N   UNK A   0      -7.057  10.963  68.560  1.00  0.00    -0.071 NA 
HETATM   21  H   UNK A   0      -6.053  11.052  68.403  1.00  0.00     0.000 HD 
BRANCH  20  22
HETATM   22  C   UNK A   0      -7.619   9.771  69.030  1.00  0.00    -0.082 A  
HETATM   23  C   UNK A   0      -9.238   8.703  70.507  1.00  0.00    -0.201 A  
HETATM   24  C   UNK A   0      -9.022   7.481  69.862  1.00  0.00    -0.141 A  
HETATM   25  C   UNK A   0      -7.329   8.515  68.484  1.00  0.00    -0.092 A  
HETATM   26  C   UNK A   0      -8.528   9.838  70.094  1.00  0.00    -0.204 A  
HETATM   27  C   UNK A   0      -8.027   7.378  68.887  1.00  0.00    -0.126 A  
BRANCH  24  28
HETATM   28  C   UNK A   0      -9.849   6.302  70.213  1.00  0.00    -0.168 C  
ATOM     29  H   GLU A   1      -8.164   5.293  70.949  1.00  0.00     0.000 HD 
ATOM     30  N   GLU A   1      -9.160   5.217  70.739  1.00  0.00    -0.133 N  
HETATM   31  O   UNK A   0     -11.056   6.297  70.011  1.00  0.00    -0.319 OA 
BRANCH  30  32
ATOM     32  CA  GLU A   1      -9.877   3.953  70.992  1.00  0.00    -0.149 C  
ATOM     33  C   GLU A   1      -9.719   3.563  72.474  1.00  0.00    -0.147 C  
ATOM     34  O   GLU A   1      -8.610   4.093  73.047  1.00  0.00    -0.098 OA 
ATOM     35  OXT GLU A   1     -10.417   2.738  73.047  1.00  0.00    -0.146 OA 
BRANCH  32  36
ATOM     36  CB  GLU A   1      -9.321   2.837  70.094  1.00  0.00    -0.199 C  
BRANCH  36  37
ATOM     37  CG  GLU A   1      -8.070   3.260  69.318  1.00  0.00    -0.065 C  
ATOM     38  CD  GLU A   1      -8.318   3.371  67.836  1.00  0.00    -0.084 C  
ATOM     39  OE2 GLU A   1      -9.382   3.140  67.283  1.00  0.00    -0.191 OA 
ATOM     40  OE1 GLU A   1      -7.216   3.771  67.163  1.00  0.00    -0.062 OA 
ENDBRANCH  36  37
ENDBRANCH  32  36
ENDBRANCH  30  32
ENDBRANCH  24  28
ENDBRANCH  20  22
ENDBRANCH  19  20
ENDBRANCH   4  19
TORSDOF 7
ENDMDL
MODEL      163
REMARK 921   NORMALIZED FREE ENERGY PREDICTED BY IDOCK:   -4.83 KCAL/MOL
REMARK 922        TOTAL FREE ENERGY PREDICTED BY IDOCK:   -8.07 KCAL/MOL
REMARK 923 INTER-LIGAND FREE ENERGY PREDICTED BY IDOCK:   -7.68 KCAL/MOL
REMARK 924 INTRA-LIGAND FREE ENERGY PREDICTED BY IDOCK:   -0.39 KCAL/MOL
REMARK 927      BINDING AFFINITY PREDICTED BY RF-SCORE:    0.00 PKD
ROOT
HETATM    1  C   UNK A   0     -10.802   6.002  68.765  1.00  0.00    -0.322 C  
HETATM    2  N   UNK A   0      -9.480   5.781  69.125  1.00  0.00    -0.126 N  
HETATM    3  O   UNK A   0     -11.202   6.501  67.717  1.00  0.00    -0.305 OA 
HETATM    4  C   UNK A   0      -8.341   6.154  68.209  1.00  0.00    -0.114 C  
HETATM    5  C   UNK A   0      -7.303   5.008  68.211  1.00  0.00    -0.074 C  
HETATM    6  C   UNK A   0      -8.324   4.053  72.749  1.00  0.00    -0.096 C  
HETATM    7  H   UNK A   0     -10.278   4.207  73.354  1.00  0.00     0.000 HD 
HETATM    8  N   UNK A   0      -6.920   4.745  69.588  1.00  0.00    -0.052 NA 
HETATM    9  H   UNK A   0      -5.940   4.573  69.811  1.00  0.00     0.000 HD 
HETATM   10  H2  UNK A   0      -8.631   3.439  74.711  1.00  0.00     0.000 HD 
HETATM   11  C   UNK A   0      -7.863   4.724  70.602  1.00  0.00    -0.069 C  
HETATM   12  O   UNK A   0     -11.120   5.740  71.592  1.00  0.00    -0.265 OA 
HETATM   13  C   UNK A   0      -9.109   5.223  70.375  1.00  0.00    -0.139 C  
HETATM   14  H1  UNK A   0      -6.994   3.232  74.041  1.00  0.00     0.000 HD 
HETATM   15  C   UNK A   0     -10.042   5.156  71.542  1.00  0.00    -0.193 C  
HETATM   16  N   UNK A   0      -7.467   4.166  71.792  1.00  0.00    -0.063 NA 
HETATM   17  N   UNK A   0      -7.965   3.531  73.944  1.00  0.00    -0.074 NA 
HETATM   18  N   UNK A   0      -9.611   4.448  72.621  1.00  0.00    -0.134 N  
ENDROOT
BRANCH   4  19
HETATM   19  C   UNK A   0      -8.709   6.529  66.757  1.00  0.00    -0.123 C  
BRANCH  19  20
HETATM   20  N   UNK A   0      -8.134   7.825  66.360  1.00  0.00    -0.105 NA 
HETATM   21  H   UNK A   0      -7.125   7.970  66.319  1.00  0.00     0.000 HD 
BRANCH  20  22
HETATM   22  C   UNK A   0      -9.031   8.851  66.042  1.00  0.00    -0.193 A  
HETATM   23  C   UNK A   0     -10.575  10.556  66.849  1.00  0.00    -0.303 A  
HETATM   24  C   UNK A   0     -10.645  11.103  65.564  1.00  0.00    -0.289 A  
HETATM   25  C   UNK A   0      -9.214   9.340  64.743  1.00  0.00    -0.160 A  
HETATM   26  C   UNK A   0      -9.777   9.427  67.078  1.00  0.00    -0.233 A  
HETATM   27  C   UNK A   0     -10.006  10.460  64.501  1.00  0.00    -0.401 A  
BRANCH  24  28
HETATM   28  C   UNK A   0     -11.393  12.362  65.335  1.00  0.00    -0.337 C  
ATOM     29  H   GLU A   1      -9.992  13.443  66.460  1.00  0.00     0.000 HD 
ATOM     30  N   GLU A   1     -10.881  13.490  65.962  1.00  0.00    -0.277 N  
HETATM   31  O   UNK A   0     -12.414  12.374  64.659  1.00  0.00    -0.466 OA 
BRANCH  30  32
ATOM     32  CA  GLU A   1     -11.632  14.759  65.902  1.00  0.00    -0.286 C  
ATOM     33  C   GLU A   1     -10.945  15.713  64.906  1.00  0.00    -0.431 C  
ATOM     34  O   GLU A   1      -9.627  15.444  64.735  1.00  0.00     0.053 OA 
ATOM     35  OXT GLU A   1     -11.472  16.710  64.432  1.00  0.00    -0.959 OA 
BRANCH  32  36
ATOM     36  CB  GLU A   1     -11.691  15.408  67.293  1.00  0.00     0.006 C  
BRANCH  36  37
ATOM     37  CG  GLU A   1     -10.307  15.755  67.852  1.00  0.00    -0.261 C  
ATOM     38  CD  GLU A   1      -9.928  17.193  67.605  1.00  0.00    -0.283 C  
ATOM     39  OE2 GLU A   1     -10.618  18.010  67.017  1.00  0.00    -0.366 OA 
ATOM     40  OE1 GLU A   1      -8.717  17.497  68.126  1.00  0.00    -0.246 OA 
ENDBRANCH  36  37
ENDBRANCH  32  36
ENDBRANCH  30  32
ENDBRANCH  24  28
ENDBRANCH  20  22
ENDBRANCH  19  20
ENDBRANCH   4  19
TORSDOF 7
ENDMDL
MODEL      164
REMARK 921   NORMALIZED FREE ENERGY PREDICTED BY IDOCK:   -4.81 KCAL/MOL
REMARK 922        TOTAL FREE ENERGY PREDICTED BY IDOCK:   -8.05 KCAL/MOL
REMARK 923 INTER-LIGAND FREE ENERGY PREDICTED BY IDOCK:   -6.57 KCAL/MOL
REMARK 924 INTRA-LIGAND FREE ENERGY PREDICTED BY IDOCK:   -1.47 KCAL/MOL
REMARK 927      BINDING AFFINITY PREDICTED BY RF-SCORE:    0.00 PKD
ROOT
HETATM    1  C   UNK A   0      -7.080   9.045  70.077  1.00  0.00    -0.055 C  
HETATM    2  N   UNK A   0      -7.262   7.669  70.084  1.00  0.00    -0.066 N  
HETATM    3  O   UNK A   0      -6.579   9.713  69.177  1.00  0.00    -0.048 OA 
HETATM    4  C   UNK A   0      -6.836   6.812  68.916  1.00  0.00    -0.065 C  
HETATM    5  C   UNK A   0      -7.947   5.776  68.628  1.00  0.00    -0.101 C  
HETATM    6  C   UNK A   0      -9.005   5.577  73.252  1.00  0.00    -0.123 C  
HETATM    7  H   UNK A   0      -8.926   7.315  74.338  1.00  0.00     0.000 HD 
HETATM    8  N   UNK A   0      -8.218   5.047  69.854  1.00  0.00    -0.074 NA 
HETATM    9  H   UNK A   0      -8.360   4.038  69.817  1.00  0.00     0.000 HD 
HETATM   10  H2  UNK A   0      -9.659   5.356  75.213  1.00  0.00     0.000 HD 
HETATM   11  C   UNK A   0      -8.286   5.699  71.075  1.00  0.00    -0.121 C  
HETATM   12  O   UNK A   0      -7.396   8.624  72.885  1.00  0.00    -0.323 OA 
HETATM   13  C   UNK A   0      -7.826   6.975  71.184  1.00  0.00    -0.099 C  
HETATM   14  H1  UNK A   0      -9.800   3.938  74.143  1.00  0.00     0.000 HD 
HETATM   15  C   UNK A   0      -7.942   7.577  72.548  1.00  0.00    -0.103 C  
HETATM   16  N   UNK A   0      -8.848   4.996  72.112  1.00  0.00    -0.128 NA 
HETATM   17  N   UNK A   0      -9.533   4.910  74.304  1.00  0.00    -0.122 NA 
HETATM   18  N   UNK A   0      -8.652   6.865  73.465  1.00  0.00    -0.127 N  
ENDROOT
BRANCH   4  19
HETATM   19  C   UNK A   0      -6.452   7.549  67.615  1.00  0.00    -0.057 C  
BRANCH  19  20
HETATM   20  N   UNK A   0      -7.362   7.217  66.506  1.00  0.00    -0.078 NA 
HETATM   21  H   UNK A   0      -7.379   6.285  66.093  1.00  0.00     0.000 HD 
BRANCH  20  22
HETATM   22  C   UNK A   0      -8.201   8.236  66.042  1.00  0.00    -0.119 A  
HETATM   23  C   UNK A   0      -9.961   9.844  66.552  1.00  0.00    -0.291 A  
HETATM   24  C   UNK A   0      -9.749  10.469  65.320  1.00  0.00    -0.328 A  
HETATM   25  C   UNK A   0      -8.094   8.802  64.765  1.00  0.00    -0.151 A  
HETATM   26  C   UNK A   0      -9.193   8.725  66.902  1.00  0.00    -0.195 A  
HETATM   27  C   UNK A   0      -8.852   9.913  64.405  1.00  0.00    -0.245 A  
BRANCH  24  28
HETATM   28  C   UNK A   0     -10.474  11.719  64.990  1.00  0.00    -0.285 C  
ATOM     29  H   GLU A   1      -9.613  12.696  66.634  1.00  0.00     0.000 HD 
ATOM     30  N   GLU A   1     -10.288  12.775  65.872  1.00  0.00    -0.277 N  
HETATM   31  O   UNK A   0     -11.211  11.781  64.015  1.00  0.00    -0.347 OA 
BRANCH  30  32
ATOM     32  CA  GLU A   1     -11.072  14.013  65.701  1.00  0.00    -0.302 C  
ATOM     33  C   GLU A   1     -10.119  15.223  65.681  1.00  0.00    -0.371 C  
ATOM     34  O   GLU A   1      -8.947  14.988  66.322  1.00  0.00    -0.275 OA 
ATOM     35  OXT GLU A   1     -10.428  16.336  65.278  1.00  0.00    -0.541 OA 
BRANCH  32  36
ATOM     36  CB  GLU A   1     -12.085  14.163  66.846  1.00  0.00    -0.466 C  
BRANCH  36  37
ATOM     37  CG  GLU A   1     -11.624  13.495  68.146  1.00  0.00    -0.368 C  
ATOM     38  CD  GLU A   1     -11.296  14.496  69.225  1.00  0.00    -0.285 C  
ATOM     39  OE2 GLU A   1     -11.365  15.708  69.103  1.00  0.00    -0.290 OA 
ATOM     40  OE1 GLU A   1     -10.916  13.897  70.376  1.00  0.00     0.254 OA 
ENDBRANCH  36  37
ENDBRANCH  32  36
ENDBRANCH  30  32
ENDBRANCH  24  28
ENDBRANCH  20  22
ENDBRANCH  19  20
ENDBRANCH   4  19
TORSDOF 7
ENDMDL
MODEL      165
REMARK 921   NORMALIZED FREE ENERGY PREDICTED BY IDOCK:   -4.79 KCAL/MOL
REMARK 922        TOTAL FREE ENERGY PREDICTED BY IDOCK:   -8.02 KCAL/MOL
REMARK 923 INTER-LIGAND FREE ENERGY PREDICTED BY IDOCK:   -6.77 KCAL/MOL
REMARK 924 INTRA-LIGAND FREE ENERGY PREDICTED BY IDOCK:   -1.25 KCAL/MOL
REMARK 927      BINDING AFFINITY PREDICTED BY RF-SCORE:    0.00 PKD
ROOT
HETATM    1  C   UNK A   0      -6.748   5.040  69.553  1.00  0.00    -0.051 C  
HETATM    2  N   UNK A   0      -7.673   5.925  70.087  1.00  0.00    -0.093 N  
HETATM    3  O   UNK A   0      -6.038   5.228  68.568  1.00  0.00    -0.024 OA 
HETATM    4  C   UNK A   0      -7.910   7.284  69.473  1.00  0.00    -0.118 C  
HETATM    5  C   UNK A   0      -8.010   8.332  70.606  1.00  0.00    -0.094 C  
HETATM    6  C   UNK A   0      -9.992   5.097  73.462  1.00  0.00    -0.166 C  
HETATM    7  H   UNK A   0      -9.303   3.168  73.363  1.00  0.00     0.000 HD 
HETATM    8  N   UNK A   0      -9.035   7.895  71.538  1.00  0.00    -0.132 NA 
HETATM    9  H   UNK A   0      -9.689   8.579  71.921  1.00  0.00     0.000 HD 
HETATM   10  H2  UNK A   0     -10.838   3.845  74.889  1.00  0.00     0.000 HD 
HETATM   11  C   UNK A   0      -9.140   6.567  71.917  1.00  0.00    -0.148 C  
HETATM   12  O   UNK A   0      -8.322   3.212  71.083  1.00  0.00    -0.061 OA 
HETATM   13  C   UNK A   0      -8.474   5.610  71.214  1.00  0.00    -0.128 C  
HETATM   14  H1  UNK A   0     -11.271   5.571  74.962  1.00  0.00     0.000 HD 
HETATM   15  C   UNK A   0      -8.666   4.211  71.706  1.00  0.00    -0.112 C  
HETATM   16  N   UNK A   0      -9.916   6.306  73.019  1.00  0.00    -0.169 NA 
HETATM   17  N   UNK A   0     -10.765   4.797  74.531  1.00  0.00    -0.355 NA 
HETATM   18  N   UNK A   0      -9.320   4.072  72.891  1.00  0.00    -0.113 N  
ENDROOT
BRANCH   4  19
HETATM   19  C   UNK A   0      -6.894   7.754  68.410  1.00  0.00    -0.067 C  
BRANCH  19  20
HETATM   20  N   UNK A   0      -7.469   7.740  67.055  1.00  0.00    -0.093 NA 
HETATM   21  H   UNK A   0      -7.496   6.886  66.497  1.00  0.00     0.000 HD 
BRANCH  20  22
HETATM   22  C   UNK A   0      -7.978   8.948  66.564  1.00  0.00    -0.103 A  
HETATM   23  C   UNK A   0      -9.317  10.079  64.871  1.00  0.00    -0.324 A  
HETATM   24  C   UNK A   0      -9.284  11.254  65.628  1.00  0.00    -0.231 A  
HETATM   25  C   UNK A   0      -7.855  10.167  67.242  1.00  0.00    -0.103 A  
HETATM   26  C   UNK A   0      -8.654   8.936  65.338  1.00  0.00    -0.200 A  
HETATM   27  C   UNK A   0      -8.507  11.311  66.787  1.00  0.00    -0.161 A  
BRANCH  24  28
HETATM   28  C   UNK A   0     -10.075  12.432  65.200  1.00  0.00    -0.256 C  
ATOM     29  H   GLU A   1      -9.743  13.372  67.045  1.00  0.00     0.000 HD 
ATOM     30  N   GLU A   1     -10.233  13.431  66.152  1.00  0.00    -0.295 N  
HETATM   31  O   UNK A   0     -10.575  12.484  64.084  1.00  0.00    -0.342 OA 
BRANCH  30  32
ATOM     32  CA  GLU A   1     -11.115  14.578  65.864  1.00  0.00    -0.327 C  
ATOM     33  C   GLU A   1     -10.256  15.812  65.530  1.00  0.00    -0.378 C  
ATOM     34  O   GLU A   1      -9.010  15.753  66.062  1.00  0.00    -0.333 OA 
ATOM     35  OXT GLU A   1     -10.682  16.819  64.981  1.00  0.00    -0.692 OA 
BRANCH  32  36
ATOM     36  CB  GLU A   1     -12.012  14.876  67.076  1.00  0.00    -0.126 C  
BRANCH  36  37
ATOM     37  CG  GLU A   1     -11.479  14.273  68.379  1.00  0.00    -0.331 C  
ATOM     38  CD  GLU A   1     -11.990  14.992  69.601  1.00  0.00    -0.321 C  
ATOM     39  OE2 GLU A   1     -12.735  15.959  69.587  1.00  0.00    -0.060 OA 
ATOM     40  OE1 GLU A   1     -11.536  14.435  70.747  1.00  0.00    -0.264 OA 
ENDBRANCH  36  37
ENDBRANCH  32  36
ENDBRANCH  30  32
ENDBRANCH  24  28
ENDBRANCH  20  22
ENDBRANCH  19  20
ENDBRANCH   4  19
TORSDOF 7
ENDMDL
MODEL      166
REMARK 921   NORMALIZED FREE ENERGY PREDICTED BY IDOCK:   -4.75 KCAL/MOL
REMARK 922        TOTAL FREE ENERGY PREDICTED BY IDOCK:   -7.97 KCAL/MOL
REMARK 923 INTER-LIGAND FREE ENERGY PREDICTED BY IDOCK:   -8.36 KCAL/MOL
REMARK 924 INTRA-LIGAND FREE ENERGY PREDICTED BY IDOCK:    0.39 KCAL/MOL
REMARK 927      BINDING AFFINITY PREDICTED BY RF-SCORE:    0.00 PKD
ROOT
HETATM    1  C   UNK A   0     -10.174  10.972  67.777  1.00  0.00    -0.183 C  
HETATM    2  N   UNK A   0      -9.844  10.457  69.023  1.00  0.00    -0.202 N  
HETATM    3  O   UNK A   0      -9.392  11.275  66.881  1.00  0.00    -0.173 OA 
HETATM    4  C   UNK A   0      -8.410  10.206  69.418  1.00  0.00    -0.168 C  
HETATM    5  C   UNK A   0      -8.322   8.838  70.135  1.00  0.00    -0.131 C  
HETATM    6  C   UNK A   0     -12.665   9.475  71.945  1.00  0.00    -0.411 C  
HETATM    7  H   UNK A   0     -14.081  10.378  70.767  1.00  0.00     0.000 HD 
HETATM    8  N   UNK A   0      -9.267   8.842  71.238  1.00  0.00    -0.242 NA 
HETATM    9  H   UNK A   0      -8.994   8.441  72.135  1.00  0.00     0.000 HD 
HETATM   10  H2  UNK A   0     -14.552   9.526  72.815  1.00  0.00     0.000 HD 
HETATM   11  C   UNK A   0     -10.535   9.382  71.092  1.00  0.00    -0.322 C  
HETATM   12  O   UNK A   0     -12.583  11.575  69.190  1.00  0.00    -0.185 OA 
HETATM   13  C   UNK A   0     -10.816  10.162  70.013  1.00  0.00    -0.307 C  
HETATM   14  H1  UNK A   0     -13.273   8.655  73.697  1.00  0.00     0.000 HD 
HETATM   15  C   UNK A   0     -12.212  10.696  69.962  1.00  0.00    -0.298 C  
HETATM   16  N   UNK A   0     -11.449   9.063  72.065  1.00  0.00    -0.367 NA 
HETATM   17  N   UNK A   0     -13.588   9.202  72.895  1.00  0.00    -0.869 NA 
HETATM   18  N   UNK A   0     -13.084  10.199  70.882  1.00  0.00    -0.499 N  
ENDROOT
BRANCH   4  19
HETATM   19  C   UNK A   0      -7.355  10.279  68.293  1.00  0.00    -0.085 C  
BRANCH  19  20
HETATM   20  N   UNK A   0      -6.122  10.951  68.737  1.00  0.00    -0.040 NA 
HETATM   21  H   UNK A   0      -5.307  10.420  69.043  1.00  0.00     0.000 HD 
BRANCH  20  22
HETATM   22  C   UNK A   0      -6.117  12.350  68.721  1.00  0.00    -0.069 A  
HETATM   23  C   UNK A   0      -5.190  14.392  67.765  1.00  0.00     0.008 A  
HETATM   24  C   UNK A   0      -6.193  15.141  68.388  1.00  0.00    -0.108 A  
HETATM   25  C   UNK A   0      -7.034  13.133  69.433  1.00  0.00     0.097 A  
HETATM   26  C   UNK A   0      -5.151  13.003  67.944  1.00  0.00    -0.106 A  
HETATM   27  C   UNK A   0      -7.082  14.515  69.265  1.00  0.00    -0.140 A  
BRANCH  24  28
HETATM   28  C   UNK A   0      -6.312  16.593  68.114  1.00  0.00    -0.135 C  
ATOM     29  H   GLU A   1      -8.314  16.585  68.737  1.00  0.00     0.000 HD 
ATOM     30  N   GLU A   1      -7.568  17.146  68.326  1.00  0.00    -0.214 N  
HETATM   31  O   UNK A   0      -5.357  17.235  67.697  1.00  0.00    -0.109 OA 
BRANCH  30  32
ATOM     32  CA  GLU A   1      -7.816  18.552  67.953  1.00  0.00    -0.253 C  
ATOM     33  C   GLU A   1      -8.363  18.610  66.514  1.00  0.00    -0.291 C  
ATOM     34  O   GLU A   1      -8.010  17.534  65.767  1.00  0.00    -0.548 OA 
ATOM     35  OXT GLU A   1      -8.922  19.584  66.029  1.00  0.00    -0.389 OA 
BRANCH  32  36
ATOM     36  CB  GLU A   1      -6.517  19.365  68.053  1.00  0.00    -0.252 C  
BRANCH  36  37
ATOM     37  CG  GLU A   1      -6.522  20.362  69.217  1.00  0.00    -0.237 C  
ATOM     38  CD  GLU A   1      -5.968  19.769  70.488  1.00  0.00    -0.269 C  
ATOM     39  OE2 GLU A   1      -5.567  18.623  70.612  1.00  0.00    -0.232 OA 
ATOM     40  OE1 GLU A   1      -5.951  20.664  71.502  1.00  0.00    -0.628 OA 
ENDBRANCH  36  37
ENDBRANCH  32  36
ENDBRANCH  30  32
ENDBRANCH  24  28
ENDBRANCH  20  22
ENDBRANCH  19  20
ENDBRANCH   4  19
TORSDOF 7
ENDMDL
MODEL      167
REMARK 921   NORMALIZED FREE ENERGY PREDICTED BY IDOCK:   -4.73 KCAL/MOL
REMARK 922        TOTAL FREE ENERGY PREDICTED BY IDOCK:   -7.94 KCAL/MOL
REMARK 923 INTER-LIGAND FREE ENERGY PREDICTED BY IDOCK:   -7.86 KCAL/MOL
REMARK 924 INTRA-LIGAND FREE ENERGY PREDICTED BY IDOCK:   -0.08 KCAL/MOL
REMARK 927      BINDING AFFINITY PREDICTED BY RF-SCORE:    0.00 PKD
ROOT
HETATM    1  C   UNK A   0      -8.798  18.017  66.320  1.00  0.00    -0.170 C  
HETATM    2  N   UNK A   0      -9.101  16.682  66.547  1.00  0.00    -0.253 N  
HETATM    3  O   UNK A   0      -8.048  18.722  66.989  1.00  0.00    -0.248 OA 
HETATM    4  C   UNK A   0      -8.502  15.925  67.708  1.00  0.00    -0.158 C  
HETATM    5  C   UNK A   0      -8.065  14.525  67.217  1.00  0.00    -0.196 C  
HETATM    6  C   UNK A   0     -11.678  14.446  64.136  1.00  0.00    -0.227 C  
HETATM    7  H   UNK A   0     -12.179  16.195  63.189  1.00  0.00     0.000 HD 
HETATM    8  N   UNK A   0      -9.211  13.884  66.596  1.00  0.00    -0.362 NA 
HETATM    9  H   UNK A   0      -9.393  12.897  66.776  1.00  0.00     0.000 HD 
HETATM   10  H2  UNK A   0     -13.160  14.210  62.699  1.00  0.00     0.000 HD 
HETATM   11  C   UNK A   0     -10.063  14.592  65.762  1.00  0.00    -0.342 C  
HETATM   12  O   UNK A   0     -11.210  17.814  64.803  1.00  0.00    -0.767 OA 
HETATM   13  C   UNK A   0     -10.004  15.951  65.735  1.00  0.00    -0.360 C  
HETATM   14  H1  UNK A   0     -12.559  12.735  63.497  1.00  0.00     0.000 HD 
HETATM   15  C   UNK A   0     -10.973  16.609  64.806  1.00  0.00    -0.109 C  
HETATM   16  N   UNK A   0     -10.914  13.846  64.985  1.00  0.00    -0.347 NA 
HETATM   17  N   UNK A   0     -12.547  13.748  63.370  1.00  0.00    -0.989 NA 
HETATM   18  N   UNK A   0     -11.661  15.788  63.968  1.00  0.00    -0.952 N  
ENDROOT
BRANCH   4  19
HETATM   19  C   UNK A   0      -7.337  16.607  68.457  1.00  0.00    -0.201 C  
BRANCH  19  20
HETATM   20  N   UNK A   0      -6.046  15.954  68.180  1.00  0.00    -0.113 NA 
HETATM   21  H   UNK A   0      -5.368  16.367  67.540  1.00  0.00     0.000 HD 
BRANCH  20  22
HETATM   22  C   UNK A   0      -5.790  14.743  68.833  1.00  0.00    -0.086 A  
HETATM   23  C   UNK A   0      -6.031  13.407  70.857  1.00  0.00    -0.038 A  
HETATM   24  C   UNK A   0      -5.587  12.276  70.165  1.00  0.00    -0.141 A  
HETATM   25  C   UNK A   0      -5.232  13.628  68.196  1.00  0.00    -0.108 A  
HETATM   26  C   UNK A   0      -6.120  14.636  70.189  1.00  0.00    -0.158 A  
HETATM   27  C   UNK A   0      -5.136  12.401  68.849  1.00  0.00    -0.055 A  
BRANCH  24  28
HETATM   28  C   UNK A   0      -5.598  10.951  70.829  1.00  0.00    -0.113 C  
ATOM     29  H   GLU A   1      -6.326  10.042  69.084  1.00  0.00     0.000 HD 
ATOM     30  N   GLU A   1      -6.089   9.898  70.066  1.00  0.00    -0.047 N  
HETATM   31  O   UNK A   0      -5.225  10.823  71.987  1.00  0.00    -0.294 OA 
BRANCH  30  32
ATOM     32  CA  GLU A   1      -6.264   8.571  70.685  1.00  0.00    -0.036 C  
ATOM     33  C   GLU A   1      -6.055   7.478  69.620  1.00  0.00    -0.030 C  
ATOM     34  O   GLU A   1      -6.291   7.915  68.357  1.00  0.00    -0.046 OA 
ATOM     35  OXT GLU A   1      -5.856   6.298  69.873  1.00  0.00    -0.017 OA 
BRANCH  32  36
ATOM     36  CB  GLU A   1      -7.669   8.449  71.293  1.00  0.00    -0.110 C  
BRANCH  36  37
ATOM     37  CG  GLU A   1      -8.685   9.398  70.648  1.00  0.00    -0.263 C  
ATOM     38  CD  GLU A   1      -9.515   8.720  69.587  1.00  0.00    -0.170 C  
ATOM     39  OE2 GLU A   1      -9.404   7.553  69.247  1.00  0.00    -0.151 OA 
ATOM     40  OE1 GLU A   1     -10.427   9.558  69.043  1.00  0.00    -0.202 OA 
ENDBRANCH  36  37
ENDBRANCH  32  36
ENDBRANCH  30  32
ENDBRANCH  24  28
ENDBRANCH  20  22
ENDBRANCH  19  20
ENDBRANCH   4  19
TORSDOF 7
ENDMDL
MODEL      168
REMARK 921   NORMALIZED FREE ENERGY PREDICTED BY IDOCK:   -4.72 KCAL/MOL
REMARK 922        TOTAL FREE ENERGY PREDICTED BY IDOCK:   -7.92 KCAL/MOL
REMARK 923 INTER-LIGAND FREE ENERGY PREDICTED BY IDOCK:   -6.76 KCAL/MOL
REMARK 924 INTRA-LIGAND FREE ENERGY PREDICTED BY IDOCK:   -1.16 KCAL/MOL
REMARK 927      BINDING AFFINITY PREDICTED BY RF-SCORE:    0.00 PKD
ROOT
HETATM    1  C   UNK A   0      -9.991   7.026  68.272  1.00  0.00    -0.153 C  
HETATM    2  N   UNK A   0      -9.302   6.941  67.070  1.00  0.00    -0.139 N  
HETATM    3  O   UNK A   0      -9.920   7.936  69.093  1.00  0.00    -0.175 OA 
HETATM    4  C   UNK A   0      -8.344   8.022  66.633  1.00  0.00    -0.120 C  
HETATM    5  C   UNK A   0      -8.569   8.309  65.130  1.00  0.00    -0.105 C  
HETATM    6  C   UNK A   0      -9.690   3.754  64.397  1.00  0.00    -0.180 C  
HETATM    7  H   UNK A   0     -10.776   2.781  65.840  1.00  0.00     0.000 HD 
HETATM    8  N   UNK A   0      -8.449   7.056  64.405  1.00  0.00    -0.339 NA 
HETATM    9  H   UNK A   0      -7.947   7.036  63.518  1.00  0.00     0.000 HD 
HETATM   10  H2  UNK A   0     -10.245   1.826  63.853  1.00  0.00     0.000 HD 
HETATM   11  C   UNK A   0      -9.005   5.887  64.899  1.00  0.00     0.218 C  
HETATM   12  O   UNK A   0     -10.232   4.221  67.787  1.00  0.00     0.019 OA 
HETATM   13  C   UNK A   0      -9.424   5.834  66.193  1.00  0.00    -0.124 C  
HETATM   14  H1  UNK A   0      -9.404   2.808  62.627  1.00  0.00     0.000 HD 
HETATM   15  C   UNK A   0     -10.000   4.521  66.620  1.00  0.00    -0.230 C  
HETATM   16  N   UNK A   0      -9.114   4.843  64.015  1.00  0.00    -0.329 NA 
HETATM   17  N   UNK A   0      -9.796   2.695  63.562  1.00  0.00    -0.118 NA 
HETATM   18  N   UNK A   0     -10.210   3.605  65.637  1.00  0.00    -0.404 N  
ENDROOT
BRANCH   4  19
HETATM   19  C   UNK A   0      -8.372   9.343  67.432  1.00  0.00    -0.125 C  
BRANCH  19  20
HETATM   20  N   UNK A   0      -9.436  10.247  66.963  1.00  0.00    -0.161 NA 
HETATM   21  H   UNK A   0     -10.335   9.888  66.640  1.00  0.00     0.000 HD 
BRANCH  20  22
HETATM   22  C   UNK A   0      -9.162  11.619  66.981  1.00  0.00    -0.183 A  
HETATM   23  C   UNK A   0     -10.011  13.888  66.719  1.00  0.00    -0.269 A  
HETATM   24  C   UNK A   0      -8.820  14.396  67.248  1.00  0.00    -0.225 A  
HETATM   25  C   UNK A   0      -7.935  12.154  67.390  1.00  0.00    -0.168 A  
HETATM   26  C   UNK A   0     -10.171  12.503  66.579  1.00  0.00    -0.255 A  
HETATM   27  C   UNK A   0      -7.762  13.529  67.532  1.00  0.00    -0.182 A  
BRANCH  24  28
HETATM   28  C   UNK A   0      -8.685  15.849  67.508  1.00  0.00    -0.178 C  
ATOM     29  H   GLU A   1      -6.830  15.889  66.531  1.00  0.00     0.000 HD 
ATOM     30  N   GLU A   1      -7.501  16.432  67.075  1.00  0.00    -0.191 N  
HETATM   31  O   UNK A   0      -9.562  16.468  68.097  1.00  0.00    -0.219 OA 
BRANCH  30  32
ATOM     32  CA  GLU A   1      -7.220  17.841  67.408  1.00  0.00    -0.186 C  
ATOM     33  C   GLU A   1      -6.967  18.632  66.110  1.00  0.00    -0.254 C  
ATOM     34  O   GLU A   1      -6.540  17.852  65.087  1.00  0.00    -0.237 OA 
ATOM     35  OXT GLU A   1      -6.988  19.853  66.033  1.00  0.00    -0.240 OA 
BRANCH  32  36
ATOM     36  CB  GLU A   1      -5.992  17.936  68.327  1.00  0.00    -0.172 C  
BRANCH  36  37
ATOM     37  CG  GLU A   1      -6.331  18.463  69.725  1.00  0.00    -0.143 C  
ATOM     38  CD  GLU A   1      -6.040  19.935  69.874  1.00  0.00    -0.336 C  
ATOM     39  OE2 GLU A   1      -5.574  20.651  69.002  1.00  0.00    -0.292 OA 
ATOM     40  OE1 GLU A   1      -6.368  20.397  71.102  1.00  0.00    -0.566 OA 
ENDBRANCH  36  37
ENDBRANCH  32  36
ENDBRANCH  30  32
ENDBRANCH  24  28
ENDBRANCH  20  22
ENDBRANCH  19  20
ENDBRANCH   4  19
TORSDOF 7
ENDMDL
MODEL      169
REMARK 921   NORMALIZED FREE ENERGY PREDICTED BY IDOCK:   -4.71 KCAL/MOL
REMARK 922        TOTAL FREE ENERGY PREDICTED BY IDOCK:   -7.90 KCAL/MOL
REMARK 923 INTER-LIGAND FREE ENERGY PREDICTED BY IDOCK:   -7.02 KCAL/MOL
REMARK 924 INTRA-LIGAND FREE ENERGY PREDICTED BY IDOCK:   -0.89 KCAL/MOL
REMARK 927      BINDING AFFINITY PREDICTED BY RF-SCORE:    0.00 PKD
ROOT
HETATM    1  C   UNK A   0     -10.802  16.290  65.277  1.00  0.00    -0.297 C  
HETATM    2  N   UNK A   0     -10.387  15.886  66.538  1.00  0.00    -0.292 N  
HETATM    3  O   UNK A   0     -11.690  15.781  64.600  1.00  0.00    -0.284 OA 
HETATM    4  C   UNK A   0     -11.028  14.713  67.239  1.00  0.00    -0.317 C  
HETATM    5  C   UNK A   0     -11.257  15.084  68.723  1.00  0.00    -0.277 C  
HETATM    6  C   UNK A   0      -7.339  17.765  68.690  1.00  0.00    -0.269 C  
HETATM    7  H   UNK A   0      -6.922  18.848  66.999  1.00  0.00     0.000 HD 
HETATM    8  N   UNK A   0      -9.989  15.513  69.285  1.00  0.00    -0.246 NA 
HETATM    9  H   UNK A   0      -9.725  15.207  70.222  1.00  0.00     0.000 HD 
HETATM   10  H2  UNK A   0      -5.690  19.014  68.895  1.00  0.00     0.000 HD 
HETATM   11  C   UNK A   0      -9.130  16.333  68.571  1.00  0.00    -0.216 C  
HETATM   12  O   UNK A   0      -8.229  17.530  65.350  1.00  0.00     0.029 OA 
HETATM   13  C   UNK A   0      -9.328  16.518  67.237  1.00  0.00    -0.222 C  
HETATM   14  H1  UNK A   0      -6.217  18.118  70.342  1.00  0.00     0.000 HD 
HETATM   15  C   UNK A   0      -8.337  17.415  66.567  1.00  0.00    -0.273 C  
HETATM   16  N   UNK A   0      -8.124  16.934  69.287  1.00  0.00    -0.069 NA 
HETATM   17  N   UNK A   0      -6.322  18.359  69.356  1.00  0.00    -0.257 NA 
HETATM   18  N   UNK A   0      -7.478  18.084  67.383  1.00  0.00    -0.201 N  
ENDROOT
BRANCH   4  19
HETATM   19  C   UNK A   0     -12.333  14.163  66.626  1.00  0.00    -0.339 C  
BRANCH  19  20
HETATM   20  N   UNK A   0     -12.194  12.760  66.201  1.00  0.00    -0.556 NA 
HETATM   21  H   UNK A   0     -12.477  12.456  65.269  1.00  0.00     0.000 HD 
BRANCH  20  22
HETATM   22  C   UNK A   0     -11.657  11.862  67.130  1.00  0.00    -0.290 A  
HETATM   23  C   UNK A   0     -11.859  10.793  69.311  1.00  0.00    -0.359 A  
HETATM   24  C   UNK A   0     -10.843   9.895  68.967  1.00  0.00    -0.242 A  
HETATM   25  C   UNK A   0     -10.560  11.034  66.857  1.00  0.00    -0.307 A  
HETATM   26  C   UNK A   0     -12.252  11.777  68.395  1.00  0.00     0.122 A  
HETATM   27  C   UNK A   0     -10.158  10.052  67.760  1.00  0.00    -0.222 A  
BRANCH  24  28
HETATM   28  C   UNK A   0     -10.499   8.781  69.881  1.00  0.00    -0.221 C  
ATOM     29  H   GLU A   1      -8.583   8.634  69.042  1.00  0.00     0.000 HD 
ATOM     30  N   GLU A   1      -9.241   8.220  69.702  1.00  0.00    -0.157 N  
HETATM   31  O   UNK A   0     -11.303   8.376  70.711  1.00  0.00    -0.266 OA 
BRANCH  30  32
ATOM     32  CA  GLU A   1      -8.863   7.021  70.474  1.00  0.00    -0.154 C  
ATOM     33  C   GLU A   1      -7.327   6.917  70.536  1.00  0.00    -0.077 C  
ATOM     34  O   GLU A   1      -6.709   7.553  69.510  1.00  0.00    -0.039 OA 
ATOM     35  OXT GLU A   1      -6.717   6.209  71.325  1.00  0.00    -0.052 OA 
BRANCH  32  36
ATOM     36  CB  GLU A   1      -9.447   5.760  69.817  1.00  0.00    -0.183 C  
BRANCH  36  37
ATOM     37  CG  GLU A   1      -9.835   4.681  70.834  1.00  0.00    -0.272 C  
ATOM     38  CD  GLU A   1      -8.903   3.497  70.803  1.00  0.00    -0.081 C  
ATOM     39  OE2 GLU A   1      -7.946   3.375  70.054  1.00  0.00    -0.046 OA 
ATOM     40  OE1 GLU A   1      -9.236   2.562  71.722  1.00  0.00    -0.083 OA 
ENDBRANCH  36  37
ENDBRANCH  32  36
ENDBRANCH  30  32
ENDBRANCH  24  28
ENDBRANCH  20  22
ENDBRANCH  19  20
ENDBRANCH   4  19
TORSDOF 7
ENDMDL
MODEL      170
REMARK 921   NORMALIZED FREE ENERGY PREDICTED BY IDOCK:   -4.70 KCAL/MOL
REMARK 922        TOTAL FREE ENERGY PREDICTED BY IDOCK:   -7.90 KCAL/MOL
REMARK 923 INTER-LIGAND FREE ENERGY PREDICTED BY IDOCK:   -7.05 KCAL/MOL
REMARK 924 INTRA-LIGAND FREE ENERGY PREDICTED BY IDOCK:   -0.85 KCAL/MOL
REMARK 927      BINDING AFFINITY PREDICTED BY RF-SCORE:    0.00 PKD
ROOT
HETATM    1  C   UNK A   0     -10.475  13.313  64.948  1.00  0.00    -0.371 C  
HETATM    2  N   UNK A   0     -10.012  13.131  66.243  1.00  0.00    -0.281 N  
HETATM    3  O   UNK A   0     -10.177  12.643  63.963  1.00  0.00    -0.397 OA 
HETATM    4  C   UNK A   0      -9.043  12.026  66.586  1.00  0.00    -0.205 C  
HETATM    5  C   UNK A   0      -9.492  11.361  67.908  1.00  0.00    -0.174 C  
HETATM    6  C   UNK A   0     -11.158  15.523  69.471  1.00  0.00    -0.286 C  
HETATM    7  H   UNK A   0     -12.071  16.769  68.121  1.00  0.00     0.000 HD 
HETATM    8  N   UNK A   0      -9.619  12.398  68.917  1.00  0.00    -0.403 NA 
HETATM    9  H   UNK A   0      -9.280  12.221  69.863  1.00  0.00     0.000 HD 
HETATM   10  H2  UNK A   0     -11.981  17.222  70.341  1.00  0.00     0.000 HD 
HETATM   11  C   UNK A   0     -10.193  13.623  68.618  1.00  0.00    -0.197 C  
HETATM   12  O   UNK A   0     -11.065  15.892  66.027  1.00  0.00    -0.195 OA 
HETATM   13  C   UNK A   0     -10.389  13.976  67.318  1.00  0.00    -0.264 C  
HETATM   14  H1  UNK A   0     -11.271  16.011  71.436  1.00  0.00     0.000 HD 
HETATM   15  C   UNK A   0     -11.007  15.322  67.113  1.00  0.00    -0.331 C  
HETATM   16  N   UNK A   0     -10.553  14.405  69.687  1.00  0.00    -0.446 NA 
HETATM   17  N   UNK A   0     -11.506  16.333  70.497  1.00  0.00    -0.493 NA 
HETATM   18  N   UNK A   0     -11.470  15.951  68.227  1.00  0.00    -0.352 N  
ENDROOT
BRANCH   4  19
HETATM   19  C   UNK A   0      -8.807  10.947  65.507  1.00  0.00    -0.188 C  
BRANCH  19  20
HETATM   20  N   UNK A   0      -9.840   9.899  65.541  1.00  0.00    -0.302 NA 
HETATM   21  H   UNK A   0     -10.742  10.026  65.082  1.00  0.00     0.000 HD 
BRANCH  20  22
HETATM   22  C   UNK A   0      -9.532   8.721  66.231  1.00  0.00    -0.234 A  
HETATM   23  C   UNK A   0      -7.826   7.111  66.890  1.00  0.00    -0.107 A  
HETATM   24  C   UNK A   0      -8.722   6.528  67.792  1.00  0.00    -0.115 A  
HETATM   25  C   UNK A   0     -10.447   8.045  67.047  1.00  0.00    -0.410 A  
HETATM   26  C   UNK A   0      -8.240   8.197  66.107  1.00  0.00    -0.117 A  
HETATM   27  C   UNK A   0     -10.049   6.963  67.829  1.00  0.00    -0.199 A  
BRANCH  24  28
HETATM   28  C   UNK A   0      -8.261   5.455  68.705  1.00  0.00    -0.094 C  
ATOM     29  H   GLU A   1     -10.219   5.147  69.391  1.00  0.00     0.000 HD 
ATOM     30  N   GLU A   1      -9.239   4.888  69.512  1.00  0.00    -0.111 N  
HETATM   31  O   UNK A   0      -7.082   5.130  68.750  1.00  0.00    -0.055 OA 
BRANCH  30  32
ATOM     32  CA  GLU A   1      -8.852   3.910  70.546  1.00  0.00    -0.081 C  
ATOM     33  C   GLU A   1      -9.090   2.484  70.014  1.00  0.00    -0.113 C  
ATOM     34  O   GLU A   1     -10.031   2.430  69.038  1.00  0.00     0.238 OA 
ATOM     35  OXT GLU A   1      -8.612   1.474  70.512  1.00  0.00    -0.048 OA 
BRANCH  32  36
ATOM     36  CB  GLU A   1      -9.672   4.135  71.825  1.00  0.00    -0.245 C  
BRANCH  36  37
ATOM     37  CG  GLU A   1      -8.801   4.438  73.049  1.00  0.00    -0.116 C  
ATOM     38  CD  GLU A   1      -8.785   5.904  73.399  1.00  0.00    -0.120 C  
ATOM     39  OE2 GLU A   1      -9.376   6.779  72.787  1.00  0.00    -0.136 OA 
ATOM     40  OE1 GLU A   1      -8.036   6.157  74.497  1.00  0.00    -0.101 OA 
ENDBRANCH  36  37
ENDBRANCH  32  36
ENDBRANCH  30  32
ENDBRANCH  24  28
ENDBRANCH  20  22
ENDBRANCH  19  20
ENDBRANCH   4  19
TORSDOF 7
ENDMDL
MODEL      171
REMARK 921   NORMALIZED FREE ENERGY PREDICTED BY IDOCK:   -4.67 KCAL/MOL
REMARK 922        TOTAL FREE ENERGY PREDICTED BY IDOCK:   -7.85 KCAL/MOL
REMARK 923 INTER-LIGAND FREE ENERGY PREDICTED BY IDOCK:   -7.74 KCAL/MOL
REMARK 924 INTRA-LIGAND FREE ENERGY PREDICTED BY IDOCK:   -0.11 KCAL/MOL
REMARK 927      BINDING AFFINITY PREDICTED BY RF-SCORE:    0.00 PKD
ROOT
HETATM    1  C   UNK A   0      -8.766   6.320  67.248  1.00  0.00    -0.105 C  
HETATM    2  N   UNK A   0      -8.026   7.449  67.570  1.00  0.00    -0.112 N  
HETATM    3  O   UNK A   0      -9.141   5.985  66.129  1.00  0.00    -0.150 OA 
HETATM    4  C   UNK A   0      -7.585   8.430  66.511  1.00  0.00    -0.088 C  
HETATM    5  C   UNK A   0      -6.116   8.830  66.783  1.00  0.00    -0.058 C  
HETATM    6  C   UNK A   0      -6.835   8.410  71.457  1.00  0.00    -0.073 C  
HETATM    7  H   UNK A   0      -8.042   6.889  72.118  1.00  0.00     0.000 HD 
HETATM    8  N   UNK A   0      -6.024   9.320  68.147  1.00  0.00    -0.041 NA 
HETATM    9  H   UNK A   0      -5.458  10.145  68.346  1.00  0.00     0.000 HD 
HETATM   10  H2  UNK A   0      -6.911   8.257  73.529  1.00  0.00     0.000 HD 
HETATM   11  C   UNK A   0      -6.691   8.686  69.182  1.00  0.00    -0.047 C  
HETATM   12  O   UNK A   0      -9.343   6.483  70.042  1.00  0.00    -0.156 OA 
HETATM   13  C   UNK A   0      -7.661   7.773  68.901  1.00  0.00    -0.101 C  
HETATM   14  H1  UNK A   0      -5.796   9.464  72.843  1.00  0.00     0.000 HD 
HETATM   15  C   UNK A   0      -8.319   7.158  70.095  1.00  0.00    -0.137 C  
HETATM   16  N   UNK A   0      -6.300   9.021  70.455  1.00  0.00    -0.043 NA 
HETATM   17  N   UNK A   0      -6.493   8.729  72.727  1.00  0.00    -0.260 NA 
HETATM   18  N   UNK A   0      -7.758   7.434  71.304  1.00  0.00    -0.086 N  
ENDROOT
BRANCH   4  19
HETATM   19  C   UNK A   0      -7.747   7.987  65.041  1.00  0.00    -0.112 C  
BRANCH  19  20
HETATM   20  N   UNK A   0      -8.971   8.535  64.433  1.00  0.00    -0.366 NA 
HETATM   21  H   UNK A   0      -9.461   8.043  63.686  1.00  0.00     0.000 HD 
BRANCH  20  22
HETATM   22  C   UNK A   0      -9.435   9.761  64.924  1.00  0.00    -0.265 A  
HETATM   23  C   UNK A   0      -9.958  12.096  64.463  1.00  0.00    -0.231 A  
HETATM   24  C   UNK A   0     -10.598  12.199  65.702  1.00  0.00    -0.297 A  
HETATM   25  C   UNK A   0      -9.970   9.924  66.208  1.00  0.00    -0.322 A  
HETATM   26  C   UNK A   0      -9.371  10.881  64.086  1.00  0.00    -0.264 A  
HETATM   27  C   UNK A   0     -10.555  11.127  66.596  1.00  0.00    -0.314 A  
BRANCH  24  28
HETATM   28  C   UNK A   0     -11.319  13.443  66.061  1.00  0.00    -0.309 C  
ATOM     29  H   GLU A   1      -9.900  13.884  67.541  1.00  0.00     0.000 HD 
ATOM     30  N   GLU A   1     -10.786  14.165  67.121  1.00  0.00    -0.279 N  
HETATM   31  O   UNK A   0     -12.337  13.775  65.468  1.00  0.00    -0.415 OA 
BRANCH  30  32
ATOM     32  CA  GLU A   1     -11.510  15.343  67.637  1.00  0.00    -0.251 C  
ATOM     33  C   GLU A   1     -10.528  16.520  67.791  1.00  0.00    -0.308 C  
ATOM     34  O   GLU A   1      -9.241  16.121  67.947  1.00  0.00    -0.198 OA 
ATOM     35  OXT GLU A   1     -10.868  17.687  67.921  1.00  0.00    -0.374 OA 
BRANCH  32  36
ATOM     36  CB  GLU A   1     -12.156  15.018  68.992  1.00  0.00    -0.243 C  
BRANCH  36  37
ATOM     37  CG  GLU A   1     -11.559  15.825  70.149  1.00  0.00    -0.364 C  
ATOM     38  CD  GLU A   1     -12.400  15.755  71.398  1.00  0.00    -0.448 C  
ATOM     39  OE2 GLU A   1     -13.452  15.144  71.503  1.00  0.00    -0.389 OA 
ATOM     40  OE1 GLU A   1     -11.851  16.448  72.422  1.00  0.00    -0.533 OA 
ENDBRANCH  36  37
ENDBRANCH  32  36
ENDBRANCH  30  32
ENDBRANCH  24  28
ENDBRANCH  20  22
ENDBRANCH  19  20
ENDBRANCH   4  19
TORSDOF 7
ENDMDL
MODEL      172
REMARK 921   NORMALIZED FREE ENERGY PREDICTED BY IDOCK:   -4.64 KCAL/MOL
REMARK 922        TOTAL FREE ENERGY PREDICTED BY IDOCK:   -7.81 KCAL/MOL
REMARK 923 INTER-LIGAND FREE ENERGY PREDICTED BY IDOCK:   -6.71 KCAL/MOL
REMARK 924 INTRA-LIGAND FREE ENERGY PREDICTED BY IDOCK:   -1.10 KCAL/MOL
REMARK 927      BINDING AFFINITY PREDICTED BY RF-SCORE:    0.00 PKD
ROOT
HETATM    1  C   UNK A   0     -10.047  14.145  67.744  1.00  0.00    -0.239 C  
HETATM    2  N   UNK A   0      -9.774  13.013  66.988  1.00  0.00    -0.229 N  
HETATM    3  O   UNK A   0      -9.404  14.556  68.705  1.00  0.00    -0.204 OA 
HETATM    4  C   UNK A   0      -8.590  12.129  67.294  1.00  0.00    -0.180 C  
HETATM    5  C   UNK A   0      -7.896  11.746  65.966  1.00  0.00     0.429 C  
HETATM    6  C   UNK A   0     -12.087  11.784  63.734  1.00  0.00    -0.358 C  
HETATM    7  H   UNK A   0     -13.454  13.217  64.266  1.00  0.00     0.000 HD 
HETATM    8  N   UNK A   0      -8.891  11.154  65.089  1.00  0.00    -0.366 NA 
HETATM    9  H   UNK A   0      -8.648  10.331  64.538  1.00  0.00     0.000 HD 
HETATM   10  H2  UNK A   0     -13.796  11.774  62.552  1.00  0.00     0.000 HD 
HETATM   11  C   UNK A   0     -10.166  11.688  64.987  1.00  0.00    -0.275 C  
HETATM   12  O   UNK A   0     -12.607  13.750  66.539  1.00  0.00    -0.362 OA 
HETATM   13  C   UNK A   0     -10.592  12.596  65.908  1.00  0.00    -0.273 C  
HETATM   14  H1  UNK A   0     -12.489  10.652  62.101  1.00  0.00     0.000 HD 
HETATM   15  C   UNK A   0     -11.985  13.099  65.705  1.00  0.00    -0.415 C  
HETATM   16  N   UNK A   0     -10.921  11.266  63.921  1.00  0.00    -0.489 NA 
HETATM   17  N   UNK A   0     -12.870  11.376  62.709  1.00  0.00    -0.630 NA 
HETATM   18  N   UNK A   0     -12.593  12.745  64.540  1.00  0.00    -0.659 N  
ENDROOT
BRANCH   4  19
HETATM   19  C   UNK A   0      -7.548  12.680  68.292  1.00  0.00    -0.133 C  
BRANCH  19  20
HETATM   20  N   UNK A   0      -6.359  11.816  68.380  1.00  0.00    -0.050 NA 
HETATM   21  H   UNK A   0      -5.439  12.146  68.089  1.00  0.00     0.000 HD 
BRANCH  20  22
HETATM   22  C   UNK A   0      -6.545  10.523  68.881  1.00  0.00    -0.054 A  
HETATM   23  C   UNK A   0      -7.818   9.047  70.344  1.00  0.00    -0.121 A  
HETATM   24  C   UNK A   0      -7.205   7.935  69.760  1.00  0.00    -0.066 A  
HETATM   25  C   UNK A   0      -5.855   9.403  68.399  1.00  0.00    -0.041 A  
HETATM   26  C   UNK A   0      -7.477  10.335  69.909  1.00  0.00    -0.165 A  
HETATM   27  C   UNK A   0      -6.183   8.118  68.825  1.00  0.00    -0.044 A  
BRANCH  24  28
HETATM   28  C   UNK A   0      -7.641   6.568  70.132  1.00  0.00    -0.096 C  
ATOM     29  H   GLU A   1      -7.301   5.888  68.177  1.00  0.00     0.000 HD 
ATOM     30  N   GLU A   1      -7.661   5.640  69.099  1.00  0.00    -0.087 N  
HETATM   31  O   UNK A   0      -7.987   6.307  71.276  1.00  0.00    -0.112 OA 
BRANCH  30  32
ATOM     32  CA  GLU A   1      -8.208   4.291  69.344  1.00  0.00    -0.062 C  
ATOM     33  C   GLU A   1      -7.558   3.291  68.370  1.00  0.00    -0.056 C  
ATOM     34  O   GLU A   1      -7.094   3.877  67.238  1.00  0.00    -0.061 OA 
ATOM     35  OXT GLU A   1      -7.589   2.076  68.508  1.00  0.00    -0.049 OA 
BRANCH  32  36
ATOM     36  CB  GLU A   1      -9.733   4.294  69.153  1.00  0.00    -0.226 C  
BRANCH  36  37
ATOM     37  CG  GLU A   1     -10.178   5.044  67.893  1.00  0.00    -0.147 C  
ATOM     38  CD  GLU A   1     -10.859   6.351  68.209  1.00  0.00    -0.309 C  
ATOM     39  OE2 GLU A   1     -11.063   6.784  69.332  1.00  0.00    -0.268 OA 
ATOM     40  OE1 GLU A   1     -11.224   7.019  67.091  1.00  0.00    -0.315 OA 
ENDBRANCH  36  37
ENDBRANCH  32  36
ENDBRANCH  30  32
ENDBRANCH  24  28
ENDBRANCH  20  22
ENDBRANCH  19  20
ENDBRANCH   4  19
TORSDOF 7
ENDMDL
MODEL      173
REMARK 921   NORMALIZED FREE ENERGY PREDICTED BY IDOCK:   -4.63 KCAL/MOL
REMARK 922        TOTAL FREE ENERGY PREDICTED BY IDOCK:   -7.79 KCAL/MOL
REMARK 923 INTER-LIGAND FREE ENERGY PREDICTED BY IDOCK:   -6.80 KCAL/MOL
REMARK 924 INTRA-LIGAND FREE ENERGY PREDICTED BY IDOCK:   -0.99 KCAL/MOL
REMARK 927      BINDING AFFINITY PREDICTED BY RF-SCORE:    0.00 PKD
ROOT
HETATM    1  C   UNK A   0      -8.441  17.896  66.459  1.00  0.00    -0.258 C  
HETATM    2  N   UNK A   0      -7.588  17.555  67.500  1.00  0.00    -0.194 N  
HETATM    3  O   UNK A   0      -8.999  17.123  65.686  1.00  0.00    -0.491 OA 
HETATM    4  C   UNK A   0      -7.248  16.115  67.799  1.00  0.00    -0.138 C  
HETATM    5  C   UNK A   0      -7.296  15.900  69.330  1.00  0.00    -0.221 C  
HETATM    6  C   UNK A   0      -5.789  20.347  70.033  1.00  0.00    -0.352 C  
HETATM    7  H   UNK A   0      -6.484  21.814  68.779  1.00  0.00     0.000 HD 
HETATM    8  N   UNK A   0      -6.421  16.877  69.954  1.00  0.00    -0.105 NA 
HETATM    9  H   UNK A   0      -5.820  16.591  70.726  1.00  0.00     0.000 HD 
HETATM   10  H2  UNK A   0      -5.174  22.257  70.576  1.00  0.00     0.000 HD 
HETATM   11  C   UNK A   0      -6.390  18.192  69.517  1.00  0.00    -0.220 C  
HETATM   12  O   UNK A   0      -7.128  20.405  66.838  1.00  0.00    -0.250 OA 
HETATM   13  C   UNK A   0      -6.962  18.521  68.327  1.00  0.00    -0.249 C  
HETATM   14  H1  UNK A   0      -4.731  20.919  71.666  1.00  0.00     0.000 HD 
HETATM   15  C   UNK A   0      -6.862  19.966  67.953  1.00  0.00    -0.261 C  
HETATM   16  N   UNK A   0      -5.784  19.097  70.352  1.00  0.00    -0.237 NA 
HETATM   17  N   UNK A   0      -5.181  21.266  70.819  1.00  0.00    -0.543 NA 
HETATM   18  N   UNK A   0      -6.386  20.807  68.911  1.00  0.00    -0.224 N  
ENDROOT
BRANCH   4  19
HETATM   19  C   UNK A   0      -8.094  15.037  67.089  1.00  0.00    -0.214 C  
BRANCH  19  20
HETATM   20  N   UNK A   0      -7.321  13.811  66.830  1.00  0.00    -0.280 NA 
HETATM   21  H   UNK A   0      -6.549  13.800  66.163  1.00  0.00     0.000 HD 
BRANCH  20  22
HETATM   22  C   UNK A   0      -7.688  12.663  67.539  1.00  0.00    -0.161 A  
HETATM   23  C   UNK A   0      -6.966  10.690  68.776  1.00  0.00    -0.068 A  
HETATM   24  C   UNK A   0      -8.279  10.480  69.210  1.00  0.00    -0.151 A  
HETATM   25  C   UNK A   0      -9.011  12.360  67.884  1.00  0.00    -0.184 A  
HETATM   26  C   UNK A   0      -6.681  11.774  67.935  1.00  0.00    -0.072 A  
HETATM   27  C   UNK A   0      -9.309  11.285  68.719  1.00  0.00    -0.136 A  
BRANCH  24  28
HETATM   28  C   UNK A   0      -8.572   9.407  70.190  1.00  0.00    -0.212 C  
ATOM     29  H   GLU A   1      -6.873   8.338  69.582  1.00  0.00     0.000 HD 
ATOM     30  N   GLU A   1      -7.704   8.322  70.173  1.00  0.00    -0.082 N  
HETATM   31  O   UNK A   0      -9.542   9.479  70.932  1.00  0.00    -0.251 OA 
BRANCH  30  32
ATOM     32  CA  GLU A   1      -7.993   7.147  71.017  1.00  0.00    -0.103 C  
ATOM     33  C   GLU A   1      -6.831   6.930  72.005  1.00  0.00    -0.058 C  
ATOM     34  O   GLU A   1      -5.658   7.452  71.569  1.00  0.00    -0.035 OA 
ATOM     35  OXT GLU A   1      -6.899   6.227  73.004  1.00  0.00    -0.073 OA 
BRANCH  32  36
ATOM     36  CB  GLU A   1      -8.178   5.898  70.143  1.00  0.00    -0.118 C  
BRANCH  36  37
ATOM     37  CG  GLU A   1      -8.853   6.201  68.801  1.00  0.00    -0.121 C  
ATOM     38  CD  GLU A   1     -10.308   5.806  68.784  1.00  0.00    -0.224 C  
ATOM     39  OE2 GLU A   1     -10.907   5.288  69.712  1.00  0.00    -0.235 OA 
ATOM     40  OE1 GLU A   1     -10.902   6.102  67.605  1.00  0.00    -0.282 OA 
ENDBRANCH  36  37
ENDBRANCH  32  36
ENDBRANCH  30  32
ENDBRANCH  24  28
ENDBRANCH  20  22
ENDBRANCH  19  20
ENDBRANCH   4  19
TORSDOF 7
ENDMDL
MODEL      174
REMARK 921   NORMALIZED FREE ENERGY PREDICTED BY IDOCK:   -4.57 KCAL/MOL
REMARK 922        TOTAL FREE ENERGY PREDICTED BY IDOCK:   -7.71 KCAL/MOL
REMARK 923 INTER-LIGAND FREE ENERGY PREDICTED BY IDOCK:   -6.95 KCAL/MOL
REMARK 924 INTRA-LIGAND FREE ENERGY PREDICTED BY IDOCK:   -0.76 KCAL/MOL
REMARK 927      BINDING AFFINITY PREDICTED BY RF-SCORE:    0.00 PKD
ROOT
HETATM    1  C   UNK A   0      -8.656  17.271  66.344  1.00  0.00    -0.259 C  
HETATM    2  N   UNK A   0      -7.743  17.016  67.358  1.00  0.00    -0.166 N  
HETATM    3  O   UNK A   0      -9.219  16.437  65.640  1.00  0.00    -0.465 OA 
HETATM    4  C   UNK A   0      -7.332  15.608  67.714  1.00  0.00    -0.150 C  
HETATM    5  C   UNK A   0      -7.300  15.472  69.254  1.00  0.00    -0.202 C  
HETATM    6  C   UNK A   0      -5.937  20.002  69.655  1.00  0.00    -0.335 C  
HETATM    7  H   UNK A   0      -6.747  21.374  68.363  1.00  0.00     0.000 HD 
HETATM    8  N   UNK A   0      -6.436  16.512  69.784  1.00  0.00    -0.199 NA 
HETATM    9  H   UNK A   0      -5.788  16.290  70.539  1.00  0.00     0.000 HD 
HETATM   10  H2  UNK A   0      -5.373  21.959  70.069  1.00  0.00     0.000 HD 
HETATM   11  C   UNK A   0      -6.477  17.802  69.280  1.00  0.00    -0.244 C  
HETATM   12  O   UNK A   0      -7.426  19.843  66.531  1.00  0.00    -0.252 OA 
HETATM   13  C   UNK A   0      -7.117  18.047  68.104  1.00  0.00    -0.230 C  
HETATM   14  H1  UNK A   0      -4.827  20.698  71.203  1.00  0.00     0.000 HD 
HETATM   15  C   UNK A   0      -7.091  19.472  67.652  1.00  0.00    -0.233 C  
HETATM   16  N   UNK A   0      -5.868  18.772  70.037  1.00  0.00    -0.251 NA 
HETATM   17  N   UNK A   0      -5.330  20.983  70.362  1.00  0.00    -0.569 NA 
HETATM   18  N   UNK A   0      -6.605  20.380  68.541  1.00  0.00    -0.290 N  
ENDROOT
BRANCH   4  19
HETATM   19  C   UNK A   0      -8.169  14.463  67.101  1.00  0.00    -0.178 C  
BRANCH  19  20
HETATM   20  N   UNK A   0      -7.336  13.302  66.747  1.00  0.00    -0.161 NA 
HETATM   21  H   UNK A   0      -6.556  13.386  66.094  1.00  0.00     0.000 HD 
BRANCH  20  22
HETATM   22  C   UNK A   0      -7.659  12.078  67.343  1.00  0.00    -0.151 A  
HETATM   23  C   UNK A   0      -7.678   9.647  67.169  1.00  0.00    -0.091 A  
HETATM   24  C   UNK A   0      -8.003   9.551  68.526  1.00  0.00    -0.093 A  
HETATM   25  C   UNK A   0      -8.105  11.959  68.665  1.00  0.00    -0.086 A  
HETATM   26  C   UNK A   0      -7.518  10.910  66.583  1.00  0.00    -0.139 A  
HETATM   27  C   UNK A   0      -8.269  10.710  69.259  1.00  0.00    -0.122 A  
BRANCH  24  28
HETATM   28  C   UNK A   0      -8.061   8.223  69.181  1.00  0.00    -0.120 C  
ATOM     29  H   GLU A   1      -9.467   7.551  67.778  1.00  0.00     0.000 HD 
ATOM     30  N   GLU A   1      -8.964   7.320  68.634  1.00  0.00    -0.129 N  
HETATM   31  O   UNK A   0      -7.372   7.973  70.161  1.00  0.00    -0.059 OA 
BRANCH  30  32
ATOM     32  CA  GLU A   1      -9.188   6.022  69.299  1.00  0.00    -0.127 C  
ATOM     33  C   GLU A   1      -9.483   4.947  68.237  1.00  0.00    -0.138 C  
ATOM     34  O   GLU A   1      -9.983   5.461  67.085  1.00  0.00    -0.144 OA 
ATOM     35  OXT GLU A   1      -9.432   3.742  68.443  1.00  0.00    -0.164 OA 
BRANCH  32  36
ATOM     36  CB  GLU A   1     -10.365   6.126  70.282  1.00  0.00    -0.270 C  
BRANCH  36  37
ATOM     37  CG  GLU A   1     -10.328   5.054  71.376  1.00  0.00    -0.251 C  
ATOM     38  CD  GLU A   1     -11.293   5.341  72.499  1.00  0.00    -0.179 C  
ATOM     39  OE2 GLU A   1     -12.024   6.316  72.565  1.00  0.00    -0.223 OA 
ATOM     40  OE1 GLU A   1     -11.272   4.376  73.446  1.00  0.00    -0.282 OA 
ENDBRANCH  36  37
ENDBRANCH  32  36
ENDBRANCH  30  32
ENDBRANCH  24  28
ENDBRANCH  20  22
ENDBRANCH  19  20
ENDBRANCH   4  19
TORSDOF 7
ENDMDL
MODEL      175
REMARK 921   NORMALIZED FREE ENERGY PREDICTED BY IDOCK:   -4.56 KCAL/MOL
REMARK 922        TOTAL FREE ENERGY PREDICTED BY IDOCK:   -7.69 KCAL/MOL
REMARK 923 INTER-LIGAND FREE ENERGY PREDICTED BY IDOCK:   -6.59 KCAL/MOL
REMARK 924 INTRA-LIGAND FREE ENERGY PREDICTED BY IDOCK:   -1.11 KCAL/MOL
REMARK 927      BINDING AFFINITY PREDICTED BY RF-SCORE:    0.00 PKD
ROOT
HETATM    1  C   UNK A   0     -11.717   9.471  69.957  1.00  0.00     0.018 C  
HETATM    2  N   UNK A   0     -11.125   8.219  69.860  1.00  0.00    -0.416 N  
HETATM    3  O   UNK A   0     -11.843  10.293  69.054  1.00  0.00    -0.101 OA 
HETATM    4  C   UNK A   0     -10.548   7.719  68.558  1.00  0.00    -0.114 C  
HETATM    5  C   UNK A   0     -10.959   6.241  68.365  1.00  0.00    -0.325 C  
HETATM    6  C   UNK A   0     -10.801   5.554  73.061  1.00  0.00    -0.274 C  
HETATM    7  H   UNK A   0     -11.454   7.067  74.282  1.00  0.00     0.000 HD 
HETATM    8  N   UNK A   0     -10.546   5.498  69.543  1.00  0.00    -0.306 NA 
HETATM    9  H   UNK A   0     -10.128   4.574  69.432  1.00  0.00     0.000 HD 
HETATM   10  H2  UNK A   0     -10.829   5.037  75.074  1.00  0.00     0.000 HD 
HETATM   11  C   UNK A   0     -10.710   6.022  70.815  1.00  0.00    -0.276 C  
HETATM   12  O   UNK A   0     -11.191   8.980  72.722  1.00  0.00     0.248 OA 
HETATM   13  C   UNK A   0     -10.996   7.344  70.968  1.00  0.00    -0.251 C  
HETATM   14  H1  UNK A   0     -10.396   3.759  73.911  1.00  0.00     0.000 HD 
HETATM   15  C   UNK A   0     -11.144   7.801  72.384  1.00  0.00    -0.323 C  
HETATM   16  N   UNK A   0     -10.587   5.139  71.859  1.00  0.00    -0.213 NA 
HETATM   17  N   UNK A   0     -10.667   4.720  74.118  1.00  0.00    -0.296 NA 
HETATM   18  N   UNK A   0     -11.161   6.829  73.335  1.00  0.00    -0.492 N  
ENDROOT
BRANCH   4  19
HETATM   19  C   UNK A   0     -10.888   8.530  67.289  1.00  0.00    -0.006 C  
BRANCH  19  20
HETATM   20  N   UNK A   0      -9.740   8.623  66.371  1.00  0.00    -0.249 NA 
HETATM   21  H   UNK A   0      -9.551   7.897  65.681  1.00  0.00     0.000 HD 
BRANCH  20  22
HETATM   22  C   UNK A   0      -8.919   9.751  66.487  1.00  0.00    -0.150 A  
HETATM   23  C   UNK A   0      -8.714  12.083  67.165  1.00  0.00    -0.183 A  
HETATM   24  C   UNK A   0      -7.324  12.001  67.029  1.00  0.00    -0.097 A  
HETATM   25  C   UNK A   0      -7.541   9.730  66.239  1.00  0.00    -0.100 A  
HETATM   26  C   UNK A   0      -9.504  10.960  66.883  1.00  0.00    -0.198 A  
HETATM   27  C   UNK A   0      -6.745  10.840  66.514  1.00  0.00    -0.126 A  
BRANCH  24  28
HETATM   28  C   UNK A   0      -6.473  13.145  67.433  1.00  0.00    -0.068 C  
ATOM     29  H   GLU A   1      -8.164  14.265  67.964  1.00  0.00     0.000 HD 
ATOM     30  N   GLU A   1      -7.150  14.281  67.857  1.00  0.00    -0.141 N  
HETATM   31  O   UNK A   0      -5.253  13.079  67.359  1.00  0.00    -0.296 OA 
BRANCH  30  32
ATOM     32  CA  GLU A   1      -6.392  15.513  68.150  1.00  0.00    -0.125 C  
ATOM     33  C   GLU A   1      -6.076  15.571  69.657  1.00  0.00    -0.150 C  
ATOM     34  O   GLU A   1      -6.947  14.855  70.411  1.00  0.00    -0.051 OA 
ATOM     35  OXT GLU A   1      -5.235  16.306  70.156  1.00  0.00    -0.146 OA 
BRANCH  32  36
ATOM     36  CB  GLU A   1      -7.206  16.749  67.736  1.00  0.00    -0.152 C  
BRANCH  36  37
ATOM     37  CG  GLU A   1      -8.692  16.634  68.090  1.00  0.00    -0.201 C  
ATOM     38  CD  GLU A   1      -9.586  16.767  66.884  1.00  0.00    -0.245 C  
ATOM     39  OE2 GLU A   1      -9.200  16.961  65.742  1.00  0.00    -0.527 OA 
ATOM     40  OE1 GLU A   1     -10.894  16.637  67.202  1.00  0.00    -0.253 OA 
ENDBRANCH  36  37
ENDBRANCH  32  36
ENDBRANCH  30  32
ENDBRANCH  24  28
ENDBRANCH  20  22
ENDBRANCH  19  20
ENDBRANCH   4  19
TORSDOF 7
ENDMDL
MODEL      176
REMARK 921   NORMALIZED FREE ENERGY PREDICTED BY IDOCK:   -4.52 KCAL/MOL
REMARK 922        TOTAL FREE ENERGY PREDICTED BY IDOCK:   -7.64 KCAL/MOL
REMARK 923 INTER-LIGAND FREE ENERGY PREDICTED BY IDOCK:   -7.23 KCAL/MOL
REMARK 924 INTRA-LIGAND FREE ENERGY PREDICTED BY IDOCK:   -0.41 KCAL/MOL
REMARK 927      BINDING AFFINITY PREDICTED BY RF-SCORE:    0.00 PKD
ROOT
HETATM    1  C   UNK A   0     -10.444  17.102  69.659  1.00  0.00    -0.022 C  
HETATM    2  N   UNK A   0      -9.926  16.775  68.414  1.00  0.00    -0.255 N  
HETATM    3  O   UNK A   0     -11.163  16.397  70.361  1.00  0.00    -0.378 OA 
HETATM    4  C   UNK A   0     -10.215  15.443  67.765  1.00  0.00    -0.241 C  
HETATM    5  C   UNK A   0      -8.908  14.896  67.147  1.00  0.00    -0.217 C  
HETATM    6  C   UNK A   0      -7.477  19.319  66.181  1.00  0.00    -0.278 C  
HETATM    7  H   UNK A   0      -7.900  20.792  67.544  1.00  0.00     0.000 HD 
HETATM    8  N   UNK A   0      -8.370  15.907  66.253  1.00  0.00    -0.320 NA 
HETATM    9  H   UNK A   0      -7.985  15.626  65.352  1.00  0.00     0.000 HD 
HETATM   10  H2  UNK A   0      -6.638  21.158  65.696  1.00  0.00     0.000 HD 
HETATM   11  C   UNK A   0      -8.371  17.247  66.605  1.00  0.00    -0.257 C  
HETATM   12  O   UNK A   0      -9.815  19.721  68.706  1.00  0.00    -0.396 OA 
HETATM   13  C   UNK A   0      -9.124  17.667  67.659  1.00  0.00    -0.241 C  
HETATM   14  H1  UNK A   0      -6.233  19.777  64.647  1.00  0.00     0.000 HD 
HETATM   15  C   UNK A   0      -9.055  19.134  67.942  1.00  0.00    -0.302 C  
HETATM   16  N   UNK A   0      -7.573  18.075  65.855  1.00  0.00    -0.526 NA 
HETATM   17  N   UNK A   0      -6.720  20.171  65.452  1.00  0.00    -0.286 NA 
HETATM   18  N   UNK A   0      -8.121  19.841  67.250  1.00  0.00    -0.281 N  
ENDROOT
BRANCH   4  19
HETATM   19  C   UNK A   0     -10.870  14.364  68.654  1.00  0.00    -0.251 C  
BRANCH  19  20
HETATM   20  N   UNK A   0     -11.608  13.369  67.858  1.00  0.00    -0.317 NA 
HETATM   21  H   UNK A   0     -12.389  13.640  67.260  1.00  0.00     0.000 HD 
BRANCH  20  22
HETATM   22  C   UNK A   0     -11.192  12.037  67.956  1.00  0.00    -0.258 A  
HETATM   23  C   UNK A   0     -10.856   9.899  66.835  1.00  0.00    -0.137 A  
HETATM   24  C   UNK A   0     -10.140   9.430  67.940  1.00  0.00    -0.239 A  
HETATM   25  C   UNK A   0     -10.581  11.502  69.098  1.00  0.00    -0.174 A  
HETATM   26  C   UNK A   0     -11.387  11.196  66.853  1.00  0.00    -0.168 A  
HETATM   27  C   UNK A   0     -10.050  10.214  69.093  1.00  0.00    -0.226 A  
BRANCH  24  28
HETATM   28  C   UNK A   0      -9.477   8.105  67.886  1.00  0.00    -0.146 C  
ATOM     29  H   GLU A   1      -9.580   7.926  69.973  1.00  0.00     0.000 HD 
ATOM     30  N   GLU A   1      -9.229   7.503  69.113  1.00  0.00    -0.145 N  
HETATM   31  O   UNK A   0      -9.149   7.609  66.816  1.00  0.00    -0.137 OA 
BRANCH  30  32
ATOM     32  CA  GLU A   1      -8.455   6.249  69.164  1.00  0.00    -0.120 C  
ATOM     33  C   GLU A   1      -9.419   5.060  69.332  1.00  0.00    -0.144 C  
ATOM     34  O   GLU A   1     -10.598   5.408  69.906  1.00  0.00    -0.307 OA 
ATOM     35  OXT GLU A   1      -9.115   3.892  69.127  1.00  0.00    -0.110 OA 
BRANCH  32  36
ATOM     36  CB  GLU A   1      -7.459   6.286  70.334  1.00  0.00    -0.091 C  
BRANCH  36  37
ATOM     37  CG  GLU A   1      -7.738   5.213  71.392  1.00  0.00    -0.105 C  
ATOM     38  CD  GLU A   1      -6.711   5.210  72.496  1.00  0.00    -0.069 C  
ATOM     39  OE2 GLU A   1      -5.747   5.955  72.561  1.00  0.00    -0.030 OA 
ATOM     40  OE1 GLU A   1      -6.981   4.279  73.439  1.00  0.00    -0.059 OA 
ENDBRANCH  36  37
ENDBRANCH  32  36
ENDBRANCH  30  32
ENDBRANCH  24  28
ENDBRANCH  20  22
ENDBRANCH  19  20
ENDBRANCH   4  19
TORSDOF 7
ENDMDL
MODEL      177
REMARK 921   NORMALIZED FREE ENERGY PREDICTED BY IDOCK:   -4.52 KCAL/MOL
REMARK 922        TOTAL FREE ENERGY PREDICTED BY IDOCK:   -7.64 KCAL/MOL
REMARK 923 INTER-LIGAND FREE ENERGY PREDICTED BY IDOCK:   -6.68 KCAL/MOL
REMARK 924 INTRA-LIGAND FREE ENERGY PREDICTED BY IDOCK:   -0.96 KCAL/MOL
REMARK 927      BINDING AFFINITY PREDICTED BY RF-SCORE:    0.00 PKD
ROOT
HETATM    1  C   UNK A   0     -11.370   9.545  69.249  1.00  0.00     0.095 C  
HETATM    2  N   UNK A   0     -10.490   8.512  69.542  1.00  0.00    -0.220 N  
HETATM    3  O   UNK A   0     -11.314  10.302  68.284  1.00  0.00    -0.266 OA 
HETATM    4  C   UNK A   0      -9.312   8.203  68.650  1.00  0.00    -0.143 C  
HETATM    5  C   UNK A   0      -9.206   6.670  68.478  1.00  0.00    -0.127 C  
HETATM    6  C   UNK A   0     -10.861   6.030  72.882  1.00  0.00    -0.258 C  
HETATM    7  H   UNK A   0     -12.333   7.290  73.555  1.00  0.00     0.000 HD 
HETATM    8  N   UNK A   0      -9.148   6.068  69.798  1.00  0.00    -0.139 NA 
HETATM    9  H   UNK A   0      -8.499   5.300  69.971  1.00  0.00     0.000 HD 
HETATM   10  H2  UNK A   0     -11.594   5.515  74.757  1.00  0.00     0.000 HD 
HETATM   11  C   UNK A   0      -9.960   6.517  70.827  1.00  0.00    -0.184 C  
HETATM   12  O   UNK A   0     -11.946   9.208  72.027  1.00  0.00    -0.367 OA 
HETATM   13  C   UNK A   0     -10.616   7.703  70.699  1.00  0.00    -0.221 C  
HETATM   14  H1  UNK A   0     -10.399   4.418  74.022  1.00  0.00     0.000 HD 
HETATM   15  C   UNK A   0     -11.457   8.092  71.873  1.00  0.00    -0.299 C  
HETATM   16  N   UNK A   0     -10.063   5.699  71.925  1.00  0.00    -0.184 NA 
HETATM   17  N   UNK A   0     -10.971   5.263  73.991  1.00  0.00    -0.415 NA 
HETATM   18  N   UNK A   0     -11.619   7.149  72.841  1.00  0.00    -0.545 N  
ENDROOT
BRANCH   4  19
HETATM   19  C   UNK A   0      -9.286   8.892  67.268  1.00  0.00    -0.138 C  
BRANCH  19  20
HETATM   20  N   UNK A   0      -8.003   9.569  67.016  1.00  0.00    -0.108 NA 
HETATM   21  H   UNK A   0      -7.172   9.048  66.735  1.00  0.00     0.000 HD 
BRANCH  20  22
HETATM   22  C   UNK A   0      -7.972  10.959  67.177  1.00  0.00    -0.127 A  
HETATM   23  C   UNK A   0      -9.052  13.102  66.752  1.00  0.00    -0.214 A  
HETATM   24  C   UNK A   0      -8.181  13.721  67.655  1.00  0.00    -0.180 A  
HETATM   25  C   UNK A   0      -7.035  11.621  67.979  1.00  0.00    -0.078 A  
HETATM   26  C   UNK A   0      -8.935  11.727  66.511  1.00  0.00    -0.196 A  
HETATM   27  C   UNK A   0      -7.138  12.988  68.226  1.00  0.00    -0.103 A  
BRANCH  24  28
HETATM   28  C   UNK A   0      -8.369  15.149  68.004  1.00  0.00    -0.147 C  
ATOM     29  H   GLU A   1      -7.023  15.731  66.504  1.00  0.00     0.000 HD 
ATOM     30  N   GLU A   1      -7.598  16.053  67.283  1.00  0.00    -0.173 N  
HETATM   31  O   UNK A   0      -9.136  15.484  68.897  1.00  0.00    -0.188 OA 
BRANCH  30  32
ATOM     32  CA  GLU A   1      -7.617  17.481  67.651  1.00  0.00    -0.195 C  
ATOM     33  C   GLU A   1      -8.404  18.272  66.589  1.00  0.00    -0.264 C  
ATOM     34  O   GLU A   1      -8.429  17.659  65.379  1.00  0.00     0.101 OA 
ATOM     35  OXT GLU A   1      -8.832  19.406  66.752  1.00  0.00    -0.298 OA 
BRANCH  32  36
ATOM     36  CB  GLU A   1      -6.183  18.023  67.752  1.00  0.00    -0.176 C  
BRANCH  36  37
ATOM     37  CG  GLU A   1      -5.551  17.791  69.128  1.00  0.00    -0.195 C  
ATOM     38  CD  GLU A   1      -6.009  18.798  70.152  1.00  0.00    -0.178 C  
ATOM     39  OE2 GLU A   1      -6.784  19.716  69.937  1.00  0.00    -0.308 OA 
ATOM     40  OE1 GLU A   1      -5.467  18.568  71.370  1.00  0.00    -0.242 OA 
ENDBRANCH  36  37
ENDBRANCH  32  36
ENDBRANCH  30  32
ENDBRANCH  24  28
ENDBRANCH  20  22
ENDBRANCH  19  20
ENDBRANCH   4  19
TORSDOF 7
ENDMDL
MODEL      178
REMARK 921   NORMALIZED FREE ENERGY PREDICTED BY IDOCK:   -4.46 KCAL/MOL
REMARK 922        TOTAL FREE ENERGY PREDICTED BY IDOCK:   -7.56 KCAL/MOL
REMARK 923 INTER-LIGAND FREE ENERGY PREDICTED BY IDOCK:   -8.20 KCAL/MOL
REMARK 924 INTRA-LIGAND FREE ENERGY PREDICTED BY IDOCK:    0.64 KCAL/MOL
REMARK 927      BINDING AFFINITY PREDICTED BY RF-SCORE:    0.00 PKD
ROOT
HETATM    1  C   UNK A   0     -10.108   5.172  73.099  1.00  0.00    -0.165 C  
HETATM    2  N   UNK A   0     -10.064   5.506  71.752  1.00  0.00    -0.189 N  
HETATM    3  O   UNK A   0     -10.857   5.650  73.946  1.00  0.00    -0.247 OA 
HETATM    4  C   UNK A   0     -10.986   6.547  71.167  1.00  0.00    -0.266 C  
HETATM    5  C   UNK A   0     -11.527   6.030  69.814  1.00  0.00    -0.137 C  
HETATM    6  C   UNK A   0      -7.438   3.751  69.016  1.00  0.00    -0.053 C  
HETATM    7  H   UNK A   0      -6.500   2.862  70.609  1.00  0.00     0.000 HD 
HETATM    8  N   UNK A   0     -10.393   5.678  68.976  1.00  0.00    -0.224 NA 
HETATM    9  H   UNK A   0     -10.403   5.927  67.987  1.00  0.00     0.000 HD 
HETATM   10  H2  UNK A   0      -5.758   2.653  68.477  1.00  0.00     0.000 HD 
HETATM   11  C   UNK A   0      -9.298   5.009  69.498  1.00  0.00    -0.128 C  
HETATM   12  O   UNK A   0      -7.506   4.185  72.453  1.00  0.00    -0.064 OA 
HETATM   13  C   UNK A   0      -9.141   4.921  70.847  1.00  0.00    -0.142 C  
HETATM   14  H1  UNK A   0      -6.721   3.367  67.159  1.00  0.00     0.000 HD 
HETATM   15  C   UNK A   0      -7.921   4.184  71.298  1.00  0.00    -0.072 C  
HETATM   16  N   UNK A   0      -8.435   4.448  68.589  1.00  0.00    -0.084 NA 
HETATM   17  N   UNK A   0      -6.553   3.203  68.152  1.00  0.00    -0.036 NA 
HETATM   18  N   UNK A   0      -7.216   3.533  70.333  1.00  0.00    -0.040 N  
ENDROOT
BRANCH   4  19
HETATM   19  C   UNK A   0     -12.157   7.019  72.056  1.00  0.00    -0.294 C  
BRANCH  19  20
HETATM   20  N   UNK A   0     -11.980   8.410  72.506  1.00  0.00    -0.420 NA 
HETATM   21  H   UNK A   0     -11.970   8.651  73.497  1.00  0.00     0.000 HD 
BRANCH  20  22
HETATM   22  C   UNK A   0     -11.826   9.387  71.515  1.00  0.00    -0.385 A  
HETATM   23  C   UNK A   0     -12.771  11.318  70.368  1.00  0.00    -0.209 A  
HETATM   24  C   UNK A   0     -11.537  11.560  69.756  1.00  0.00    -0.401 A  
HETATM   25  C   UNK A   0     -10.639   9.575  70.796  1.00  0.00    -0.387 A  
HETATM   26  C   UNK A   0     -12.911  10.227  71.236  1.00  0.00    -0.517 A  
HETATM   27  C   UNK A   0     -10.488  10.655  69.930  1.00  0.00    -0.136 A  
BRANCH  24  28
HETATM   28  C   UNK A   0     -11.347  12.775  68.928  1.00  0.00    -0.296 C  
ATOM     29  H   GLU A   1      -9.592  11.981  68.099  1.00  0.00     0.000 HD 
ATOM     30  N   GLU A   1     -10.197  12.801  68.150  1.00  0.00    -0.235 N  
HETATM   31  O   UNK A   0     -12.150  13.698  68.970  1.00  0.00    -0.344 OA 
BRANCH  30  32
ATOM     32  CA  GLU A   1      -9.855  14.023  67.398  1.00  0.00    -0.240 C  
ATOM     33  C   GLU A   1      -8.826  14.844  68.198  1.00  0.00    -0.174 C  
ATOM     34  O   GLU A   1      -8.868  14.596  69.530  1.00  0.00     0.038 OA 
ATOM     35  OXT GLU A   1      -8.146  15.745  67.725  1.00  0.00    -0.137 OA 
BRANCH  32  36
ATOM     36  CB  GLU A   1     -11.116  14.863  67.147  1.00  0.00    -0.332 C  
BRANCH  36  37
ATOM     37  CG  GLU A   1     -10.973  15.817  65.957  1.00  0.00    -0.177 C  
ATOM     38  CD  GLU A   1     -11.886  15.455  64.813  1.00  0.00    -0.169 C  
ATOM     39  OE2 GLU A   1     -12.653  14.506  64.800  1.00  0.00    -0.567 OA 
ATOM     40  OE1 GLU A   1     -11.773  16.319  63.778  1.00  0.00    -0.969 OA 
ENDBRANCH  36  37
ENDBRANCH  32  36
ENDBRANCH  30  32
ENDBRANCH  24  28
ENDBRANCH  20  22
ENDBRANCH  19  20
ENDBRANCH   4  19
TORSDOF 7
ENDMDL
MODEL      179
REMARK 921   NORMALIZED FREE ENERGY PREDICTED BY IDOCK:   -4.46 KCAL/MOL
REMARK 922        TOTAL FREE ENERGY PREDICTED BY IDOCK:   -7.55 KCAL/MOL
REMARK 923 INTER-LIGAND FREE ENERGY PREDICTED BY IDOCK:   -6.62 KCAL/MOL
REMARK 924 INTRA-LIGAND FREE ENERGY PREDICTED BY IDOCK:   -0.93 KCAL/MOL
REMARK 927      BINDING AFFINITY PREDICTED BY RF-SCORE:    0.00 PKD
ROOT
HETATM    1  C   UNK A   0      -8.646   5.305  68.221  1.00  0.00    -0.099 C  
HETATM    2  N   UNK A   0      -8.358   5.360  66.864  1.00  0.00    -0.108 N  
HETATM    3  O   UNK A   0      -8.303   6.116  69.076  1.00  0.00    -0.111 OA 
HETATM    4  C   UNK A   0      -7.548   6.490  66.276  1.00  0.00    -0.090 C  
HETATM    5  C   UNK A   0      -8.212   6.944  64.955  1.00  0.00    -0.096 C  
HETATM    6  C   UNK A   0      -9.630   2.493  64.104  1.00  0.00    -0.141 C  
HETATM    7  H   UNK A   0     -10.252   1.356  65.694  1.00  0.00     0.000 HD 
HETATM    8  N   UNK A   0      -8.353   5.782  64.095  1.00  0.00    -0.269 NA 
HETATM    9  H   UNK A   0      -8.146   5.866  63.100  1.00  0.00     0.000 HD 
HETATM   10  H2  UNK A   0     -10.378   0.636  63.547  1.00  0.00     0.000 HD 
HETATM   11  C   UNK A   0      -8.765   4.560  64.604  1.00  0.00    -0.147 C  
HETATM   12  O   UNK A   0      -9.101   2.570  67.528  1.00  0.00    -0.151 OA 
HETATM   13  C   UNK A   0      -8.772   4.358  65.950  1.00  0.00    -0.118 C  
HETATM   14  H1  UNK A   0      -9.923   1.755  62.239  1.00  0.00     0.000 HD 
HETATM   15  C   UNK A   0      -9.227   3.002  66.386  1.00  0.00    -0.119 C  
HETATM   16  N   UNK A   0      -9.168   3.622  63.687  1.00  0.00    -0.109 NA 
HETATM   17  N   UNK A   0     -10.014   1.534  63.231  1.00  0.00    -0.109 NA 
HETATM   18  N   UNK A   0      -9.752   2.201  65.419  1.00  0.00    -0.334 N  
ENDROOT
BRANCH   4  19
HETATM   19  C   UNK A   0      -7.296   7.713  67.186  1.00  0.00    -0.091 C  
BRANCH  19  20
HETATM   20  N   UNK A   0      -6.897   8.901  66.413  1.00  0.00    -0.074 NA 
HETATM   21  H   UNK A   0      -6.128   8.866  65.744  1.00  0.00     0.000 HD 
BRANCH  20  22
HETATM   22  C   UNK A   0      -7.617  10.079  66.636  1.00  0.00    -0.104 A  
HETATM   23  C   UNK A   0      -7.555  12.478  67.061  1.00  0.00    -0.020 A  
HETATM   24  C   UNK A   0      -8.931  12.557  66.823  1.00  0.00    -0.198 A  
HETATM   25  C   UNK A   0      -9.011  10.163  66.525  1.00  0.00    -0.161 A  
HETATM   26  C   UNK A   0      -6.908  11.238  66.976  1.00  0.00    -0.126 A  
HETATM   27  C   UNK A   0      -9.666  11.389  66.608  1.00  0.00    -0.224 A  
BRANCH  24  28
HETATM   28  C   UNK A   0      -9.603  13.878  66.797  1.00  0.00    -0.283 C  
ATOM     29  H   GLU A   1      -9.467  14.030  68.885  1.00  0.00     0.000 HD 
ATOM     30  N   GLU A   1      -9.835  14.461  68.036  1.00  0.00    -0.216 N  
HETATM   31  O   UNK A   0      -9.951  14.387  65.740  1.00  0.00    -0.312 OA 
BRANCH  30  32
ATOM     32  CA  GLU A   1     -10.616  15.710  68.118  1.00  0.00    -0.274 C  
ATOM     33  C   GLU A   1      -9.760  16.807  68.778  1.00  0.00    -0.261 C  
ATOM     34  O   GLU A   1      -8.781  16.310  69.575  1.00  0.00    -0.133 OA 
ATOM     35  OXT GLU A   1     -10.016  18.002  68.731  1.00  0.00    -0.361 OA 
BRANCH  32  36
ATOM     36  CB  GLU A   1     -11.898  15.483  68.935  1.00  0.00    -0.357 C  
BRANCH  36  37
ATOM     37  CG  GLU A   1     -12.087  14.022  69.357  1.00  0.00    -0.386 C  
ATOM     38  CD  GLU A   1     -12.298  13.872  70.842  1.00  0.00    -0.377 C  
ATOM     39  OE2 GLU A   1     -12.306  14.790  71.647  1.00  0.00    -0.315 OA 
ATOM     40  OE1 GLU A   1     -12.492  12.583  71.202  1.00  0.00    -0.345 OA 
ENDBRANCH  36  37
ENDBRANCH  32  36
ENDBRANCH  30  32
ENDBRANCH  24  28
ENDBRANCH  20  22
ENDBRANCH  19  20
ENDBRANCH   4  19
TORSDOF 7
ENDMDL
MODEL      180
REMARK 921   NORMALIZED FREE ENERGY PREDICTED BY IDOCK:   -4.45 KCAL/MOL
REMARK 922        TOTAL FREE ENERGY PREDICTED BY IDOCK:   -7.54 KCAL/MOL
REMARK 923 INTER-LIGAND FREE ENERGY PREDICTED BY IDOCK:   -8.03 KCAL/MOL
REMARK 924 INTRA-LIGAND FREE ENERGY PREDICTED BY IDOCK:    0.49 KCAL/MOL
REMARK 927      BINDING AFFINITY PREDICTED BY RF-SCORE:    0.00 PKD
ROOT
HETATM    1  C   UNK A   0     -11.194  14.644  65.585  1.00  0.00    -0.342 C  
HETATM    2  N   UNK A   0     -10.321  15.255  66.474  1.00  0.00    -0.277 N  
HETATM    3  O   UNK A   0     -11.353  13.437  65.427  1.00  0.00    -0.290 OA 
HETATM    4  C   UNK A   0      -9.433  14.445  67.388  1.00  0.00    -0.207 C  
HETATM    5  C   UNK A   0      -9.453  15.084  68.796  1.00  0.00    -0.210 C  
HETATM    6  C   UNK A   0      -9.932  19.396  66.867  1.00  0.00    -0.369 C  
HETATM    7  H   UNK A   0     -11.113  19.584  65.201  1.00  0.00     0.000 HD 
HETATM    8  N   UNK A   0      -9.082  16.482  68.666  1.00  0.00    -0.231 NA 
HETATM    9  H   UNK A   0      -8.450  16.899  69.349  1.00  0.00     0.000 HD 
HETATM   10  H2  UNK A   0     -10.177  21.365  66.248  1.00  0.00     0.000 HD 
HETATM   11  C   UNK A   0      -9.574  17.260  67.630  1.00  0.00    -0.256 C  
HETATM   12  O   UNK A   0     -11.042  17.237  64.395  1.00  0.00    -0.998 OA 
HETATM   13  C   UNK A   0     -10.181  16.663  66.568  1.00  0.00    -0.310 C  
HETATM   14  H1  UNK A   0      -9.271  21.094  67.757  1.00  0.00     0.000 HD 
HETATM   15  C   UNK A   0     -10.666  17.598  65.506  1.00  0.00    -0.037 C  
HETATM   16  N   UNK A   0      -9.429  18.618  67.765  1.00  0.00    -0.295 NA 
HETATM   17  N   UNK A   0      -9.788  20.738  66.953  1.00  0.00    -0.604 NA 
HETATM   18  N   UNK A   0     -10.618  18.925  65.801  1.00  0.00    -0.421 N  
ENDROOT
BRANCH   4  19
HETATM   19  C   UNK A   0      -9.732  12.934  67.490  1.00  0.00    -0.205 C  
BRANCH  19  20
HETATM   20  N   UNK A   0      -8.773  12.241  68.365  1.00  0.00    -0.282 NA 
HETATM   21  H   UNK A   0      -8.016  12.744  68.828  1.00  0.00     0.000 HD 
BRANCH  20  22
HETATM   22  C   UNK A   0      -8.943  10.862  68.535  1.00  0.00    -0.157 A  
HETATM   23  C   UNK A   0      -7.924   8.714  69.073  1.00  0.00    -0.115 A  
HETATM   24  C   UNK A   0      -9.193   8.135  69.172  1.00  0.00    -0.151 A  
HETATM   25  C   UNK A   0     -10.194  10.233  68.517  1.00  0.00    -0.192 A  
HETATM   26  C   UNK A   0      -7.807  10.072  68.745  1.00  0.00    -0.094 A  
HETATM   27  C   UNK A   0     -10.325   8.884  68.840  1.00  0.00    -0.229 A  
BRANCH  24  28
HETATM   28  C   UNK A   0      -9.333   6.732  69.629  1.00  0.00    -0.144 C  
ATOM     29  H   GLU A   1      -7.287   6.636  70.079  1.00  0.00     0.000 HD 
ATOM     30  N   GLU A   1      -8.158   6.107  70.025  1.00  0.00    -0.117 N  
HETATM   31  O   UNK A   0     -10.421   6.172  69.618  1.00  0.00    -0.205 OA 
BRANCH  30  32
ATOM     32  CA  GLU A   1      -8.177   4.672  70.368  1.00  0.00    -0.075 C  
ATOM     33  C   GLU A   1      -7.707   3.851  69.153  1.00  0.00    -0.053 C  
ATOM     34  O   GLU A   1      -7.895   4.492  67.973  1.00  0.00    -0.080 OA 
ATOM     35  OXT GLU A   1      -7.348   2.682  69.209  1.00  0.00    -0.044 OA 
BRANCH  32  36
ATOM     36  CB  GLU A   1      -9.594   4.242  70.775  1.00  0.00    -0.256 C  
BRANCH  36  37
ATOM     37  CG  GLU A   1      -9.606   3.253  71.946  1.00  0.00    -0.221 C  
ATOM     38  CD  GLU A   1     -10.563   3.660  73.037  1.00  0.00    -0.163 C  
ATOM     39  OE2 GLU A   1     -11.254   4.667  73.026  1.00  0.00    -0.253 OA 
ATOM     40  OE1 GLU A   1     -10.588   2.767  74.052  1.00  0.00    -0.148 OA 
ENDBRANCH  36  37
ENDBRANCH  32  36
ENDBRANCH  30  32
ENDBRANCH  24  28
ENDBRANCH  20  22
ENDBRANCH  19  20
ENDBRANCH   4  19
TORSDOF 7
ENDMDL
MODEL      181
REMARK 921   NORMALIZED FREE ENERGY PREDICTED BY IDOCK:   -4.41 KCAL/MOL
REMARK 922        TOTAL FREE ENERGY PREDICTED BY IDOCK:   -7.49 KCAL/MOL
REMARK 923 INTER-LIGAND FREE ENERGY PREDICTED BY IDOCK:   -8.05 KCAL/MOL
REMARK 924 INTRA-LIGAND FREE ENERGY PREDICTED BY IDOCK:    0.56 KCAL/MOL
REMARK 927      BINDING AFFINITY PREDICTED BY RF-SCORE:    0.00 PKD
ROOT
HETATM    1  C   UNK A   0      -8.778   9.877  68.755  1.00  0.00    -0.132 C  
HETATM    2  N   UNK A   0      -7.943  10.077  67.665  1.00  0.00    -0.105 N  
HETATM    3  O   UNK A   0      -8.446   9.852  69.937  1.00  0.00    -0.186 OA 
HETATM    4  C   UNK A   0      -6.460  10.297  67.838  1.00  0.00    -0.061 C  
HETATM    5  C   UNK A   0      -6.013  11.441  66.900  1.00  0.00    -0.122 C  
HETATM    6  C   UNK A   0      -9.275  10.137  63.705  1.00  0.00    -0.281 C  
HETATM    7  H   UNK A   0     -11.095   9.486  64.392  1.00  0.00     0.000 HD 
HETATM    8  N   UNK A   0      -6.428  11.108  65.548  1.00  0.00    -0.358 NA 
HETATM    9  H   UNK A   0      -5.791  11.284  64.770  1.00  0.00     0.000 HD 
HETATM   10  H2  UNK A   0     -10.645   9.767  62.187  1.00  0.00     0.000 HD 
HETATM   11  C   UNK A   0      -7.673  10.556  65.296  1.00  0.00    -0.085 C  
HETATM   12  O   UNK A   0     -10.436   8.809  66.688  1.00  0.00    -0.264 OA 
HETATM   13  C   UNK A   0      -8.412  10.060  66.327  1.00  0.00    -0.130 C  
HETATM   14  H1  UNK A   0      -9.072  10.454  61.713  1.00  0.00     0.000 HD 
HETATM   15  C   UNK A   0      -9.735   9.483  65.938  1.00  0.00    -0.282 C  
HETATM   16  N   UNK A   0      -8.094  10.570  63.990  1.00  0.00    -0.320 NA 
HETATM   17  N   UNK A   0      -9.716  10.111  62.427  1.00  0.00    -0.684 NA 
HETATM   18  N   UNK A   0     -10.129   9.683  64.651  1.00  0.00    -0.266 N  
ENDROOT
BRANCH   4  19
HETATM   19  C   UNK A   0      -5.959  10.567  69.274  1.00  0.00    -0.038 C  
BRANCH  19  20
HETATM   20  N   UNK A   0      -6.661  11.700  69.898  1.00  0.00    -0.340 NA 
HETATM   21  H   UNK A   0      -7.200  11.585  70.756  1.00  0.00     0.000 HD 
BRANCH  20  22
HETATM   22  C   UNK A   0      -6.557  12.943  69.263  1.00  0.00    -0.085 A  
HETATM   23  C   UNK A   0      -7.699  14.783  68.144  1.00  0.00    -0.122 A  
HETATM   24  C   UNK A   0      -6.533  15.552  68.215  1.00  0.00    -0.122 A  
HETATM   25  C   UNK A   0      -5.370  13.684  69.210  1.00  0.00    -0.078 A  
HETATM   26  C   UNK A   0      -7.701  13.480  68.660  1.00  0.00    -0.093 A  
HETATM   27  C   UNK A   0      -5.354  14.980  68.699  1.00  0.00    -0.094 A  
BRANCH  24  28
HETATM   28  C   UNK A   0      -6.552  16.968  67.778  1.00  0.00    -0.145 C  
ATOM     29  H   GLU A   1      -7.732  17.499  69.429  1.00  0.00     0.000 HD 
ATOM     30  N   GLU A   1      -7.309  17.830  68.561  1.00  0.00    -0.256 N  
HETATM   31  O   UNK A   0      -5.958  17.324  66.769  1.00  0.00    -0.160 OA 
BRANCH  30  32
ATOM     32  CA  GLU A   1      -7.497  19.229  68.130  1.00  0.00    -0.289 C  
ATOM     33  C   GLU A   1      -6.495  20.132  68.873  1.00  0.00    -0.311 C  
ATOM     34  O   GLU A   1      -6.079  19.607  70.053  1.00  0.00    -0.270 OA 
ATOM     35  OXT GLU A   1      -6.213  21.273  68.533  1.00  0.00    -0.187 OA 
BRANCH  32  36
ATOM     36  CB  GLU A   1      -8.934  19.687  68.424  1.00  0.00    -0.372 C  
BRANCH  36  37
ATOM     37  CG  GLU A   1      -9.646  20.253  67.192  1.00  0.00    -0.580 C  
ATOM     38  CD  GLU A   1     -10.344  19.187  66.387  1.00  0.00    -0.455 C  
ATOM     39  OE2 GLU A   1     -10.348  17.995  66.652  1.00  0.00    -0.356 OA 
ATOM     40  OE1 GLU A   1     -10.993  19.699  65.316  1.00  0.00    -0.422 OA 
ENDBRANCH  36  37
ENDBRANCH  32  36
ENDBRANCH  30  32
ENDBRANCH  24  28
ENDBRANCH  20  22
ENDBRANCH  19  20
ENDBRANCH   4  19
TORSDOF 7
ENDMDL
MODEL      182
REMARK 921   NORMALIZED FREE ENERGY PREDICTED BY IDOCK:   -4.41 KCAL/MOL
REMARK 922        TOTAL FREE ENERGY PREDICTED BY IDOCK:   -7.48 KCAL/MOL
REMARK 923 INTER-LIGAND FREE ENERGY PREDICTED BY IDOCK:   -6.51 KCAL/MOL
REMARK 924 INTRA-LIGAND FREE ENERGY PREDICTED BY IDOCK:   -0.97 KCAL/MOL
REMARK 927      BINDING AFFINITY PREDICTED BY RF-SCORE:    0.00 PKD
ROOT
HETATM    1  C   UNK A   0      -7.448   6.784  69.113  1.00  0.00    -0.095 C  
HETATM    2  N   UNK A   0      -8.746   6.427  68.777  1.00  0.00    -0.122 N  
HETATM    3  O   UNK A   0      -6.444   6.629  68.422  1.00  0.00    -0.045 OA 
HETATM    4  C   UNK A   0      -9.068   5.779  67.453  1.00  0.00    -0.110 C  
HETATM    5  C   UNK A   0     -10.350   6.427  66.879  1.00  0.00    -0.241 C  
HETATM    6  C   UNK A   0     -12.038   7.049  71.273  1.00  0.00    -0.361 C  
HETATM    7  H   UNK A   0     -10.717   7.573  72.752  1.00  0.00     0.000 HD 
HETATM    8  N   UNK A   0     -11.397   6.325  67.880  1.00  0.00    -0.565 NA 
HETATM    9  H   UNK A   0     -12.343   6.075  67.593  1.00  0.00     0.000 HD 
HETATM   10  H2  UNK A   0     -12.955   7.450  73.094  1.00  0.00     0.000 HD 
HETATM   11  C   UNK A   0     -11.133   6.563  69.219  1.00  0.00    -0.334 C  
HETATM   12  O   UNK A   0      -8.616   6.746  71.719  1.00  0.00    -0.121 OA 
HETATM   13  C   UNK A   0      -9.845   6.618  69.653  1.00  0.00    -0.157 C  
HETATM   14  H1  UNK A   0     -14.018   7.106  71.707  1.00  0.00     0.000 HD 
HETATM   15  C   UNK A   0      -9.679   6.872  71.118  1.00  0.00    -0.173 C  
HETATM   16  N   UNK A   0     -12.224   6.752  70.032  1.00  0.00    -0.589 NA 
HETATM   17  N   UNK A   0     -13.088   7.220  72.110  1.00  0.00    -0.526 NA 
HETATM   18  N   UNK A   0     -10.805   7.201  71.806  1.00  0.00    -0.224 N  
ENDROOT
BRANCH   4  19
HETATM   19  C   UNK A   0      -7.953   5.783  66.386  1.00  0.00    -0.102 C  
BRANCH  19  20
HETATM   20  N   UNK A   0      -8.210   6.770  65.324  1.00  0.00    -0.133 NA 
HETATM   21  H   UNK A   0      -8.724   6.520  64.478  1.00  0.00     0.000 HD 
BRANCH  20  22
HETATM   22  C   UNK A   0      -7.721   8.065  65.524  1.00  0.00    -0.093 A  
HETATM   23  C   UNK A   0      -8.210  10.380  66.111  1.00  0.00    -0.144 A  
HETATM   24  C   UNK A   0      -6.841  10.643  66.221  1.00  0.00    -0.133 A  
HETATM   25  C   UNK A   0      -6.358   8.384  65.518  1.00  0.00    -0.048 A  
HETATM   26  C   UNK A   0      -8.642   9.096  65.753  1.00  0.00    -0.171 A  
HETATM   27  C   UNK A   0      -5.915   9.657  65.870  1.00  0.00    -0.059 A  
BRANCH  24  28
HETATM   28  C   UNK A   0      -6.378  11.963  66.709  1.00  0.00    -0.038 C  
ATOM     29  H   GLU A   1      -8.267  12.366  67.525  1.00  0.00     0.000 HD 
ATOM     30  N   GLU A   1      -7.338  12.744  67.339  1.00  0.00    -0.149 N  
HETATM   31  O   UNK A   0      -5.225  12.333  66.528  1.00  0.00    -0.311 OA 
BRANCH  30  32
ATOM     32  CA  GLU A   1      -7.006  14.125  67.738  1.00  0.00    -0.177 C  
ATOM     33  C   GLU A   1      -6.434  14.121  69.168  1.00  0.00    -0.111 C  
ATOM     34  O   GLU A   1      -6.837  13.051  69.898  1.00  0.00     0.134 OA 
ATOM     35  OXT GLU A   1      -5.814  15.051  69.665  1.00  0.00    -0.100 OA 
BRANCH  32  36
ATOM     36  CB  GLU A   1      -8.258  15.013  67.676  1.00  0.00    -0.181 C  
BRANCH  36  37
ATOM     37  CG  GLU A   1      -9.464  14.397  68.393  1.00  0.00    -0.207 C  
ATOM     38  CD  GLU A   1     -10.607  15.369  68.542  1.00  0.00    -0.240 C  
ATOM     39  OE2 GLU A   1     -10.597  16.528  68.159  1.00  0.00    -0.300 OA 
ATOM     40  OE1 GLU A   1     -11.676  14.809  69.151  1.00  0.00    -0.283 OA 
ENDBRANCH  36  37
ENDBRANCH  32  36
ENDBRANCH  30  32
ENDBRANCH  24  28
ENDBRANCH  20  22
ENDBRANCH  19  20
ENDBRANCH   4  19
TORSDOF 7
ENDMDL
MODEL      183
REMARK 921   NORMALIZED FREE ENERGY PREDICTED BY IDOCK:   -4.36 KCAL/MOL
REMARK 922        TOTAL FREE ENERGY PREDICTED BY IDOCK:   -7.42 KCAL/MOL
REMARK 923 INTER-LIGAND FREE ENERGY PREDICTED BY IDOCK:   -6.99 KCAL/MOL
REMARK 924 INTRA-LIGAND FREE ENERGY PREDICTED BY IDOCK:   -0.43 KCAL/MOL
REMARK 927      BINDING AFFINITY PREDICTED BY RF-SCORE:    0.00 PKD
ROOT
HETATM    1  C   UNK A   0     -10.814   5.834  68.292  1.00  0.00    -0.166 C  
HETATM    2  N   UNK A   0      -9.479   5.581  68.011  1.00  0.00    -0.111 N  
HETATM    3  O   UNK A   0     -11.294   6.094  69.391  1.00  0.00    -0.420 OA 
HETATM    4  C   UNK A   0      -8.428   5.603  69.093  1.00  0.00    -0.102 C  
HETATM    5  C   UNK A   0      -7.181   6.348  68.563  1.00  0.00    -0.085 C  
HETATM    6  C   UNK A   0      -8.038   4.725  64.184  1.00  0.00    -0.111 C  
HETATM    7  H   UNK A   0      -9.989   4.594  63.565  1.00  0.00     0.000 HD 
HETATM    8  N   UNK A   0      -6.768   5.715  67.322  1.00  0.00    -0.057 NA 
HETATM    9  H   UNK A   0      -5.775   5.559  67.145  1.00  0.00     0.000 HD 
HETATM   10  H2  UNK A   0      -8.236   4.162  62.193  1.00  0.00     0.000 HD 
HETATM   11  C   UNK A   0      -7.698   5.320  66.375  1.00  0.00    -0.092 C  
HETATM   12  O   UNK A   0     -11.104   4.500  65.782  1.00  0.00    -0.042 OA 
HETATM   13  C   UNK A   0      -9.016   5.260  66.709  1.00  0.00    -0.111 C  
HETATM   14  H1  UNK A   0      -6.584   4.427  62.802  1.00  0.00     0.000 HD 
HETATM   15  C   UNK A   0      -9.929   4.813  65.612  1.00  0.00    -0.176 C  
HETATM   16  N   UNK A   0      -7.211   5.028  65.126  1.00  0.00    -0.066 NA 
HETATM   17  N   UNK A   0      -7.594   4.408  62.946  1.00  0.00    -0.056 NA 
HETATM   18  N   UNK A   0      -9.376   4.700  64.374  1.00  0.00    -0.306 N  
ENDROOT
BRANCH   4  19
HETATM   19  C   UNK A   0      -8.848   6.186  70.460  1.00  0.00    -0.146 C  
BRANCH  19  20
HETATM   20  N   UNK A   0      -8.076   7.392  70.805  1.00  0.00    -0.108 NA 
HETATM   21  H   UNK A   0      -7.302   7.356  71.469  1.00  0.00     0.000 HD 
BRANCH  20  22
HETATM   22  C   UNK A   0      -8.447   8.588  70.183  1.00  0.00    -0.126 A  
HETATM   23  C   UNK A   0      -7.738  10.709  69.213  1.00  0.00    -0.142 A  
HETATM   24  C   UNK A   0      -9.020  10.900  68.689  1.00  0.00    -0.162 A  
HETATM   25  C   UNK A   0      -9.753   8.861  69.755  1.00  0.00    -0.180 A  
HETATM   26  C   UNK A   0      -7.462   9.559  69.965  1.00  0.00    -0.126 A  
HETATM   27  C   UNK A   0     -10.041  10.001  69.007  1.00  0.00    -0.211 A  
BRANCH  24  28
HETATM   28  C   UNK A   0      -9.291  12.053  67.797  1.00  0.00    -0.190 C  
ATOM     29  H   GLU A   1     -11.086  12.457  68.804  1.00  0.00     0.000 HD 
ATOM     30  N   GLU A   1     -10.495  12.712  68.013  1.00  0.00    -0.218 N  
HETATM   31  O   UNK A   0      -8.505  12.364  66.913  1.00  0.00    -0.190 OA 
BRANCH  30  32
ATOM     32  CA  GLU A   1     -10.912  13.785  67.090  1.00  0.00    -0.290 C  
ATOM     33  C   GLU A   1     -10.713  15.151  67.771  1.00  0.00    -0.279 C  
ATOM     34  O   GLU A   1     -10.732  15.078  69.125  1.00  0.00    -0.231 OA 
ATOM     35  OXT GLU A   1     -10.698  16.221  67.178  1.00  0.00    -0.309 OA 
BRANCH  32  36
ATOM     36  CB  GLU A   1     -12.386  13.604  66.697  1.00  0.00    -0.381 C  
BRANCH  36  37
ATOM     37  CG  GLU A   1     -12.724  14.224  65.337  1.00  0.00    -0.385 C  
ATOM     38  CD  GLU A   1     -12.200  13.408  64.183  1.00  0.00    -0.398 C  
ATOM     39  OE2 GLU A   1     -11.561  12.373  64.288  1.00  0.00    -0.327 OA 
ATOM     40  OE1 GLU A   1     -12.527  13.948  62.987  1.00  0.00    -0.689 OA 
ENDBRANCH  36  37
ENDBRANCH  32  36
ENDBRANCH  30  32
ENDBRANCH  24  28
ENDBRANCH  20  22
ENDBRANCH  19  20
ENDBRANCH   4  19
TORSDOF 7
ENDMDL
MODEL      184
REMARK 921   NORMALIZED FREE ENERGY PREDICTED BY IDOCK:   -4.34 KCAL/MOL
REMARK 922        TOTAL FREE ENERGY PREDICTED BY IDOCK:   -7.39 KCAL/MOL
REMARK 923 INTER-LIGAND FREE ENERGY PREDICTED BY IDOCK:   -6.77 KCAL/MOL
REMARK 924 INTRA-LIGAND FREE ENERGY PREDICTED BY IDOCK:   -0.62 KCAL/MOL
REMARK 927      BINDING AFFINITY PREDICTED BY RF-SCORE:    0.00 PKD
ROOT
HETATM    1  C   UNK A   0      -7.721  15.599  66.789  1.00  0.00    -0.134 C  
HETATM    2  N   UNK A   0      -8.514  14.472  66.620  1.00  0.00    -0.426 N  
HETATM    3  O   UNK A   0      -6.746  15.704  67.526  1.00  0.00    -0.163 OA 
HETATM    4  C   UNK A   0      -8.234  13.192  67.370  1.00  0.00    -0.187 C  
HETATM    5  C   UNK A   0      -8.383  12.001  66.396  1.00  0.00     0.054 C  
HETATM    6  C   UNK A   0     -11.799  14.313  64.043  1.00  0.00    -0.237 C  
HETATM    7  H   UNK A   0     -11.601  16.339  63.795  1.00  0.00     0.000 HD 
HETATM    8  N   UNK A   0      -9.699  12.076  65.785  1.00  0.00    -0.242 NA 
HETATM    9  H   UNK A   0     -10.246  11.223  65.664  1.00  0.00     0.000 HD 
HETATM   10  H2  UNK A   0     -13.282  15.147  62.851  1.00  0.00     0.000 HD 
HETATM   11  C   UNK A   0     -10.224  13.287  65.363  1.00  0.00    -0.293 C  
HETATM   12  O   UNK A   0     -10.051  16.821  65.674  1.00  0.00    -0.534 OA 
HETATM   13  C   UNK A   0      -9.644  14.450  65.764  1.00  0.00    -0.181 C  
HETATM   14  H1  UNK A   0     -13.285  13.375  63.032  1.00  0.00     0.000 HD 
HETATM   15  C   UNK A   0     -10.299  15.695  65.255  1.00  0.00    -0.375 C  
HETATM   16  N   UNK A   0     -11.312  13.221  64.527  1.00  0.00    -0.347 NA 
HETATM   17  N   UNK A   0     -12.884  14.291  63.236  1.00  0.00    -0.358 NA 
HETATM   18  N   UNK A   0     -11.267  15.527  64.313  1.00  0.00    -0.731 N  
ENDROOT
BRANCH   4  19
HETATM   19  C   UNK A   0      -6.883  13.101  68.111  1.00  0.00    -0.111 C  
BRANCH  19  20
HETATM   20  N   UNK A   0      -6.210  11.813  67.873  1.00  0.00    -0.049 NA 
HETATM   21  H   UNK A   0      -5.555  11.690  67.101  1.00  0.00     0.000 HD 
BRANCH  20  22
HETATM   22  C   UNK A   0      -6.508  10.765  68.750  1.00  0.00    -0.048 A  
HETATM   23  C   UNK A   0      -6.660   9.995  71.058  1.00  0.00     0.104 A  
HETATM   24  C   UNK A   0      -7.330   8.844  70.631  1.00  0.00    -0.080 A  
HETATM   25  C   UNK A   0      -7.068   9.549  68.337  1.00  0.00    -0.071 A  
HETATM   26  C   UNK A   0      -6.244  10.943  70.114  1.00  0.00    -0.142 A  
HETATM   27  C   UNK A   0      -7.485   8.598  69.265  1.00  0.00    -0.082 A  
BRANCH  24  28
HETATM   28  C   UNK A   0      -7.875   7.892  71.628  1.00  0.00    -0.093 C  
ATOM     29  H   GLU A   1      -9.652   7.702  70.531  1.00  0.00     0.000 HD 
ATOM     30  N   GLU A   1      -9.170   7.448  71.393  1.00  0.00    -0.142 N  
HETATM   31  O   UNK A   0      -7.219   7.560  72.606  1.00  0.00    -0.070 OA 
BRANCH  30  32
ATOM     32  CA  GLU A   1      -9.844   6.606  72.400  1.00  0.00    -0.158 C  
ATOM     33  C   GLU A   1     -10.295   5.287  71.744  1.00  0.00    -0.214 C  
ATOM     34  O   GLU A   1     -10.470   5.393  70.403  1.00  0.00    -0.266 OA 
ATOM     35  OXT GLU A   1     -10.620   4.285  72.366  1.00  0.00    -0.163 OA 
BRANCH  32  36
ATOM     36  CB  GLU A   1     -11.059   7.344  72.983  1.00  0.00    -0.390 C  
BRANCH  36  37
ATOM     37  CG  GLU A   1     -12.155   7.606  71.944  1.00  0.00    -0.333 C  
ATOM     38  CD  GLU A   1     -12.268   9.064  71.579  1.00  0.00    -0.335 C  
ATOM     39  OE2 GLU A   1     -11.588   9.962  72.050  1.00  0.00    -0.047 OA 
ATOM     40  OE1 GLU A   1     -13.219   9.282  70.642  1.00  0.00     0.072 OA 
ENDBRANCH  36  37
ENDBRANCH  32  36
ENDBRANCH  30  32
ENDBRANCH  24  28
ENDBRANCH  20  22
ENDBRANCH  19  20
ENDBRANCH   4  19
TORSDOF 7
ENDMDL
MODEL      185
REMARK 921   NORMALIZED FREE ENERGY PREDICTED BY IDOCK:   -4.34 KCAL/MOL
REMARK 922        TOTAL FREE ENERGY PREDICTED BY IDOCK:   -7.39 KCAL/MOL
REMARK 923 INTER-LIGAND FREE ENERGY PREDICTED BY IDOCK:   -6.51 KCAL/MOL
REMARK 924 INTRA-LIGAND FREE ENERGY PREDICTED BY IDOCK:   -0.87 KCAL/MOL
REMARK 927      BINDING AFFINITY PREDICTED BY RF-SCORE:    0.00 PKD
ROOT
HETATM    1  C   UNK A   0     -12.236   6.067  72.113  1.00  0.00    -0.065 C  
HETATM    2  N   UNK A   0     -10.919   6.494  72.210  1.00  0.00    -0.238 N  
HETATM    3  O   UNK A   0     -13.192   6.725  71.712  1.00  0.00    -0.316 OA 
HETATM    4  C   UNK A   0     -10.511   7.889  71.805  1.00  0.00    -0.221 C  
HETATM    5  C   UNK A   0      -9.193   7.811  71.001  1.00  0.00    -0.151 C  
HETATM    6  C   UNK A   0      -7.798   4.088  73.598  1.00  0.00    -0.084 C  
HETATM    7  H   UNK A   0      -9.214   2.710  74.152  1.00  0.00     0.000 HD 
HETATM    8  N   UNK A   0      -8.215   7.096  71.803  1.00  0.00    -0.105 NA 
HETATM    9  H   UNK A   0      -7.252   7.432  71.837  1.00  0.00     0.000 HD 
HETATM   10  H2  UNK A   0      -7.004   2.437  74.579  1.00  0.00     0.000 HD 
HETATM   11  C   UNK A   0      -8.566   5.965  72.522  1.00  0.00    -0.120 C  
HETATM   12  O   UNK A   0     -11.244   4.126  73.961  1.00  0.00    -0.168 OA 
HETATM   13  C   UNK A   0      -9.881   5.671  72.715  1.00  0.00    -0.164 C  
HETATM   14  H1  UNK A   0      -5.852   3.638  73.944  1.00  0.00     0.000 HD 
HETATM   15  C   UNK A   0     -10.143   4.432  73.512  1.00  0.00    -0.150 C  
HETATM   16  N   UNK A   0      -7.532   5.190  72.985  1.00  0.00    -0.094 NA 
HETATM   17  N   UNK A   0      -6.807   3.309  74.089  1.00  0.00    -0.039 NA 
HETATM   18  N   UNK A   0      -9.064   3.652  73.789  1.00  0.00    -0.090 N  
ENDROOT
BRANCH   4  19
HETATM   19  C   UNK A   0     -11.554   8.721  71.027  1.00  0.00    -0.288 C  
BRANCH  19  20
HETATM   20  N   UNK A   0     -12.190   9.742  71.877  1.00  0.00    -0.354 NA 
HETATM   21  H   UNK A   0     -12.571   9.508  72.793  1.00  0.00     0.000 HD 
BRANCH  20  22
HETATM   22  C   UNK A   0     -12.248  11.046  71.373  1.00  0.00    -0.186 A  
HETATM   23  C   UNK A   0     -13.059  13.326  71.660  1.00  0.00    -0.453 A  
HETATM   24  C   UNK A   0     -12.222  13.756  70.626  1.00  0.00    -0.434 A  
HETATM   25  C   UNK A   0     -11.513  11.477  70.262  1.00  0.00    -0.192 A  
HETATM   26  C   UNK A   0     -13.075  11.972  72.021  1.00  0.00    -0.456 A  
HETATM   27  C   UNK A   0     -11.490  12.819  69.892  1.00  0.00    -0.141 A  
BRANCH  24  28
HETATM   28  C   UNK A   0     -12.112  15.201  70.314  1.00  0.00    -0.341 C  
ATOM     29  H   GLU A   1     -10.454  14.846  69.079  1.00  0.00     0.000 HD 
ATOM     30  N   GLU A   1     -11.047  15.563  69.499  1.00  0.00    -0.263 N  
HETATM   31  O   UNK A   0     -12.903  16.008  70.783  1.00  0.00    -0.388 OA 
BRANCH  30  32
ATOM     32  CA  GLU A   1     -10.779  16.991  69.244  1.00  0.00    -0.226 C  
ATOM     33  C   GLU A   1     -10.952  17.283  67.742  1.00  0.00    -0.163 C  
ATOM     34  O   GLU A   1     -10.776  16.187  66.963  1.00  0.00    -0.313 OA 
ATOM     35  OXT GLU A   1     -11.075  18.405  67.268  1.00  0.00    -0.240 OA 
BRANCH  32  36
ATOM     36  CB  GLU A   1      -9.353  17.351  69.688  1.00  0.00     0.684 C  
BRANCH  36  37
ATOM     37  CG  GLU A   1      -8.329  17.254  68.552  1.00  0.00    -0.267 C  
ATOM     38  CD  GLU A   1      -7.609  15.929  68.534  1.00  0.00    -0.145 C  
ATOM     39  OE2 GLU A   1      -7.788  15.022  69.330  1.00  0.00    -0.190 OA 
ATOM     40  OE1 GLU A   1      -6.728  15.842  67.511  1.00  0.00    -0.153 OA 
ENDBRANCH  36  37
ENDBRANCH  32  36
ENDBRANCH  30  32
ENDBRANCH  24  28
ENDBRANCH  20  22
ENDBRANCH  19  20
ENDBRANCH   4  19
TORSDOF 7
ENDMDL
MODEL      186
REMARK 921   NORMALIZED FREE ENERGY PREDICTED BY IDOCK:   -4.33 KCAL/MOL
REMARK 922        TOTAL FREE ENERGY PREDICTED BY IDOCK:   -7.37 KCAL/MOL
REMARK 923 INTER-LIGAND FREE ENERGY PREDICTED BY IDOCK:   -6.89 KCAL/MOL
REMARK 924 INTRA-LIGAND FREE ENERGY PREDICTED BY IDOCK:   -0.48 KCAL/MOL
REMARK 927      BINDING AFFINITY PREDICTED BY RF-SCORE:    0.00 PKD
ROOT
HETATM    1  C   UNK A   0      -9.721   8.528  71.382  1.00  0.00    -0.220 C  
HETATM    2  N   UNK A   0     -10.521   7.426  71.652  1.00  0.00    -0.198 N  
HETATM    3  O   UNK A   0     -10.057   9.707  71.435  1.00  0.00    -0.170 OA 
HETATM    4  C   UNK A   0     -11.965   7.582  72.061  1.00  0.00    -0.294 C  
HETATM    5  C   UNK A   0     -12.262   6.608  73.224  1.00  0.00     1.460 C  
HETATM    6  C   UNK A   0      -9.178   3.476  71.426  1.00  0.00    -0.126 C  
HETATM    7  H   UNK A   0      -7.456   4.195  70.574  1.00  0.00     0.000 HD 
HETATM    8  N   UNK A   0     -11.888   5.269  72.801  1.00  0.00    -0.366 NA 
HETATM    9  H   UNK A   0     -12.495   4.482  73.031  1.00  0.00     0.000 HD 
HETATM   10  H2  UNK A   0      -7.860   1.980  70.843  1.00  0.00     0.000 HD 
HETATM   11  C   UNK A   0     -10.720   5.043  72.090  1.00  0.00    -0.159 C  
HETATM   12  O   UNK A   0      -8.203   6.505  70.053  1.00  0.00    -0.125 OA 
HETATM   13  C   UNK A   0     -10.053   6.093  71.537  1.00  0.00    -0.192 C  
HETATM   14  H1  UNK A   0      -9.333   1.474  71.706  1.00  0.00     0.000 HD 
HETATM   15  C   UNK A   0      -8.811   5.731  70.787  1.00  0.00    -0.137 C  
HETATM   16  N   UNK A   0     -10.297   3.739  72.012  1.00  0.00    -0.081 NA 
HETATM   17  N   UNK A   0      -8.740   2.202  71.307  1.00  0.00    -0.062 NA 
HETATM   18  N   UNK A   0      -8.391   4.441  70.898  1.00  0.00    -0.086 N  
ENDROOT
BRANCH   4  19
HETATM   19  C   UNK A   0     -12.433   9.006  72.434  1.00  0.00    -0.305 C  
BRANCH  19  20
HETATM   20  N   UNK A   0     -13.171   9.649  71.334  1.00  0.00    -0.381 NA 
HETATM   21  H   UNK A   0     -14.012   9.227  70.940  1.00  0.00     0.000 HD 
BRANCH  20  22
HETATM   22  C   UNK A   0     -12.669  10.863  70.853  1.00  0.00    -0.370 A  
HETATM   23  C   UNK A   0     -11.524  12.048  69.057  1.00  0.00    -0.357 A  
HETATM   24  C   UNK A   0     -11.860  13.270  69.647  1.00  0.00    -0.391 A  
HETATM   25  C   UNK A   0     -12.885  12.092  71.489  1.00  0.00    -0.394 A  
HETATM   26  C   UNK A   0     -11.922  10.851  69.669  1.00  0.00    -0.414 A  
HETATM   27  C   UNK A   0     -12.493  13.289  70.892  1.00  0.00    -0.424 A  
BRANCH  24  28
HETATM   28  C   UNK A   0     -11.545  14.540  68.950  1.00  0.00    -0.309 C  
ATOM     29  H   GLU A   1      -9.911  13.648  67.985  1.00  0.00     0.000 HD 
ATOM     30  N   GLU A   1     -10.414  14.521  68.143  1.00  0.00    -0.235 N  
HETATM   31  O   UNK A   0     -12.234  15.538  69.117  1.00  0.00    -0.279 OA 
BRANCH  30  32
ATOM     32  CA  GLU A   1      -9.946  15.772  67.518  1.00  0.00    -0.236 C  
ATOM     33  C   GLU A   1     -10.527  15.880  66.095  1.00  0.00    -0.326 C  
ATOM     34  O   GLU A   1     -10.847  14.677  65.559  1.00  0.00    -0.310 OA 
ATOM     35  OXT GLU A   1     -10.556  16.913  65.440  1.00  0.00    -0.579 OA 
BRANCH  32  36
ATOM     36  CB  GLU A   1      -8.411  15.796  67.460  1.00  0.00    -0.183 C  
BRANCH  36  37
ATOM     37  CG  GLU A   1      -7.764  14.658  68.258  1.00  0.00    -0.123 C  
ATOM     38  CD  GLU A   1      -7.005  15.155  69.461  1.00  0.00    -0.189 C  
ATOM     39  OE2 GLU A   1      -6.886  16.326  69.783  1.00  0.00    -0.183 OA 
ATOM     40  OE1 GLU A   1      -6.461  14.142  70.174  1.00  0.00    -0.144 OA 
ENDBRANCH  36  37
ENDBRANCH  32  36
ENDBRANCH  30  32
ENDBRANCH  24  28
ENDBRANCH  20  22
ENDBRANCH  19  20
ENDBRANCH   4  19
TORSDOF 7
ENDMDL
MODEL      187
REMARK 921   NORMALIZED FREE ENERGY PREDICTED BY IDOCK:   -4.28 KCAL/MOL
REMARK 922        TOTAL FREE ENERGY PREDICTED BY IDOCK:   -7.30 KCAL/MOL
REMARK 923 INTER-LIGAND FREE ENERGY PREDICTED BY IDOCK:   -7.86 KCAL/MOL
REMARK 924 INTRA-LIGAND FREE ENERGY PREDICTED BY IDOCK:    0.56 KCAL/MOL
REMARK 927      BINDING AFFINITY PREDICTED BY RF-SCORE:    0.00 PKD
ROOT
HETATM    1  C   UNK A   0     -11.819  15.749  66.662  1.00  0.00     0.692 C  
HETATM    2  N   UNK A   0     -11.097  14.571  66.798  1.00  0.00    -0.317 N  
HETATM    3  O   UNK A   0     -12.121  16.529  67.560  1.00  0.00     0.816 OA 
HETATM    4  C   UNK A   0     -10.584  14.111  68.140  1.00  0.00    -0.246 C  
HETATM    5  C   UNK A   0      -9.134  13.600  67.972  1.00  0.00    -0.192 C  
HETATM    6  C   UNK A   0     -10.159  12.047  63.603  1.00  0.00    -0.415 C  
HETATM    7  H   UNK A   0     -11.414  13.181  62.443  1.00  0.00     0.000 HD 
HETATM    8  N   UNK A   0      -9.129  12.583  66.935  1.00  0.00    -0.209 NA 
HETATM    9  H   UNK A   0      -8.574  11.737  67.064  1.00  0.00     0.000 HD 
HETATM   10  H2  UNK A   0     -10.371  11.323  61.667  1.00  0.00     0.000 HD 
HETATM   11  C   UNK A   0      -9.866  12.742  65.772  1.00  0.00    -0.214 C  
HETATM   12  O   UNK A   0     -12.577  14.447  64.234  1.00  0.00    -0.676 OA 
HETATM   13  C   UNK A   0     -10.818  13.712  65.704  1.00  0.00    -0.279 C  
HETATM   14  H1  UNK A   0      -9.209  10.486  62.725  1.00  0.00     0.000 HD 
HETATM   15  C   UNK A   0     -11.556  13.788  64.405  1.00  0.00    -0.395 C  
HETATM   16  N   UNK A   0      -9.557  11.898  64.734  1.00  0.00    -0.427 NA 
HETATM   17  N   UNK A   0      -9.900  11.219  62.565  1.00  0.00    -0.575 NA 
HETATM   18  N   UNK A   0     -11.075  13.019  63.391  1.00  0.00    -0.531 N  
ENDROOT
BRANCH   4  19
HETATM   19  C   UNK A   0     -10.651  15.131  69.298  1.00  0.00    -0.253 C  
BRANCH  19  20
HETATM   20  N   UNK A   0     -11.688  14.779  70.282  1.00  0.00    -0.282 NA 
HETATM   21  H   UNK A   0     -12.294  15.489  70.693  1.00  0.00     0.000 HD 
BRANCH  20  22
HETATM   22  C   UNK A   0     -11.806  13.429  70.629  1.00  0.00    -0.081 A  
HETATM   23  C   UNK A   0     -12.977  11.736  71.935  1.00  0.00    -0.435 A  
HETATM   24  C   UNK A   0     -12.333  10.729  71.209  1.00  0.00    -0.470 A  
HETATM   25  C   UNK A   0     -11.083  12.406  70.003  1.00  0.00     0.384 A  
HETATM   26  C   UNK A   0     -12.702  13.080  71.648  1.00  0.00    -0.308 A  
HETATM   27  C   UNK A   0     -11.346  11.066  70.281  1.00  0.00    -0.291 A  
BRANCH  24  28
HETATM   28  C   UNK A   0     -12.701   9.309  71.426  1.00  0.00    -0.330 C  
ATOM     29  H   GLU A   1     -10.691   8.728  71.292  1.00  0.00     0.000 HD 
ATOM     30  N   GLU A   1     -11.653   8.400  71.376  1.00  0.00    -0.273 N  
HETATM   31  O   UNK A   0     -13.867   8.981  71.602  1.00  0.00    -0.390 OA 
BRANCH  30  32
ATOM     32  CA  GLU A   1     -11.940   6.954  71.446  1.00  0.00    -0.349 C  
ATOM     33  C   GLU A   1     -11.313   6.370  72.725  1.00  0.00    -0.191 C  
ATOM     34  O   GLU A   1     -10.263   7.097  73.183  1.00  0.00    -0.217 OA 
ATOM     35  OXT GLU A   1     -11.609   5.284  73.203  1.00  0.00    -0.297 OA 
BRANCH  32  36
ATOM     36  CB  GLU A   1     -11.373   6.239  70.210  1.00  0.00    -0.457 C  
BRANCH  36  37
ATOM     37  CG  GLU A   1     -10.083   5.466  70.505  1.00  0.00    -0.306 C  
ATOM     38  CD  GLU A   1      -8.866   6.120  69.901  1.00  0.00    -0.140 C  
ATOM     39  OE2 GLU A   1      -8.876   7.143  69.234  1.00  0.00    -0.136 OA 
ATOM     40  OE1 GLU A   1      -7.730   5.446  70.189  1.00  0.00    -0.074 OA 
ENDBRANCH  36  37
ENDBRANCH  32  36
ENDBRANCH  30  32
ENDBRANCH  24  28
ENDBRANCH  20  22
ENDBRANCH  19  20
ENDBRANCH   4  19
TORSDOF 7
ENDMDL
MODEL      188
REMARK 921   NORMALIZED FREE ENERGY PREDICTED BY IDOCK:   -4.27 KCAL/MOL
REMARK 922        TOTAL FREE ENERGY PREDICTED BY IDOCK:   -7.29 KCAL/MOL
REMARK 923 INTER-LIGAND FREE ENERGY PREDICTED BY IDOCK:   -8.47 KCAL/MOL
REMARK 924 INTRA-LIGAND FREE ENERGY PREDICTED BY IDOCK:    1.18 KCAL/MOL
REMARK 927      BINDING AFFINITY PREDICTED BY RF-SCORE:    0.00 PKD
ROOT
HETATM    1  C   UNK A   0      -6.421  18.993  69.628  1.00  0.00    -0.227 C  
HETATM    2  N   UNK A   0      -6.302  18.235  68.472  1.00  0.00    -0.207 N  
HETATM    3  O   UNK A   0      -6.606  20.205  69.692  1.00  0.00    -0.319 OA 
HETATM    4  C   UNK A   0      -6.393  18.864  67.103  1.00  0.00    -0.183 C  
HETATM    5  C   UNK A   0      -7.265  17.963  66.198  1.00  0.00    -0.303 C  
HETATM    6  C   UNK A   0      -5.685  14.103  68.466  1.00  0.00    -0.095 C  
HETATM    7  H   UNK A   0      -5.388  14.224  70.492  1.00  0.00     0.000 HD 
HETATM    8  N   UNK A   0      -6.706  16.623  66.218  1.00  0.00    -0.100 NA 
HETATM    9  H   UNK A   0      -6.649  16.090  65.350  1.00  0.00     0.000 HD 
HETATM   10  H2  UNK A   0      -5.158  12.289  69.333  1.00  0.00     0.000 HD 
HETATM   11  C   UNK A   0      -6.251  16.054  67.397  1.00  0.00    -0.157 C  
HETATM   12  O   UNK A   0      -5.132  16.684  70.709  1.00  0.00    -0.208 OA 
HETATM   13  C   UNK A   0      -6.059  16.838  68.493  1.00  0.00    -0.136 C  
HETATM   14  H1  UNK A   0      -5.561  12.274  67.598  1.00  0.00     0.000 HD 
HETATM   15  C   UNK A   0      -5.558  16.120  69.706  1.00  0.00    -0.148 C  
HETATM   16  N   UNK A   0      -6.039  14.698  67.378  1.00  0.00    -0.316 NA 
HETATM   17  N   UNK A   0      -5.443  12.771  68.481  1.00  0.00    -0.060 NA 
HETATM   18  N   UNK A   0      -5.530  14.762  69.636  1.00  0.00    -0.093 N  
ENDROOT
BRANCH   4  19
HETATM   19  C   UNK A   0      -6.898  20.322  67.040  1.00  0.00    -0.240 C  
BRANCH  19  20
HETATM   20  N   UNK A   0      -8.261  20.408  66.489  1.00  0.00    -0.529 NA 
HETATM   21  H   UNK A   0      -8.517  21.129  65.814  1.00  0.00     0.000 HD 
BRANCH  20  22
HETATM   22  C   UNK A   0      -9.190  19.460  66.932  1.00  0.00    -0.322 A  
HETATM   23  C   UNK A   0     -10.670  17.609  66.361  1.00  0.00    -0.093 A  
HETATM   24  C   UNK A   0     -10.855  17.336  67.720  1.00  0.00    -0.261 A  
HETATM   25  C   UNK A   0      -9.488  19.245  68.283  1.00  0.00    -0.421 A  
HETATM   26  C   UNK A   0      -9.847  18.676  65.975  1.00  0.00    -0.203 A  
HETATM   27  C   UNK A   0     -10.306  18.189  68.680  1.00  0.00    -0.315 A  
BRANCH  24  28
HETATM   28  C   UNK A   0     -11.629  16.143  68.136  1.00  0.00    -0.133 C  
ATOM     29  H   GLU A   1     -11.521  16.728  70.147  1.00  0.00     0.000 HD 
ATOM     30  N   GLU A   1     -11.821  15.995  69.504  1.00  0.00    -0.288 N  
HETATM   31  O   UNK A   0     -12.034  15.335  67.311  1.00  0.00    -0.104 OA 
BRANCH  30  32
ATOM     32  CA  GLU A   1     -12.462  14.771  70.021  1.00  0.00    -0.281 C  
ATOM     33  C   GLU A   1     -13.113  15.072  71.384  1.00  0.00    -0.389 C  
ATOM     34  O   GLU A   1     -12.544  16.123  72.025  1.00  0.00    -0.446 OA 
ATOM     35  OXT GLU A   1     -13.946  14.356  71.922  1.00  0.00    -0.408 OA 
BRANCH  32  36
ATOM     36  CB  GLU A   1     -11.422  13.650  70.173  1.00  0.00    -0.111 C  
BRANCH  36  37
ATOM     37  CG  GLU A   1     -11.900  12.309  69.607  1.00  0.00    -0.393 C  
ATOM     38  CD  GLU A   1     -11.172  11.921  68.345  1.00  0.00    -0.258 C  
ATOM     39  OE2 GLU A   1     -10.305  12.586  67.802  1.00  0.00    -0.213 OA 
ATOM     40  OE1 GLU A   1     -11.581  10.723  67.869  1.00  0.00    -0.504 OA 
ENDBRANCH  36  37
ENDBRANCH  32  36
ENDBRANCH  30  32
ENDBRANCH  24  28
ENDBRANCH  20  22
ENDBRANCH  19  20
ENDBRANCH   4  19
TORSDOF 7
ENDMDL
MODEL      189
REMARK 921   NORMALIZED FREE ENERGY PREDICTED BY IDOCK:   -4.24 KCAL/MOL
REMARK 922        TOTAL FREE ENERGY PREDICTED BY IDOCK:   -7.24 KCAL/MOL
REMARK 923 INTER-LIGAND FREE ENERGY PREDICTED BY IDOCK:   -7.80 KCAL/MOL
REMARK 924 INTRA-LIGAND FREE ENERGY PREDICTED BY IDOCK:    0.55 KCAL/MOL
REMARK 927      BINDING AFFINITY PREDICTED BY RF-SCORE:    0.00 PKD
ROOT
HETATM    1  C   UNK A   0     -12.244  14.387  65.601  1.00  0.00    -0.344 C  
HETATM    2  N   UNK A   0     -11.459  14.903  66.623  1.00  0.00    -0.332 N  
HETATM    3  O   UNK A   0     -12.653  13.234  65.504  1.00  0.00    -0.474 OA 
HETATM    4  C   UNK A   0     -11.008  14.046  67.780  1.00  0.00    -0.258 C  
HETATM    5  C   UNK A   0     -11.171  14.850  69.091  1.00  0.00    -0.279 C  
HETATM    6  C   UNK A   0     -10.172  18.875  66.778  1.00  0.00    -0.394 C  
HETATM    7  H   UNK A   0     -10.891  19.098  64.870  1.00  0.00     0.000 HD 
HETATM    8  N   UNK A   0     -10.455  16.106  68.945  1.00  0.00    -0.241 NA 
HETATM    9  H   UNK A   0      -9.900  16.460  69.724  1.00  0.00     0.000 HD 
HETATM   10  H2  UNK A   0      -9.796  20.752  65.968  1.00  0.00     0.000 HD 
HETATM   11  C   UNK A   0     -10.513  16.830  67.765  1.00  0.00    -0.335 C  
HETATM   12  O   UNK A   0     -11.220  16.708  64.286  1.00  0.00    -1.098 OA 
HETATM   13  C   UNK A   0     -11.006  16.247  66.639  1.00  0.00    -0.016 C  
HETATM   14  H1  UNK A   0      -9.325  20.489  67.666  1.00  0.00     0.000 HD 
HETATM   15  C   UNK A   0     -11.013  17.119  65.424  1.00  0.00     0.035 C  
HETATM   16  N   UNK A   0     -10.075  18.130  67.826  1.00  0.00    -0.344 NA 
HETATM   17  N   UNK A   0      -9.729  20.153  66.791  1.00  0.00    -0.421 NA 
HETATM   18  N   UNK A   0     -10.709  18.431  65.619  1.00  0.00    -0.246 N  
ENDROOT
BRANCH   4  19
HETATM   19  C   UNK A   0     -11.679  12.662  67.925  1.00  0.00    -0.358 C  
BRANCH  19  20
HETATM   20  N   UNK A   0     -10.813  11.577  67.435  1.00  0.00    -0.232 NA 
HETATM   21  H   UNK A   0     -10.449  11.576  66.482  1.00  0.00     0.000 HD 
BRANCH  20  22
HETATM   22  C   UNK A   0     -10.512  10.547  68.332  1.00  0.00    -0.186 A  
HETATM   23  C   UNK A   0     -10.348   8.147  68.729  1.00  0.00    -0.220 A  
HETATM   24  C   UNK A   0      -9.682   8.390  69.934  1.00  0.00    -0.179 A  
HETATM   25  C   UNK A   0      -9.956  10.766  69.599  1.00  0.00    -0.005 A  
HETATM   26  C   UNK A   0     -10.769   9.227  67.940  1.00  0.00    -0.248 A  
HETATM   27  C   UNK A   0      -9.535   9.701  70.393  1.00  0.00    -0.280 A  
BRANCH  24  28
HETATM   28  C   UNK A   0      -9.133   7.258  70.718  1.00  0.00    -0.152 C  
ATOM     29  H   GLU A   1     -10.260   5.889  69.598  1.00  0.00     0.000 HD 
ATOM     30  N   GLU A   1      -9.631   6.003  70.394  1.00  0.00    -0.162 N  
HETATM   31  O   UNK A   0      -8.318   7.447  71.611  1.00  0.00    -0.103 OA 
BRANCH  30  32
ATOM     32  CA  GLU A   1      -9.245   4.835  71.208  1.00  0.00    -0.142 C  
ATOM     33  C   GLU A   1     -10.257   4.655  72.355  1.00  0.00    -0.189 C  
ATOM     34  O   GLU A   1     -10.897   5.804  72.686  1.00  0.00    -0.223 OA 
ATOM     35  OXT GLU A   1     -10.373   3.633  73.018  1.00  0.00    -0.151 OA 
BRANCH  32  36
ATOM     36  CB  GLU A   1      -7.833   5.029  71.781  1.00  0.00    -0.108 C  
BRANCH  36  37
ATOM     37  CG  GLU A   1      -7.421   3.917  72.751  1.00  0.00    -0.072 C  
ATOM     38  CD  GLU A   1      -6.485   2.917  72.120  1.00  0.00    -0.015 C  
ATOM     39  OE2 GLU A   1      -6.093   2.954  70.965  1.00  0.00    -0.017 OA 
ATOM     40  OE1 GLU A   1      -6.106   1.955  72.992  1.00  0.00    -0.008 OA 
ENDBRANCH  36  37
ENDBRANCH  32  36
ENDBRANCH  30  32
ENDBRANCH  24  28
ENDBRANCH  20  22
ENDBRANCH  19  20
ENDBRANCH   4  19
TORSDOF 7
ENDMDL
MODEL      190
REMARK 921   NORMALIZED FREE ENERGY PREDICTED BY IDOCK:   -4.23 KCAL/MOL
REMARK 922        TOTAL FREE ENERGY PREDICTED BY IDOCK:   -7.24 KCAL/MOL
REMARK 923 INTER-LIGAND FREE ENERGY PREDICTED BY IDOCK:   -7.19 KCAL/MOL
REMARK 924 INTRA-LIGAND FREE ENERGY PREDICTED BY IDOCK:   -0.05 KCAL/MOL
REMARK 927      BINDING AFFINITY PREDICTED BY RF-SCORE:    0.00 PKD
ROOT
HETATM    1  C   UNK A   0     -10.941  14.368  68.782  1.00  0.00    -0.250 C  
HETATM    2  N   UNK A   0     -10.416  14.562  67.512  1.00  0.00    -0.252 N  
HETATM    3  O   UNK A   0     -10.529  14.862  69.828  1.00  0.00    -0.212 OA 
HETATM    4  C   UNK A   0      -9.220  15.453  67.281  1.00  0.00    -0.207 C  
HETATM    5  C   UNK A   0      -9.479  16.320  66.027  1.00  0.00    -0.334 C  
HETATM    6  C   UNK A   0     -11.975  12.790  64.065  1.00  0.00    -0.447 C  
HETATM    7  H   UNK A   0     -13.173  11.657  65.286  1.00  0.00     0.000 HD 
HETATM    8  N   UNK A   0      -9.804  15.435  64.922  1.00  0.00    -0.280 NA 
HETATM    9  H   UNK A   0      -9.410  15.619  63.999  1.00  0.00     0.000 HD 
HETATM   10  H2  UNK A   0     -13.128  11.402  63.033  1.00  0.00     0.000 HD 
HETATM   11  C   UNK A   0     -10.640  14.344  65.101  1.00  0.00    -0.410 C  
HETATM   12  O   UNK A   0     -12.053  12.094  67.458  1.00  0.00    -0.534 OA 
HETATM   13  C   UNK A   0     -10.941  13.924  66.360  1.00  0.00    -0.303 C  
HETATM   14  H1  UNK A   0     -12.142  12.523  62.062  1.00  0.00     0.000 HD 
HETATM   15  C   UNK A   0     -11.845  12.735  66.432  1.00  0.00    -0.408 C  
HETATM   16  N   UNK A   0     -11.135  13.762  63.960  1.00  0.00    -0.562 NA 
HETATM   17  N   UNK A   0     -12.466  12.175  62.964  1.00  0.00    -0.693 NA 
HETATM   18  N   UNK A   0     -12.406  12.329  65.261  1.00  0.00    -0.287 N  
ENDROOT
BRANCH   4  19
HETATM   19  C   UNK A   0      -8.781  16.349  68.460  1.00  0.00    -0.223 C  
BRANCH  19  20
HETATM   20  N   UNK A   0      -7.370  16.133  68.819  1.00  0.00    -0.172 NA 
HETATM   21  H   UNK A   0      -6.754  16.914  69.046  1.00  0.00     0.000 HD 
BRANCH  20  22
HETATM   22  C   UNK A   0      -6.910  14.812  68.836  1.00  0.00    -0.105 A  
HETATM   23  C   UNK A   0      -6.320  12.857  70.166  1.00  0.00     0.061 A  
HETATM   24  C   UNK A   0      -6.259  12.082  69.003  1.00  0.00    -0.079 A  
HETATM   25  C   UNK A   0      -6.720  14.047  67.678  1.00  0.00    -0.188 A  
HETATM   26  C   UNK A   0      -6.635  14.219  70.075  1.00  0.00    -0.088 A  
HETATM   27  C   UNK A   0      -6.406  12.692  67.755  1.00  0.00    -0.130 A  
BRANCH  24  28
HETATM   28  C   UNK A   0      -6.040  10.619  69.099  1.00  0.00    -0.042 C  
ATOM     29  H   GLU A   1      -7.594  10.261  67.736  1.00  0.00     0.000 HD 
ATOM     30  N   GLU A   1      -6.917   9.829  68.366  1.00  0.00    -0.068 N  
HETATM   31  O   UNK A   0      -5.158  10.160  69.811  1.00  0.00    -0.038 OA 
BRANCH  30  32
ATOM     32  CA  GLU A   1      -6.862   8.362  68.504  1.00  0.00    -0.064 C  
ATOM     33  C   GLU A   1      -7.910   7.721  67.574  1.00  0.00    -0.122 C  
ATOM     34  O   GLU A   1      -8.938   8.555  67.277  1.00  0.00    -0.128 OA 
ATOM     35  OXT GLU A   1      -7.917   6.540  67.255  1.00  0.00    -0.110 OA 
BRANCH  32  36
ATOM     36  CB  GLU A   1      -7.136   7.955  69.960  1.00  0.00    -0.050 C  
BRANCH  36  37
ATOM     37  CG  GLU A   1      -8.375   7.066  70.111  1.00  0.00    -0.138 C  
ATOM     38  CD  GLU A   1      -8.126   5.874  71.000  1.00  0.00    -0.121 C  
ATOM     39  OE2 GLU A   1      -7.064   5.610  71.541  1.00  0.00    -0.068 OA 
ATOM     40  OE1 GLU A   1      -9.233   5.110  71.149  1.00  0.00    -0.139 OA 
ENDBRANCH  36  37
ENDBRANCH  32  36
ENDBRANCH  30  32
ENDBRANCH  24  28
ENDBRANCH  20  22
ENDBRANCH  19  20
ENDBRANCH   4  19
TORSDOF 7
ENDMDL
MODEL      191
REMARK 921   NORMALIZED FREE ENERGY PREDICTED BY IDOCK:   -4.23 KCAL/MOL
REMARK 922        TOTAL FREE ENERGY PREDICTED BY IDOCK:   -7.23 KCAL/MOL
REMARK 923 INTER-LIGAND FREE ENERGY PREDICTED BY IDOCK:   -6.87 KCAL/MOL
REMARK 924 INTRA-LIGAND FREE ENERGY PREDICTED BY IDOCK:   -0.35 KCAL/MOL
REMARK 927      BINDING AFFINITY PREDICTED BY RF-SCORE:    0.00 PKD
ROOT
HETATM    1  C   UNK A   0     -10.175  14.393  67.776  1.00  0.00    -0.230 C  
HETATM    2  N   UNK A   0      -9.873  13.220  67.099  1.00  0.00    -0.232 N  
HETATM    3  O   UNK A   0      -9.578  14.854  68.744  1.00  0.00    -0.204 OA 
HETATM    4  C   UNK A   0      -8.711  12.349  67.512  1.00  0.00    -0.179 C  
HETATM    5  C   UNK A   0      -7.956  11.891  66.243  1.00  0.00     0.235 C  
HETATM    6  C   UNK A   0     -12.031  11.821  63.807  1.00  0.00    -0.363 C  
HETATM    7  H   UNK A   0     -13.413  13.288  64.191  1.00  0.00     0.000 HD 
HETATM    8  N   UNK A   0      -8.911  11.254  65.352  1.00  0.00    -0.368 NA 
HETATM    9  H   UNK A   0      -8.646  10.401  64.860  1.00  0.00     0.000 HD 
HETATM   10  H2  UNK A   0     -13.681  11.752  62.544  1.00  0.00     0.000 HD 
HETATM   11  C   UNK A   0     -10.175  11.788  65.158  1.00  0.00    -0.268 C  
HETATM   12  O   UNK A   0     -12.676  13.942  66.470  1.00  0.00    -0.302 OA 
HETATM   13  C   UNK A   0     -10.639  12.747  66.004  1.00  0.00    -0.268 C  
HETATM   14  H1  UNK A   0     -12.360  10.601  62.221  1.00  0.00     0.000 HD 
HETATM   15  C   UNK A   0     -12.018  13.243  65.705  1.00  0.00    -0.412 C  
HETATM   16  N   UNK A   0     -10.879  11.310  64.081  1.00  0.00    -0.360 NA 
HETATM   17  N   UNK A   0     -12.766  11.360  62.769  1.00  0.00    -0.722 NA 
HETATM   18  N   UNK A   0     -12.569  12.827  64.533  1.00  0.00    -0.659 N  
ENDROOT
BRANCH   4  19
HETATM   19  C   UNK A   0      -7.716  12.950  68.528  1.00  0.00    -0.109 C  
BRANCH  19  20
HETATM   20  N   UNK A   0      -6.733  11.957  68.990  1.00  0.00    -0.093 NA 
HETATM   21  H   UNK A   0      -5.734  12.079  68.824  1.00  0.00     0.000 HD 
BRANCH  20  22
HETATM   22  C   UNK A   0      -7.228  10.837  69.668  1.00  0.00    -0.125 A  
HETATM   23  C   UNK A   0      -6.756   8.944  71.129  1.00  0.00    -0.081 A  
HETATM   24  C   UNK A   0      -8.128   8.728  71.295  1.00  0.00    -0.195 A  
HETATM   25  C   UNK A   0      -8.591  10.525  69.750  1.00  0.00     0.123 A  
HETATM   26  C   UNK A   0      -6.314   9.990  70.309  1.00  0.00    -0.107 A  
HETATM   27  C   UNK A   0      -9.043   9.486  70.560  1.00  0.00    -0.276 A  
BRANCH  24  28
HETATM   28  C   UNK A   0      -8.606   7.699  72.248  1.00  0.00    -0.123 C  
ATOM     29  H   GLU A   1      -7.920   6.165  70.994  1.00  0.00     0.000 HD 
ATOM     30  N   GLU A   1      -8.434   6.380  71.848  1.00  0.00    -0.123 N  
HETATM   31  O   UNK A   0      -9.145   8.016  73.300  1.00  0.00    -0.247 OA 
BRANCH  30  32
ATOM     32  CA  GLU A   1      -8.999   5.291  72.669  1.00  0.00    -0.132 C  
ATOM     33  C   GLU A   1      -7.854   4.520  73.352  1.00  0.00    -0.091 C  
ATOM     34  O   GLU A   1      -6.675   4.622  72.690  1.00  0.00    -0.047 OA 
ATOM     35  OXT GLU A   1      -8.005   3.760  74.299  1.00  0.00    -0.076 OA 
BRANCH  32  36
ATOM     36  CB  GLU A   1      -9.824   4.337  71.791  1.00  0.00    -0.250 C  
BRANCH  36  37
ATOM     37  CG  GLU A   1     -10.627   5.064  70.708  1.00  0.00    -0.148 C  
ATOM     38  CD  GLU A   1     -10.062   4.849  69.327  1.00  0.00    -0.178 C  
ATOM     39  OE2 GLU A   1      -9.069   4.188  69.070  1.00  0.00    -0.106 OA 
ATOM     40  OE1 GLU A   1     -10.794   5.472  68.375  1.00  0.00    -0.155 OA 
ENDBRANCH  36  37
ENDBRANCH  32  36
ENDBRANCH  30  32
ENDBRANCH  24  28
ENDBRANCH  20  22
ENDBRANCH  19  20
ENDBRANCH   4  19
TORSDOF 7
ENDMDL
MODEL      192
REMARK 921   NORMALIZED FREE ENERGY PREDICTED BY IDOCK:   -4.22 KCAL/MOL
REMARK 922        TOTAL FREE ENERGY PREDICTED BY IDOCK:   -7.21 KCAL/MOL
REMARK 923 INTER-LIGAND FREE ENERGY PREDICTED BY IDOCK:   -6.31 KCAL/MOL
REMARK 924 INTRA-LIGAND FREE ENERGY PREDICTED BY IDOCK:   -0.90 KCAL/MOL
REMARK 927      BINDING AFFINITY PREDICTED BY RF-SCORE:    0.00 PKD
ROOT
HETATM    1  C   UNK A   0      -9.575   7.331  66.333  1.00  0.00    -0.104 C  
HETATM    2  N   UNK A   0      -8.645   7.014  65.353  1.00  0.00    -0.315 N  
HETATM    3  O   UNK A   0     -10.096   8.426  66.520  1.00  0.00    -0.276 OA 
HETATM    4  C   UNK A   0      -8.158   8.046  64.365  1.00  0.00    -0.123 C  
HETATM    5  C   UNK A   0      -8.110   7.407  62.958  1.00  0.00    -0.048 C  
HETATM    6  C   UNK A   0      -6.990   3.208  64.872  1.00  0.00    -0.053 C  
HETATM    7  H   UNK A   0      -7.878   2.685  66.645  1.00  0.00     0.000 HD 
HETATM    8  N   UNK A   0      -7.300   6.203  63.034  1.00  0.00    -0.055 NA 
HETATM    9  H   UNK A   0      -6.638   5.996  62.286  1.00  0.00     0.000 HD 
HETATM   10  H2  UNK A   0      -6.528   1.278  65.488  1.00  0.00     0.000 HD 
HETATM   11  C   UNK A   0      -7.413   5.330  64.104  1.00  0.00    -0.059 C  
HETATM   12  O   UNK A   0      -8.483   4.948  67.470  1.00  0.00    -0.105 OA 
HETATM   13  C   UNK A   0      -8.071   5.723  65.228  1.00  0.00    -0.130 C  
HETATM   14  H1  UNK A   0      -5.910   1.793  63.900  1.00  0.00     0.000 HD 
HETATM   15  C   UNK A   0      -8.123   4.704  66.322  1.00  0.00    -0.103 C  
HETATM   16  N   UNK A   0      -6.853   4.087  63.939  1.00  0.00    -0.044 NA 
HETATM   17  N   UNK A   0      -6.432   1.981  64.756  1.00  0.00    -0.019 NA 
HETATM   18  N   UNK A   0      -7.682   3.456  66.007  1.00  0.00    -0.081 N  
ENDROOT
BRANCH   4  19
HETATM   19  C   UNK A   0      -8.934   9.380  64.312  1.00  0.00    -0.160 C  
BRANCH  19  20
HETATM   20  N   UNK A   0      -8.067  10.534  64.601  1.00  0.00    -0.313 NA 
HETATM   21  H   UNK A   0      -7.262  10.755  64.015  1.00  0.00     0.000 HD 
BRANCH  20  22
HETATM   22  C   UNK A   0      -8.395  11.315  65.716  1.00  0.00     0.023 A  
HETATM   23  C   UNK A   0      -7.629  12.422  67.747  1.00  0.00    -0.134 A  
HETATM   24  C   UNK A   0      -8.851  13.096  67.842  1.00  0.00    -0.196 A  
HETATM   25  C   UNK A   0      -9.651  11.904  65.901  1.00  0.00    -0.248 A  
HETATM   26  C   UNK A   0      -7.412  11.528  66.690  1.00  0.00    -0.078 A  
HETATM   27  C   UNK A   0      -9.880  12.794  66.948  1.00  0.00    -0.236 A  
BRANCH  24  28
HETATM   28  C   UNK A   0      -9.048  14.127  68.888  1.00  0.00     0.009 C  
ATOM     29  H   GLU A   1     -11.128  14.042  68.633  1.00  0.00     0.000 HD 
ATOM     30  N   GLU A   1     -10.362  14.520  69.108  1.00  0.00    -0.221 N  
HETATM   31  O   UNK A   0      -8.094  14.610  69.484  1.00  0.00    -0.047 OA 
BRANCH  30  32
ATOM     32  CA  GLU A   1     -10.643  15.635  70.032  1.00  0.00    -0.332 C  
ATOM     33  C   GLU A   1     -11.999  15.397  70.723  1.00  0.00    -0.359 C  
ATOM     34  O   GLU A   1     -12.828  14.599  70.006  1.00  0.00    -0.235 OA 
ATOM     35  OXT GLU A   1     -12.370  15.983  71.731  1.00  0.00    -0.452 OA 
BRANCH  32  36
ATOM     36  CB  GLU A   1     -10.672  16.967  69.265  1.00  0.00    -0.288 C  
BRANCH  36  37
ATOM     37  CG  GLU A   1     -10.525  16.789  67.751  1.00  0.00    -0.335 C  
ATOM     38  CD  GLU A   1     -10.054  18.046  67.064  1.00  0.00    -0.346 C  
ATOM     39  OE2 GLU A   1      -9.822  19.106  67.622  1.00  0.00    -0.311 OA 
ATOM     40  OE1 GLU A   1      -9.901  17.871  65.732  1.00  0.00    -0.540 OA 
ENDBRANCH  36  37
ENDBRANCH  32  36
ENDBRANCH  30  32
ENDBRANCH  24  28
ENDBRANCH  20  22
ENDBRANCH  19  20
ENDBRANCH   4  19
TORSDOF 7
ENDMDL
MODEL      193
REMARK 921   NORMALIZED FREE ENERGY PREDICTED BY IDOCK:   -4.21 KCAL/MOL
REMARK 922        TOTAL FREE ENERGY PREDICTED BY IDOCK:   -7.20 KCAL/MOL
REMARK 923 INTER-LIGAND FREE ENERGY PREDICTED BY IDOCK:   -6.15 KCAL/MOL
REMARK 924 INTRA-LIGAND FREE ENERGY PREDICTED BY IDOCK:   -1.05 KCAL/MOL
REMARK 927      BINDING AFFINITY PREDICTED BY RF-SCORE:    0.00 PKD
ROOT
HETATM    1  C   UNK A   0      -9.384   4.437  68.991  1.00  0.00    -0.154 C  
HETATM    2  N   UNK A   0      -9.098   4.997  67.754  1.00  0.00    -0.111 N  
HETATM    3  O   UNK A   0      -9.236   4.969  70.088  1.00  0.00    -0.124 OA 
HETATM    4  C   UNK A   0      -8.544   6.396  67.631  1.00  0.00    -0.115 C  
HETATM    5  C   UNK A   0      -9.273   7.121  66.477  1.00  0.00    -0.162 C  
HETATM    6  C   UNK A   0      -9.686   3.019  64.122  1.00  0.00    -0.154 C  
HETATM    7  H   UNK A   0     -10.068   1.318  65.202  1.00  0.00     0.000 HD 
HETATM    8  N   UNK A   0      -9.149   6.308  65.280  1.00  0.00    -0.362 NA 
HETATM    9  H   UNK A   0      -8.953   6.758  64.386  1.00  0.00     0.000 HD 
HETATM   10  H2  UNK A   0     -10.008   1.343  62.935  1.00  0.00     0.000 HD 
HETATM   11  C   UNK A   0      -9.294   4.931  65.331  1.00  0.00    -0.140 C  
HETATM   12  O   UNK A   0      -9.229   2.057  67.419  1.00  0.00    -0.146 OA 
HETATM   13  C   UNK A   0      -9.274   4.295  66.535  1.00  0.00    -0.149 C  
HETATM   14  H1  UNK A   0      -9.789   2.901  62.100  1.00  0.00     0.000 HD 
HETATM   15  C   UNK A   0      -9.431   2.810  66.470  1.00  0.00     0.074 C  
HETATM   16  N   UNK A   0      -9.473   4.291  64.130  1.00  0.00    -0.205 NA 
HETATM   17  N   UNK A   0      -9.843   2.349  62.957  1.00  0.00    -0.094 NA 
HETATM   18  N   UNK A   0      -9.759   2.288  65.257  1.00  0.00    -0.347 N  
ENDROOT
BRANCH   4  19
HETATM   19  C   UNK A   0      -8.573   7.270  68.904  1.00  0.00    -0.129 C  
BRANCH  19  20
HETATM   20  N   UNK A   0      -7.410   8.170  68.980  1.00  0.00    -0.081 NA 
HETATM   21  H   UNK A   0      -6.522   7.859  69.373  1.00  0.00     0.000 HD 
BRANCH  20  22
HETATM   22  C   UNK A   0      -7.575   9.470  68.490  1.00  0.00    -0.081 A  
HETATM   23  C   UNK A   0      -8.728  11.609  68.681  1.00  0.00    -0.083 A  
HETATM   24  C   UNK A   0      -7.817  12.181  67.787  1.00  0.00    -0.148 A  
HETATM   25  C   UNK A   0      -6.753  10.032  67.505  1.00  0.00    -0.072 A  
HETATM   26  C   UNK A   0      -8.608  10.254  69.018  1.00  0.00    -0.162 A  
HETATM   27  C   UNK A   0      -6.863  11.377  67.159  1.00  0.00    -0.124 A  
BRANCH  24  28
HETATM   28  C   UNK A   0      -7.865  13.637  67.512  1.00  0.00    -0.177 C  
ATOM     29  H   GLU A   1      -9.897  13.513  67.010  1.00  0.00     0.000 HD 
ATOM     30  N   GLU A   1      -9.081  14.124  67.052  1.00  0.00    -0.234 N  
HETATM   31  O   UNK A   0      -6.872  14.339  67.658  1.00  0.00    -0.170 OA 
BRANCH  30  32
ATOM     32  CA  GLU A   1      -9.186  15.532  66.625  1.00  0.00    -0.271 C  
ATOM     33  C   GLU A   1      -9.907  16.346  67.716  1.00  0.00    -0.239 C  
ATOM     34  O   GLU A   1     -10.711  15.586  68.501  1.00  0.00    -0.243 OA 
ATOM     35  OXT GLU A   1      -9.895  17.567  67.786  1.00  0.00    -0.269 OA 
BRANCH  32  36
ATOM     36  CB  GLU A   1      -9.960  15.630  65.301  1.00  0.00    -0.229 C  
BRANCH  36  37
ATOM     37  CG  GLU A   1     -10.226  14.263  64.661  1.00  0.00    -0.147 C  
ATOM     38  CD  GLU A   1     -11.651  13.806  64.844  1.00  0.00    -0.351 C  
ATOM     39  OE2 GLU A   1     -12.515  14.425  65.443  1.00  0.00    -0.407 OA 
ATOM     40  OE1 GLU A   1     -11.882  12.613  64.251  1.00  0.00    -0.344 OA 
ENDBRANCH  36  37
ENDBRANCH  32  36
ENDBRANCH  30  32
ENDBRANCH  24  28
ENDBRANCH  20  22
ENDBRANCH  19  20
ENDBRANCH   4  19
TORSDOF 7
ENDMDL
MODEL      194
REMARK 921   NORMALIZED FREE ENERGY PREDICTED BY IDOCK:   -4.10 KCAL/MOL
REMARK 922        TOTAL FREE ENERGY PREDICTED BY IDOCK:   -7.05 KCAL/MOL
REMARK 923 INTER-LIGAND FREE ENERGY PREDICTED BY IDOCK:   -5.98 KCAL/MOL
REMARK 924 INTRA-LIGAND FREE ENERGY PREDICTED BY IDOCK:   -1.07 KCAL/MOL
REMARK 927      BINDING AFFINITY PREDICTED BY RF-SCORE:    0.00 PKD
ROOT
HETATM    1  C   UNK A   0      -9.906  14.106  67.266  1.00  0.00    -0.238 C  
HETATM    2  N   UNK A   0      -9.881  12.891  66.594  1.00  0.00    -0.244 N  
HETATM    3  O   UNK A   0      -9.167  14.449  68.184  1.00  0.00    -0.185 OA 
HETATM    4  C   UNK A   0      -8.886  11.814  66.949  1.00  0.00    -0.191 C  
HETATM    5  C   UNK A   0      -8.320  11.209  65.644  1.00  0.00     0.002 C  
HETATM    6  C   UNK A   0     -12.485  11.915  63.476  1.00  0.00    -0.492 C  
HETATM    7  H   UNK A   0     -13.528  13.625  63.918  1.00  0.00     0.000 HD 
HETATM    8  N   UNK A   0      -9.437  10.764  64.828  1.00  0.00    -0.228 NA 
HETATM    9  H   UNK A   0      -9.376   9.872  64.338  1.00  0.00     0.000 HD 
HETATM   10  H2  UNK A   0     -14.197  12.159  62.323  1.00  0.00     0.000 HD 
HETATM   11  C   UNK A   0     -10.584  11.531  64.705  1.00  0.00    -0.305 C  
HETATM   12  O   UNK A   0     -12.528  14.140  66.132  1.00  0.00    -0.466 OA 
HETATM   13  C   UNK A   0     -10.797  12.568  65.560  1.00  0.00    -0.278 C  
HETATM   14  H1  UNK A   0     -13.148  10.772  61.939  1.00  0.00     0.000 HD 
HETATM   15  C   UNK A   0     -12.070  13.322  65.340  1.00  0.00    -0.422 C  
HETATM   16  N   UNK A   0     -11.438  11.192  63.685  1.00  0.00    -0.428 NA 
HETATM   17  N   UNK A   0     -13.363  11.599  62.496  1.00  0.00     0.114 NA 
HETATM   18  N   UNK A   0     -12.768  13.012  64.214  1.00  0.00    -0.687 N  
ENDROOT
BRANCH   4  19
HETATM   19  C   UNK A   0      -7.728  12.218  67.887  1.00  0.00    -0.133 C  
BRANCH  19  20
HETATM   20  N   UNK A   0      -6.585  11.297  67.779  1.00  0.00    -0.066 NA 
HETATM   21  H   UNK A   0      -5.947  11.331  66.984  1.00  0.00     0.000 HD 
BRANCH  20  22
HETATM   22  C   UNK A   0      -6.410  10.372  68.815  1.00  0.00    -0.047 A  
HETATM   23  C   UNK A   0      -5.784   9.978  71.137  1.00  0.00    -0.063 A  
HETATM   24  C   UNK A   0      -6.279   8.673  71.051  1.00  0.00    -0.042 A  
HETATM   25  C   UNK A   0      -6.784   9.025  68.717  1.00  0.00    -0.054 A  
HETATM   26  C   UNK A   0      -5.843  10.816  70.015  1.00  0.00    -0.083 A  
HETATM   27  C   UNK A   0      -6.729   8.182  69.824  1.00  0.00    -0.040 A  
BRANCH  24  28
HETATM   28  C   UNK A   0      -6.326   7.818  72.261  1.00  0.00    -0.045 C  
ATOM     29  H   GLU A   1      -6.933   6.169  71.117  1.00  0.00     0.000 HD 
ATOM     30  N   GLU A   1      -6.759   6.514  72.061  1.00  0.00    -0.062 N  
HETATM   31  O   UNK A   0      -6.029   8.266  73.361  1.00  0.00    -0.069 OA 
BRANCH  30  32
ATOM     32  CA  GLU A   1      -6.967   5.630  73.224  1.00  0.00    -0.085 C  
ATOM     33  C   GLU A   1      -5.922   4.499  73.200  1.00  0.00    -0.013 C  
ATOM     34  O   GLU A   1      -5.443   4.244  71.957  1.00  0.00    -0.003 OA 
ATOM     35  OXT GLU A   1      -5.656   3.786  74.158  1.00  0.00    -0.003 OA 
BRANCH  32  36
ATOM     36  CB  GLU A   1      -8.384   5.036  73.194  1.00  0.00    -0.108 C  
BRANCH  36  37
ATOM     37  CG  GLU A   1      -9.372   5.885  72.387  1.00  0.00    -0.149 C  
ATOM     38  CD  GLU A   1     -10.347   6.627  73.265  1.00  0.00    -0.253 C  
ATOM     39  OE2 GLU A   1     -10.381   6.568  74.484  1.00  0.00    -0.341 OA 
ATOM     40  OE1 GLU A   1     -11.197   7.395  72.546  1.00  0.00    -0.277 OA 
ENDBRANCH  36  37
ENDBRANCH  32  36
ENDBRANCH  30  32
ENDBRANCH  24  28
ENDBRANCH  20  22
ENDBRANCH  19  20
ENDBRANCH   4  19
TORSDOF 7
ENDMDL
MODEL      195
REMARK 921   NORMALIZED FREE ENERGY PREDICTED BY IDOCK:   -4.09 KCAL/MOL
REMARK 922        TOTAL FREE ENERGY PREDICTED BY IDOCK:   -7.03 KCAL/MOL
REMARK 923 INTER-LIGAND FREE ENERGY PREDICTED BY IDOCK:   -6.47 KCAL/MOL
REMARK 924 INTRA-LIGAND FREE ENERGY PREDICTED BY IDOCK:   -0.55 KCAL/MOL
REMARK 927      BINDING AFFINITY PREDICTED BY RF-SCORE:    0.00 PKD
ROOT
HETATM    1  C   UNK A   0     -11.347  15.035  70.195  1.00  0.00    -0.269 C  
HETATM    2  N   UNK A   0     -11.879  14.403  69.079  1.00  0.00    -0.313 N  
HETATM    3  O   UNK A   0     -11.475  14.685  71.365  1.00  0.00    -0.258 OA 
HETATM    4  C   UNK A   0     -12.714  13.152  69.205  1.00  0.00     0.731 C  
HETATM    5  C   UNK A   0     -12.282  12.152  68.109  1.00  0.00     0.264 C  
HETATM    6  C   UNK A   0     -11.317  15.750  65.165  1.00  0.00    -0.154 C  
HETATM    7  H   UNK A   0     -10.480  17.448  65.954  1.00  0.00     0.000 HD 
HETATM    8  N   UNK A   0     -12.374  12.821  66.822  1.00  0.00    -0.368 NA 
HETATM    9  H   UNK A   0     -12.757  12.318  66.022  1.00  0.00     0.000 HD 
HETATM   10  H2  UNK A   0     -10.800  17.160  63.728  1.00  0.00     0.000 HD 
HETATM   11  C   UNK A   0     -11.949  14.130  66.664  1.00  0.00    -0.444 C  
HETATM   12  O   UNK A   0     -11.194  17.183  68.317  1.00  0.00    -0.229 OA 
HETATM   13  C   UNK A   0     -11.703  14.896  67.762  1.00  0.00    -0.317 C  
HETATM   14  H1  UNK A   0     -11.422  15.596  63.146  1.00  0.00     0.000 HD 
HETATM   15  C   UNK A   0     -11.258  16.294  67.472  1.00  0.00    -0.054 C  
HETATM   16  N   UNK A   0     -11.781  14.565  65.373  1.00  0.00    -0.355 NA 
HETATM   17  N   UNK A   0     -11.161  16.223  63.907  1.00  0.00    -1.259 NA 
HETATM   18  N   UNK A   0     -10.971  16.581  66.173  1.00  0.00    -0.019 N  
ENDROOT
BRANCH   4  19
HETATM   19  C   UNK A   0     -12.719  12.454  70.583  1.00  0.00    -0.050 C  
BRANCH  19  20
HETATM   20  N   UNK A   0     -11.429  11.808  70.877  1.00  0.00     0.115 NA 
HETATM   21  H   UNK A   0     -10.632  12.343  71.220  1.00  0.00     0.000 HD 
BRANCH  20  22
HETATM   22  C   UNK A   0     -11.344  10.427  70.666  1.00  0.00    -0.325 A  
HETATM   23  C   UNK A   0     -10.035   8.553  69.820  1.00  0.00    -0.191 A  
HETATM   24  C   UNK A   0     -10.922   7.658  70.428  1.00  0.00    -0.256 A  
HETATM   25  C   UNK A   0     -12.284   9.513  71.158  1.00  0.00    -0.421 A  
HETATM   26  C   UNK A   0     -10.257   9.932  69.934  1.00  0.00    -0.298 A  
HETATM   27  C   UNK A   0     -12.075   8.140  71.050  1.00  0.00    -0.223 A  
BRANCH  24  28
HETATM   28  C   UNK A   0     -10.633   6.204  70.411  1.00  0.00    -0.257 C  
ATOM     29  H   GLU A   1      -9.070   6.492  69.043  1.00  0.00     0.000 HD 
ATOM     30  N   GLU A   1      -9.624   5.799  69.547  1.00  0.00    -0.137 N  
HETATM   31  O   UNK A   0     -11.280   5.426  71.100  1.00  0.00    -0.072 OA 
BRANCH  30  32
ATOM     32  CA  GLU A   1      -9.358   4.360  69.363  1.00  0.00    -0.156 C  
ATOM     33  C   GLU A   1      -8.453   3.857  70.503  1.00  0.00    -0.069 C  
ATOM     34  O   GLU A   1      -7.704   4.841  71.061  1.00  0.00    -0.077 OA 
ATOM     35  OXT GLU A   1      -8.291   2.678  70.784  1.00  0.00    -0.051 OA 
BRANCH  32  36
ATOM     36  CB  GLU A   1      -8.679   4.114  68.007  1.00  0.00    -0.116 C  
BRANCH  36  37
ATOM     37  CG  GLU A   1      -9.659   3.666  66.918  1.00  0.00    -0.180 C  
ATOM     38  CD  GLU A   1     -10.254   4.826  66.162  1.00  0.00    -0.281 C  
ATOM     39  OE2 GLU A   1     -10.013   6.003  66.378  1.00  0.00    -0.156 OA 
ATOM     40  OE1 GLU A   1     -11.097   4.420  65.185  1.00  0.00    -0.230 OA 
ENDBRANCH  36  37
ENDBRANCH  32  36
ENDBRANCH  30  32
ENDBRANCH  24  28
ENDBRANCH  20  22
ENDBRANCH  19  20
ENDBRANCH   4  19
TORSDOF 7
ENDMDL
MODEL      196
REMARK 921   NORMALIZED FREE ENERGY PREDICTED BY IDOCK:   -4.07 KCAL/MOL
REMARK 922        TOTAL FREE ENERGY PREDICTED BY IDOCK:   -7.01 KCAL/MOL
REMARK 923 INTER-LIGAND FREE ENERGY PREDICTED BY IDOCK:   -7.69 KCAL/MOL
REMARK 924 INTRA-LIGAND FREE ENERGY PREDICTED BY IDOCK:    0.68 KCAL/MOL
REMARK 927      BINDING AFFINITY PREDICTED BY RF-SCORE:    0.00 PKD
ROOT
HETATM    1  C   UNK A   0      -8.008   9.732  69.490  1.00  0.00    -0.137 C  
HETATM    2  N   UNK A   0      -7.300  10.037  68.336  1.00  0.00    -0.077 N  
HETATM    3  O   UNK A   0      -7.604   9.837  70.645  1.00  0.00    -0.259 OA 
HETATM    4  C   UNK A   0      -5.884  10.557  68.394  1.00  0.00    -0.043 C  
HETATM    5  C   UNK A   0      -5.738  11.716  67.381  1.00  0.00    -0.088 C  
HETATM    6  C   UNK A   0      -8.860   9.619  64.483  1.00  0.00    -0.223 C  
HETATM    7  H   UNK A   0     -10.464   8.656  65.323  1.00  0.00     0.000 HD 
HETATM    8  N   UNK A   0      -6.160  11.236  66.077  1.00  0.00    -0.353 NA 
HETATM    9  H   UNK A   0      -5.622  11.493  65.249  1.00  0.00     0.000 HD 
HETATM   10  H2  UNK A   0     -10.219   8.904  63.083  1.00  0.00     0.000 HD 
HETATM   11  C   UNK A   0      -7.281  10.434  65.937  1.00  0.00    -0.135 C  
HETATM   12  O   UNK A   0      -9.539   8.246  67.591  1.00  0.00    -0.145 OA 
HETATM   13  C   UNK A   0      -7.838   9.856  67.037  1.00  0.00    -0.102 C  
HETATM   14  H1  UNK A   0      -8.850   9.864  62.470  1.00  0.00     0.000 HD 
HETATM   15  C   UNK A   0      -9.038   9.006  66.767  1.00  0.00    -0.145 C  
HETATM   16  N   UNK A   0      -7.776  10.294  64.664  1.00  0.00    -0.222 NA 
HETATM   17  N   UNK A   0      -9.365   9.438  63.241  1.00  0.00    -0.470 NA 
HETATM   18  N   UNK A   0      -9.543   9.055  65.505  1.00  0.00    -0.457 N  
ENDROOT
BRANCH   4  19
HETATM   19  C   UNK A   0      -5.360  10.997  69.778  1.00  0.00    -0.044 C  
BRANCH  19  20
HETATM   20  N   UNK A   0      -6.174  12.079  70.356  1.00  0.00    -0.469 NA 
HETATM   21  H   UNK A   0      -6.553  12.013  71.301  1.00  0.00     0.000 HD 
BRANCH  20  22
HETATM   22  C   UNK A   0      -6.406  13.202  69.554  1.00  0.00    -0.103 A  
HETATM   23  C   UNK A   0      -8.020  14.556  68.329  1.00  0.00    -0.137 A  
HETATM   24  C   UNK A   0      -7.060  15.561  68.172  1.00  0.00    -0.126 A  
HETATM   25  C   UNK A   0      -5.429  14.166  69.277  1.00  0.00    -0.081 A  
HETATM   26  C   UNK A   0      -7.684  13.378  69.010  1.00  0.00     0.146 A  
HETATM   27  C   UNK A   0      -5.749  15.340  68.600  1.00  0.00    -0.089 A  
BRANCH  24  28
HETATM   28  C   UNK A   0      -7.438  16.855  67.555  1.00  0.00    -0.158 C  
ATOM     29  H   GLU A   1      -9.457  16.528  68.016  1.00  0.00     0.000 HD 
ATOM     30  N   GLU A   1      -8.796  17.142  67.539  1.00  0.00    -0.215 N  
HETATM   31  O   UNK A   0      -6.590  17.591  67.067  1.00  0.00    -0.152 OA 
BRANCH  30  32
ATOM     32  CA  GLU A   1      -9.278  18.342  66.828  1.00  0.00    -0.288 C  
ATOM     33  C   GLU A   1      -9.771  19.380  67.853  1.00  0.00    -0.352 C  
ATOM     34  O   GLU A   1     -10.151  18.825  69.031  1.00  0.00    -0.393 OA 
ATOM     35  OXT GLU A   1      -9.960  20.562  67.599  1.00  0.00    -0.409 OA 
BRANCH  32  36
ATOM     36  CB  GLU A   1     -10.419  17.968  65.869  1.00  0.00    -0.268 C  
BRANCH  36  37
ATOM     37  CG  GLU A   1     -10.875  16.513  66.018  1.00  0.00    -0.069 C  
ATOM     38  CD  GLU A   1     -11.498  15.970  64.757  1.00  0.00    -0.201 C  
ATOM     39  OE2 GLU A   1     -11.651  16.599  63.722  1.00  0.00    -1.045 OA 
ATOM     40  OE1 GLU A   1     -11.872  14.677  64.890  1.00  0.00    -0.381 OA 
ENDBRANCH  36  37
ENDBRANCH  32  36
ENDBRANCH  30  32
ENDBRANCH  24  28
ENDBRANCH  20  22
ENDBRANCH  19  20
ENDBRANCH   4  19
TORSDOF 7
ENDMDL
MODEL      197
REMARK 921   NORMALIZED FREE ENERGY PREDICTED BY IDOCK:   -4.06 KCAL/MOL
REMARK 922        TOTAL FREE ENERGY PREDICTED BY IDOCK:   -6.99 KCAL/MOL
REMARK 923 INTER-LIGAND FREE ENERGY PREDICTED BY IDOCK:   -7.13 KCAL/MOL
REMARK 924 INTRA-LIGAND FREE ENERGY PREDICTED BY IDOCK:    0.15 KCAL/MOL
REMARK 927      BINDING AFFINITY PREDICTED BY RF-SCORE:    0.00 PKD
ROOT
HETATM    1  C   UNK A   0      -8.567  13.119  67.649  1.00  0.00    -0.193 C  
HETATM    2  N   UNK A   0      -9.464  12.256  67.036  1.00  0.00    -0.199 N  
HETATM    3  O   UNK A   0      -7.850  12.866  68.613  1.00  0.00    -0.120 OA 
HETATM    4  C   UNK A   0      -9.656  10.840  67.525  1.00  0.00    -0.158 C  
HETATM    5  C   UNK A   0      -9.724   9.896  66.303  1.00  0.00    -0.222 C  
HETATM    6  C   UNK A   0     -11.814  13.307  63.746  1.00  0.00    -0.467 C  
HETATM    7  H   UNK A   0     -11.188  15.241  64.018  1.00  0.00     0.000 HD 
HETATM    8  N   UNK A   0     -10.764  10.380  65.412  1.00  0.00    -0.008 NA 
HETATM    9  H   UNK A   0     -11.396   9.713  64.969  1.00  0.00     0.000 HD 
HETATM   10  H2  UNK A   0     -12.702  14.654  62.436  1.00  0.00     0.000 HD 
HETATM   11  C   UNK A   0     -10.913  11.734  65.154  1.00  0.00    -0.294 C  
HETATM   12  O   UNK A   0     -10.202  15.025  66.286  1.00  0.00    -0.271 OA 
HETATM   13  C   UNK A   0     -10.276  12.644  65.941  1.00  0.00    -0.274 C  
HETATM   14  H1  UNK A   0     -13.080  12.929  62.208  1.00  0.00     0.000 HD 
HETATM   15  C   UNK A   0     -10.515  14.075  65.575  1.00  0.00    -0.327 C  
HETATM   16  N   UNK A   0     -11.698  12.067  64.078  1.00  0.00    -0.400 NA 
HETATM   17  N   UNK A   0     -12.598  13.677  62.707  1.00  0.00    -0.640 NA 
HETATM   18  N   UNK A   0     -11.175  14.299  64.407  1.00  0.00    -0.593 N  
ENDROOT
BRANCH   4  19
HETATM   19  C   UNK A   0      -8.623  10.310  68.544  1.00  0.00    -0.126 C  
BRANCH  19  20
HETATM   20  N   UNK A   0      -9.127  10.382  69.926  1.00  0.00    -0.387 NA 
HETATM   21  H   UNK A   0      -9.572  11.225  70.286  1.00  0.00     0.000 HD 
BRANCH  20  22
HETATM   22  C   UNK A   0      -8.968   9.243  70.723  1.00  0.00    -0.232 A  
HETATM   23  C   UNK A   0      -9.953   7.717  72.348  1.00  0.00    -0.256 A  
HETATM   24  C   UNK A   0      -8.888   6.830  72.163  1.00  0.00    -0.134 A  
HETATM   25  C   UNK A   0      -7.853   8.399  70.648  1.00  0.00    -0.092 A  
HETATM   26  C   UNK A   0      -9.981   8.923  71.635  1.00  0.00    -0.397 A  
HETATM   27  C   UNK A   0      -7.811   7.198  71.353  1.00  0.00    -0.097 A  
BRANCH  24  28
HETATM   28  C   UNK A   0      -8.905   5.504  72.825  1.00  0.00    -0.122 C  
ATOM     29  H   GLU A   1      -9.596   4.594  71.066  1.00  0.00     0.000 HD 
ATOM     30  N   GLU A   1      -9.376   4.450  72.052  1.00  0.00    -0.128 N  
HETATM   31  O   UNK A   0      -8.554   5.376  73.990  1.00  0.00    -0.115 OA 
BRANCH  30  32
ATOM     32  CA  GLU A   1      -9.557   3.121  72.666  1.00  0.00    -0.123 C  
ATOM     33  C   GLU A   1     -10.974   3.022  73.262  1.00  0.00    -0.159 C  
ATOM     34  O   GLU A   1     -11.506   4.231  73.571  1.00  0.00    -0.271 OA 
ATOM     35  OXT GLU A   1     -11.515   1.972  73.581  1.00  0.00    -0.206 OA 
BRANCH  32  36
ATOM     36  CB  GLU A   1      -8.508   2.897  73.766  1.00  0.00    -0.073 C  
BRANCH  36  37
ATOM     37  CG  GLU A   1      -7.470   1.832  73.395  1.00  0.00    -0.033 C  
ATOM     38  CD  GLU A   1      -6.284   2.411  72.666  1.00  0.00    -0.009 C  
ATOM     39  OE2 GLU A   1      -6.144   3.589  72.376  1.00  0.00    -0.009 OA 
ATOM     40  OE1 GLU A   1      -5.360   1.469  72.368  1.00  0.00     0.000 OA 
ENDBRANCH  36  37
ENDBRANCH  32  36
ENDBRANCH  30  32
ENDBRANCH  24  28
ENDBRANCH  20  22
ENDBRANCH  19  20
ENDBRANCH   4  19
TORSDOF 7
ENDMDL
MODEL      198
REMARK 921   NORMALIZED FREE ENERGY PREDICTED BY IDOCK:   -4.05 KCAL/MOL
REMARK 922        TOTAL FREE ENERGY PREDICTED BY IDOCK:   -6.98 KCAL/MOL
REMARK 923 INTER-LIGAND FREE ENERGY PREDICTED BY IDOCK:   -6.15 KCAL/MOL
REMARK 924 INTRA-LIGAND FREE ENERGY PREDICTED BY IDOCK:   -0.83 KCAL/MOL
REMARK 927      BINDING AFFINITY PREDICTED BY RF-SCORE:    0.00 PKD
ROOT
HETATM    1  C   UNK A   0     -10.781   6.291  66.687  1.00  0.00    -0.216 C  
HETATM    2  N   UNK A   0      -9.676   5.486  66.922  1.00  0.00    -0.139 N  
HETATM    3  O   UNK A   0     -11.237   7.146  67.441  1.00  0.00    -0.194 OA 
HETATM    4  C   UNK A   0      -8.882   5.590  68.201  1.00  0.00    -0.105 C  
HETATM    5  C   UNK A   0      -7.375   5.540  67.857  1.00  0.00    -0.073 C  
HETATM    6  C   UNK A   0      -8.271   2.632  64.212  1.00  0.00    -0.082 C  
HETATM    7  H   UNK A   0      -9.973   2.955  63.113  1.00  0.00     0.000 HD 
HETATM    8  N   UNK A   0      -7.126   4.339  67.080  1.00  0.00    -0.066 NA 
HETATM    9  H   UNK A   0      -6.294   3.780  67.272  1.00  0.00     0.000 HD 
HETATM   10  H2  UNK A   0      -8.432   1.388  62.555  1.00  0.00     0.000 HD 
HETATM   11  C   UNK A   0      -7.999   3.938  66.081  1.00  0.00    -0.094 C  
HETATM   12  O   UNK A   0     -11.297   4.217  64.792  1.00  0.00    -0.294 OA 
HETATM   13  C   UNK A   0      -9.236   4.500  66.002  1.00  0.00    -0.141 C  
HETATM   14  H1  UNK A   0      -6.933   1.279  63.512  1.00  0.00     0.000 HD 
HETATM   15  C   UNK A   0     -10.096   3.987  64.891  1.00  0.00    -0.205 C  
HETATM   16  N   UNK A   0      -7.530   2.990  65.205  1.00  0.00    -0.074 NA 
HETATM   17  N   UNK A   0      -7.854   1.684  63.342  1.00  0.00    -0.058 NA 
HETATM   18  N   UNK A   0      -9.492   3.169  63.987  1.00  0.00    -0.127 N  
ENDROOT
BRANCH   4  19
HETATM   19  C   UNK A   0      -9.176   6.806  69.106  1.00  0.00    -0.137 C  
BRANCH  19  20
HETATM   20  N   UNK A   0      -8.275   7.935  68.820  1.00  0.00    -0.126 NA 
HETATM   21  H   UNK A   0      -7.262   7.814  68.794  1.00  0.00     0.000 HD 
BRANCH  20  22
HETATM   22  C   UNK A   0      -8.867   9.181  68.586  1.00  0.00    -0.133 A  
HETATM   23  C   UNK A   0     -10.548  10.816  69.249  1.00  0.00    -0.261 A  
HETATM   24  C   UNK A   0      -9.963  11.764  68.403  1.00  0.00    -0.202 A  
HETATM   25  C   UNK A   0      -8.375  10.105  67.655  1.00  0.00    -0.114 A  
HETATM   26  C   UNK A   0     -10.003   9.528  69.328  1.00  0.00    -0.191 A  
HETATM   27  C   UNK A   0      -8.909  11.389  67.567  1.00  0.00    -0.146 A  
BRANCH  24  28
HETATM   28  C   UNK A   0     -10.460  13.160  68.399  1.00  0.00    -0.253 C  
ATOM     29  H   GLU A   1      -8.637  13.846  67.624  1.00  0.00     0.000 HD 
ATOM     30  N   GLU A   1      -9.549  14.124  67.987  1.00  0.00    -0.211 N  
HETATM   31  O   UNK A   0     -11.596  13.425  68.772  1.00  0.00    -0.278 OA 
BRANCH  30  32
ATOM     32  CA  GLU A   1      -9.909  15.551  68.078  1.00  0.00    -0.212 C  
ATOM     33  C   GLU A   1     -10.094  16.123  66.659  1.00  0.00    -0.276 C  
ATOM     34  O   GLU A   1      -9.412  15.430  65.714  1.00  0.00    -0.333 OA 
ATOM     35  OXT GLU A   1     -10.660  17.179  66.411  1.00  0.00    -0.274 OA 
BRANCH  32  36
ATOM     36  CB  GLU A   1      -8.812  16.331  68.818  1.00  0.00    -0.243 C  
BRANCH  36  37
ATOM     37  CG  GLU A   1      -7.624  16.692  67.919  1.00  0.00    -0.169 C  
ATOM     38  CD  GLU A   1      -7.160  18.112  68.119  1.00  0.00    -0.235 C  
ATOM     39  OE2 GLU A   1      -7.661  18.914  68.891  1.00  0.00    -0.325 OA 
ATOM     40  OE1 GLU A   1      -6.094  18.414  67.342  1.00  0.00    -0.166 OA 
ENDBRANCH  36  37
ENDBRANCH  32  36
ENDBRANCH  30  32
ENDBRANCH  24  28
ENDBRANCH  20  22
ENDBRANCH  19  20
ENDBRANCH   4  19
TORSDOF 7
ENDMDL
MODEL      199
REMARK 921   NORMALIZED FREE ENERGY PREDICTED BY IDOCK:   -4.04 KCAL/MOL
REMARK 922        TOTAL FREE ENERGY PREDICTED BY IDOCK:   -6.97 KCAL/MOL
REMARK 923 INTER-LIGAND FREE ENERGY PREDICTED BY IDOCK:   -7.26 KCAL/MOL
REMARK 924 INTRA-LIGAND FREE ENERGY PREDICTED BY IDOCK:    0.29 KCAL/MOL
REMARK 927      BINDING AFFINITY PREDICTED BY RF-SCORE:    0.00 PKD
ROOT
HETATM    1  C   UNK A   0      -9.983  14.093  65.932  1.00  0.00    -0.311 C  
HETATM    2  N   UNK A   0      -9.254  14.804  66.876  1.00  0.00    -0.232 N  
HETATM    3  O   UNK A   0      -9.841  12.909  65.637  1.00  0.00    -0.251 OA 
HETATM    4  C   UNK A   0      -8.155  14.151  67.677  1.00  0.00    -0.180 C  
HETATM    5  C   UNK A   0      -8.275  14.606  69.150  1.00  0.00    -0.068 C  
HETATM    6  C   UNK A   0      -9.900  18.839  67.743  1.00  0.00    -0.333 C  
HETATM    7  H   UNK A   0     -11.160  18.903  66.125  1.00  0.00     0.000 HD 
HETATM    8  N   UNK A   0      -8.273  16.058  69.179  1.00  0.00    -0.238 NA 
HETATM    9  H   UNK A   0      -7.737  16.545  69.897  1.00  0.00     0.000 HD 
HETATM   10  H2  UNK A   0     -10.657  20.737  67.360  1.00  0.00     0.000 HD 
HETATM   11  C   UNK A   0      -8.987  16.794  68.247  1.00  0.00    -0.228 C  
HETATM   12  O   UNK A   0     -10.536  16.753  65.050  1.00  0.00    -0.675 OA 
HETATM   13  C   UNK A   0      -9.468  16.182  67.130  1.00  0.00    -0.223 C  
HETATM   14  H1  UNK A   0      -9.650  20.541  68.816  1.00  0.00     0.000 HD 
HETATM   15  C   UNK A   0     -10.216  17.074  66.191  1.00  0.00    -0.337 C  
HETATM   16  N   UNK A   0      -9.181  18.122  68.537  1.00  0.00    -0.313 NA 
HETATM   17  N   UNK A   0     -10.094  20.157  67.982  1.00  0.00    -0.409 NA 
HETATM   18  N   UNK A   0     -10.490  18.329  66.638  1.00  0.00    -0.375 N  
ENDROOT
BRANCH   4  19
HETATM   19  C   UNK A   0      -8.061  12.612  67.607  1.00  0.00    -0.173 C  
BRANCH  19  20
HETATM   20  N   UNK A   0      -9.072  11.959  68.456  1.00  0.00    -0.319 NA 
HETATM   21  H   UNK A   0      -9.892  12.465  68.790  1.00  0.00     0.000 HD 
BRANCH  20  22
HETATM   22  C   UNK A   0      -8.860  10.616  68.783  1.00  0.00    -0.161 A  
HETATM   23  C   UNK A   0      -9.701   8.610  69.884  1.00  0.00    -0.175 A  
HETATM   24  C   UNK A   0      -8.694   7.853  69.277  1.00  0.00    -0.138 A  
HETATM   25  C   UNK A   0      -7.789   9.861  68.288  1.00  0.00    -0.085 A  
HETATM   26  C   UNK A   0      -9.772   9.988  69.641  1.00  0.00    -0.255 A  
HETATM   27  C   UNK A   0      -7.706   8.491  68.523  1.00  0.00    -0.103 A  
BRANCH  24  28
HETATM   28  C   UNK A   0      -8.679   6.379  69.435  1.00  0.00    -0.129 C  
ATOM     29  H   GLU A   1     -10.751   6.355  69.753  1.00  0.00     0.000 HD 
ATOM     30  N   GLU A   1      -9.900   5.793  69.741  1.00  0.00    -0.167 N  
HETATM   31  O   UNK A   0      -7.637   5.745  69.330  1.00  0.00    -0.084 OA 
BRANCH  30  32
ATOM     32  CA  GLU A   1      -9.958   4.351  70.049  1.00  0.00    -0.175 C  
ATOM     33  C   GLU A   1      -9.670   4.136  71.546  1.00  0.00    -0.173 C  
ATOM     34  O   GLU A   1      -8.944   5.141  72.097  1.00  0.00    -0.128 OA 
ATOM     35  OXT GLU A   1      -9.920   3.105  72.155  1.00  0.00    -0.160 OA 
BRANCH  32  36
ATOM     36  CB  GLU A   1      -8.930   3.585  69.202  1.00  0.00    -0.179 C  
BRANCH  36  37
ATOM     37  CG  GLU A   1      -9.441   3.254  67.795  1.00  0.00    -0.217 C  
ATOM     38  CD  GLU A   1      -8.326   3.148  66.786  1.00  0.00    -0.092 C  
ATOM     39  OE2 GLU A   1      -7.141   3.317  67.027  1.00  0.00    -0.056 OA 
ATOM     40  OE1 GLU A   1      -8.784   2.828  65.554  1.00  0.00    -0.115 OA 
ENDBRANCH  36  37
ENDBRANCH  32  36
ENDBRANCH  30  32
ENDBRANCH  24  28
ENDBRANCH  20  22
ENDBRANCH  19  20
ENDBRANCH   4  19
TORSDOF 7
ENDMDL
MODEL      200
REMARK 921   NORMALIZED FREE ENERGY PREDICTED BY IDOCK:   -4.04 KCAL/MOL
REMARK 922        TOTAL FREE ENERGY PREDICTED BY IDOCK:   -6.96 KCAL/MOL
REMARK 923 INTER-LIGAND FREE ENERGY PREDICTED BY IDOCK:   -7.38 KCAL/MOL
REMARK 924 INTRA-LIGAND FREE ENERGY PREDICTED BY IDOCK:    0.43 KCAL/MOL
REMARK 927      BINDING AFFINITY PREDICTED BY RF-SCORE:    0.00 PKD
ROOT
HETATM    1  C   UNK A   0      -8.712   5.575  68.196  1.00  0.00    -0.102 C  
HETATM    2  N   UNK A   0      -8.422   5.768  66.853  1.00  0.00    -0.108 N  
HETATM    3  O   UNK A   0      -8.342   6.277  69.133  1.00  0.00    -0.118 OA 
HETATM    4  C   UNK A   0      -7.577   6.929  66.387  1.00  0.00    -0.089 C  
HETATM    5  C   UNK A   0      -8.226   7.544  65.126  1.00  0.00    -0.120 C  
HETATM    6  C   UNK A   0      -9.789   3.260  63.804  1.00  0.00    -0.154 C  
HETATM    7  H   UNK A   0     -10.448   1.978  65.263  1.00  0.00     0.000 HD 
HETATM    8  N   UNK A   0      -8.405   6.487  64.146  1.00  0.00    -0.332 NA 
HETATM    9  H   UNK A   0      -8.196   6.672  63.165  1.00  0.00     0.000 HD 
HETATM   10  H2  UNK A   0     -10.598   1.499  63.052  1.00  0.00     0.000 HD 
HETATM   11  C   UNK A   0      -8.857   5.232  64.521  1.00  0.00    -0.013 C  
HETATM   12  O   UNK A   0      -9.256   2.948  67.213  1.00  0.00    -0.172 OA 
HETATM   13  C   UNK A   0      -8.869   4.885  65.837  1.00  0.00    -0.130 C  
HETATM   14  H1  UNK A   0     -10.107   2.739  61.870  1.00  0.00     0.000 HD 
HETATM   15  C   UNK A   0      -9.368   3.505  66.125  1.00  0.00    -0.160 C  
HETATM   16  N   UNK A   0      -9.290   4.412  63.509  1.00  0.00    -0.245 NA 
HETATM   17  N   UNK A   0     -10.205   2.415  62.833  1.00  0.00    -0.108 NA 
HETATM   18  N   UNK A   0      -9.920   2.831  65.080  1.00  0.00    -0.356 N  
ENDROOT
BRANCH   4  19
HETATM   19  C   UNK A   0      -7.284   8.036  67.423  1.00  0.00    -0.088 C  
BRANCH  19  20
HETATM   20  N   UNK A   0      -7.095   9.350  66.785  1.00  0.00    -0.082 NA 
HETATM   21  H   UNK A   0      -6.426   9.482  66.027  1.00  0.00     0.000 HD 
BRANCH  20  22
HETATM   22  C   UNK A   0      -7.874  10.409  67.264  1.00  0.00    -0.106 A  
HETATM   23  C   UNK A   0      -8.079  12.811  67.625  1.00  0.00    -0.175 A  
HETATM   24  C   UNK A   0      -9.433  12.651  67.934  1.00  0.00    -0.204 A  
HETATM   25  C   UNK A   0      -9.197  10.259  67.698  1.00  0.00    -0.154 A  
HETATM   26  C   UNK A   0      -7.305  11.689  67.302  1.00  0.00    -0.136 A  
HETATM   27  C   UNK A   0      -9.977  11.367  68.023  1.00  0.00    -0.192 A  
BRANCH  24  28
HETATM   28  C   UNK A   0     -10.286  13.841  68.164  1.00  0.00    -0.252 C  
ATOM     29  H   GLU A   1      -9.058  14.460  69.747  1.00  0.00     0.000 HD 
ATOM     30  N   GLU A   1      -9.920  14.648  69.234  1.00  0.00    -0.147 N  
HETATM   31  O   UNK A   0     -11.265  14.059  67.463  1.00  0.00    -0.289 OA 
BRANCH  30  32
ATOM     32  CA  GLU A   1     -10.785  15.778  69.622  1.00  0.00    -0.292 C  
ATOM     33  C   GLU A   1     -11.922  15.264  70.526  1.00  0.00    -0.344 C  
ATOM     34  O   GLU A   1     -12.197  13.949  70.338  1.00  0.00    -0.325 OA 
ATOM     35  OXT GLU A   1     -12.621  15.981  71.227  1.00  0.00    -0.428 OA 
BRANCH  32  36
ATOM     36  CB  GLU A   1     -11.372  16.452  68.373  1.00  0.00    -0.268 C  
BRANCH  36  37
ATOM     37  CG  GLU A   1     -10.574  17.680  67.924  1.00  0.00    -0.390 C  
ATOM     38  CD  GLU A   1     -10.215  17.633  66.461  1.00  0.00    -0.355 C  
ATOM     39  OE2 GLU A   1     -10.500  16.725  65.696  1.00  0.00    -0.470 OA 
ATOM     40  OE1 GLU A   1      -9.535  18.734  66.068  1.00  0.00    -0.480 OA 
ENDBRANCH  36  37
ENDBRANCH  32  36
ENDBRANCH  30  32
ENDBRANCH  24  28
ENDBRANCH  20  22
ENDBRANCH  19  20
ENDBRANCH   4  19
TORSDOF 7
ENDMDL
MODEL      201
REMARK 921   NORMALIZED FREE ENERGY PREDICTED BY IDOCK:   -3.95 KCAL/MOL
REMARK 922        TOTAL FREE ENERGY PREDICTED BY IDOCK:   -6.84 KCAL/MOL
REMARK 923 INTER-LIGAND FREE ENERGY PREDICTED BY IDOCK:   -6.32 KCAL/MOL
REMARK 924 INTRA-LIGAND FREE ENERGY PREDICTED BY IDOCK:   -0.52 KCAL/MOL
REMARK 927      BINDING AFFINITY PREDICTED BY RF-SCORE:    0.00 PKD
ROOT
HETATM    1  C   UNK A   0      -8.099  16.002  66.887  1.00  0.00    -0.247 C  
HETATM    2  N   UNK A   0      -8.613  14.735  66.649  1.00  0.00    -0.426 N  
HETATM    3  O   UNK A   0      -7.193  16.291  67.663  1.00  0.00    -0.122 OA 
HETATM    4  C   UNK A   0      -8.074  13.520  67.363  1.00  0.00    -0.176 C  
HETATM    5  C   UNK A   0      -7.924  12.368  66.343  1.00  0.00     0.434 C  
HETATM    6  C   UNK A   0     -11.703  13.956  63.948  1.00  0.00    -0.207 C  
HETATM    7  H   UNK A   0     -11.959  15.984  63.779  1.00  0.00     0.000 HD 
HETATM    8  N   UNK A   0      -9.204  12.173  65.686  1.00  0.00    -0.432 NA 
HETATM    9  H   UNK A   0      -9.542  11.225  65.515  1.00  0.00     0.000 HD 
HETATM   10  H2  UNK A   0     -13.302  14.487  62.730  1.00  0.00     0.000 HD 
HETATM   11  C   UNK A   0      -9.976  13.252  65.288  1.00  0.00    -0.173 C  
HETATM   12  O   UNK A   0     -10.612  16.719  65.730  1.00  0.00    -0.338 OA 
HETATM   13  C   UNK A   0      -9.685  14.498  65.752  1.00  0.00    -0.274 C  
HETATM   14  H1  UNK A   0     -12.911  12.753  62.850  1.00  0.00     0.000 HD 
HETATM   15  C   UNK A   0     -10.588  15.585  65.262  1.00  0.00    -0.424 C  
HETATM   16  N   UNK A   0     -10.997  12.981  64.410  1.00  0.00    -0.353 NA 
HETATM   17  N   UNK A   0     -12.733  13.726  63.100  1.00  0.00    -0.747 NA 
HETATM   18  N   UNK A   0     -11.466  15.245  64.280  1.00  0.00    -0.698 N  
ENDROOT
BRANCH   4  19
HETATM   19  C   UNK A   0      -6.758  13.701  68.151  1.00  0.00    -0.122 C  
BRANCH  19  20
HETATM   20  N   UNK A   0      -5.874  12.531  68.022  1.00  0.00    -0.071 NA 
HETATM   21  H   UNK A   0      -5.122  12.505  67.334  1.00  0.00     0.000 HD 
BRANCH  20  22
HETATM   22  C   UNK A   0      -6.109  11.455  68.886  1.00  0.00    -0.050 A  
HETATM   23  C   UNK A   0      -6.687   9.099  69.126  1.00  0.00    -0.050 A  
HETATM   24  C   UNK A   0      -6.341   9.151  70.480  1.00  0.00    -0.053 A  
HETATM   25  C   UNK A   0      -5.889  11.514  70.268  1.00  0.00    -0.158 A  
HETATM   26  C   UNK A   0      -6.579  10.254  68.340  1.00  0.00    -0.056 A  
HETATM   27  C   UNK A   0      -5.994  10.373  71.061  1.00  0.00     0.012 A  
BRANCH  24  28
HETATM   28  C   UNK A   0      -6.342   7.912  71.293  1.00  0.00    -0.034 C  
ATOM     29  H   GLU A   1      -8.141   7.291  70.411  1.00  0.00     0.000 HD 
ATOM     30  N   GLU A   1      -7.444   7.082  71.125  1.00  0.00    -0.080 N  
HETATM   31  O   UNK A   0      -5.435   7.673  72.079  1.00  0.00    -0.036 OA 
BRANCH  30  32
ATOM     32  CA  GLU A   1      -7.598   5.895  71.988  1.00  0.00    -0.097 C  
ATOM     33  C   GLU A   1      -6.875   4.697  71.343  1.00  0.00    -0.035 C  
ATOM     34  O   GLU A   1      -6.746   4.815  69.998  1.00  0.00    -0.035 OA 
ATOM     35  OXT GLU A   1      -6.584   3.668  71.937  1.00  0.00    -0.015 OA 
BRANCH  32  36
ATOM     36  CB  GLU A   1      -9.087   5.568  72.180  1.00  0.00    -0.152 C  
BRANCH  36  37
ATOM     37  CG  GLU A   1      -9.993   6.286  71.174  1.00  0.00    -0.210 C  
ATOM     38  CD  GLU A   1     -10.339   5.421  69.989  1.00  0.00    -0.296 C  
ATOM     39  OE2 GLU A   1      -9.946   4.279  69.813  1.00  0.00    -0.222 OA 
ATOM     40  OE1 GLU A   1     -11.161   6.054  69.121  1.00  0.00    -0.378 OA 
ENDBRANCH  36  37
ENDBRANCH  32  36
ENDBRANCH  30  32
ENDBRANCH  24  28
ENDBRANCH  20  22
ENDBRANCH  19  20
ENDBRANCH   4  19
TORSDOF 7
ENDMDL
MODEL      202
REMARK 921   NORMALIZED FREE ENERGY PREDICTED BY IDOCK:   -3.94 KCAL/MOL
REMARK 922        TOTAL FREE ENERGY PREDICTED BY IDOCK:   -6.82 KCAL/MOL
REMARK 923 INTER-LIGAND FREE ENERGY PREDICTED BY IDOCK:   -5.94 KCAL/MOL
REMARK 924 INTRA-LIGAND FREE ENERGY PREDICTED BY IDOCK:   -0.88 KCAL/MOL
REMARK 927      BINDING AFFINITY PREDICTED BY RF-SCORE:    0.00 PKD
ROOT
HETATM    1  C   UNK A   0     -10.617   5.724  67.062  1.00  0.00    -0.300 C  
HETATM    2  N   UNK A   0      -9.282   6.102  67.011  1.00  0.00    -0.120 N  
HETATM    3  O   UNK A   0     -11.532   6.341  67.599  1.00  0.00    -0.103 OA 
HETATM    4  C   UNK A   0      -8.801   7.383  67.646  1.00  0.00    -0.127 C  
HETATM    5  C   UNK A   0      -7.817   8.081  66.678  1.00  0.00    -0.098 C  
HETATM    6  C   UNK A   0      -6.310   3.858  65.117  1.00  0.00    -0.028 C  
HETATM    7  H   UNK A   0      -7.690   2.355  64.907  1.00  0.00     0.000 HD 
HETATM    8  N   UNK A   0      -6.768   7.136  66.337  1.00  0.00    -0.052 NA 
HETATM    9  H   UNK A   0      -5.800   7.455  66.295  1.00  0.00     0.000 HD 
HETATM   10  H2  UNK A   0      -5.527   2.131  64.265  1.00  0.00     0.000 HD 
HETATM   11  C   UNK A   0      -7.060   5.809  66.068  1.00  0.00    -0.071 C  
HETATM   12  O   UNK A   0      -9.432   3.194  66.465  1.00  0.00    -0.144 OA 
HETATM   13  C   UNK A   0      -8.284   5.308  66.391  1.00  0.00    -0.109 C  
HETATM   14  H1  UNK A   0      -4.447   3.543  64.381  1.00  0.00     0.000 HD 
HETATM   15  C   UNK A   0      -8.485   3.863  66.062  1.00  0.00    -0.110 C  
HETATM   16  N   UNK A   0      -6.070   5.078  65.458  1.00  0.00    -0.032 NA 
HETATM   17  N   UNK A   0      -5.352   3.099  64.536  1.00  0.00    -0.009 NA 
HETATM   18  N   UNK A   0      -7.510   3.270  65.321  1.00  0.00    -0.075 N  
ENDROOT
BRANCH   4  19
HETATM   19  C   UNK A   0      -9.884   8.382  68.107  1.00  0.00    -0.169 C  
BRANCH  19  20
HETATM   20  N   UNK A   0     -10.372   9.216  66.996  1.00  0.00    -0.264 NA 
HETATM   21  H   UNK A   0     -11.034   8.854  66.310  1.00  0.00     0.000 HD 
BRANCH  20  22
HETATM   22  C   UNK A   0      -9.889  10.527  66.923  1.00  0.00    -0.193 A  
HETATM   23  C   UNK A   0      -9.559  12.524  65.565  1.00  0.00    -0.056 A  
HETATM   24  C   UNK A   0      -9.213  13.248  66.710  1.00  0.00    -0.237 A  
HETATM   25  C   UNK A   0      -9.420  11.239  68.034  1.00  0.00    -0.173 A  
HETATM   26  C   UNK A   0      -9.885  11.166  65.676  1.00  0.00    -0.280 A  
HETATM   27  C   UNK A   0      -9.091  12.589  67.936  1.00  0.00    -0.199 A  
BRANCH  24  28
HETATM   28  C   UNK A   0      -8.979  14.708  66.620  1.00  0.00    -0.238 C  
ATOM     29  H   GLU A   1      -7.868  14.678  68.398  1.00  0.00     0.000 HD 
ATOM     30  N   GLU A   1      -8.271  15.272  67.674  1.00  0.00    -0.150 N  
HETATM   31  O   UNK A   0      -9.420  15.360  65.683  1.00  0.00    -0.318 OA 
BRANCH  30  32
ATOM     32  CA  GLU A   1      -8.106  16.737  67.739  1.00  0.00    -0.179 C  
ATOM     33  C   GLU A   1      -6.669  17.070  68.180  1.00  0.00    -0.151 C  
ATOM     34  O   GLU A   1      -6.085  16.072  68.888  1.00  0.00    -0.114 OA 
ATOM     35  OXT GLU A   1      -6.148  18.170  68.055  1.00  0.00    -0.169 OA 
BRANCH  32  36
ATOM     36  CB  GLU A   1      -9.112  17.342  68.729  1.00  0.00    -0.232 C  
BRANCH  36  37
ATOM     37  CG  GLU A   1     -10.339  17.950  68.041  1.00  0.00    -0.394 C  
ATOM     38  CD  GLU A   1     -10.038  19.276  67.391  1.00  0.00    -0.389 C  
ATOM     39  OE2 GLU A   1      -8.954  19.837  67.406  1.00  0.00    -0.304 OA 
ATOM     40  OE1 GLU A   1     -11.119  19.792  66.763  1.00  0.00    -0.354 OA 
ENDBRANCH  36  37
ENDBRANCH  32  36
ENDBRANCH  30  32
ENDBRANCH  24  28
ENDBRANCH  20  22
ENDBRANCH  19  20
ENDBRANCH   4  19
TORSDOF 7
ENDMDL
MODEL      203
REMARK 921   NORMALIZED FREE ENERGY PREDICTED BY IDOCK:   -3.87 KCAL/MOL
REMARK 922        TOTAL FREE ENERGY PREDICTED BY IDOCK:   -6.72 KCAL/MOL
REMARK 923 INTER-LIGAND FREE ENERGY PREDICTED BY IDOCK:   -6.54 KCAL/MOL
REMARK 924 INTRA-LIGAND FREE ENERGY PREDICTED BY IDOCK:   -0.18 KCAL/MOL
REMARK 927      BINDING AFFINITY PREDICTED BY RF-SCORE:    0.00 PKD
ROOT
HETATM    1  C   UNK A   0      -7.832   3.630  67.960  1.00  0.00    -0.068 C  
HETATM    2  N   UNK A   0      -8.446   4.607  68.730  1.00  0.00    -0.084 N  
HETATM    3  O   UNK A   0      -7.288   3.791  66.871  1.00  0.00    -0.069 OA 
HETATM    4  C   UNK A   0      -8.506   6.046  68.278  1.00  0.00    -0.112 C  
HETATM    5  C   UNK A   0      -8.185   6.961  69.482  1.00  0.00    -0.131 C  
HETATM    6  C   UNK A   0     -10.239   3.856  72.428  1.00  0.00    -0.157 C  
HETATM    7  H   UNK A   0      -9.988   1.855  72.054  1.00  0.00     0.000 HD 
HETATM    8  N   UNK A   0      -9.093   6.623  70.564  1.00  0.00    -0.152 NA 
HETATM    9  H   UNK A   0      -9.513   7.369  71.118  1.00  0.00     0.000 HD 
HETATM   10  H2  UNK A   0     -11.053   2.633  73.898  1.00  0.00     0.000 HD 
HETATM   11  C   UNK A   0      -9.397   5.303  70.857  1.00  0.00    -0.153 C  
HETATM   12  O   UNK A   0      -9.445   1.969  69.634  1.00  0.00    -0.109 OA 
HETATM   13  C   UNK A   0      -9.078   4.324  69.968  1.00  0.00    -0.110 C  
HETATM   14  H1  UNK A   0     -11.104   4.390  74.183  1.00  0.00     0.000 HD 
HETATM   15  C   UNK A   0      -9.460   2.939  70.384  1.00  0.00    -0.131 C  
HETATM   16  N   UNK A   0      -9.999   5.071  72.069  1.00  0.00    -0.177 NA 
HETATM   17  N   UNK A   0     -10.852   3.588  73.604  1.00  0.00    -0.218 NA 
HETATM   18  N   UNK A   0      -9.905   2.793  71.662  1.00  0.00    -0.158 N  
ENDROOT
BRANCH   4  19
HETATM   19  C   UNK A   0      -7.624   6.433  67.071  1.00  0.00    -0.095 C  
BRANCH  19  20
HETATM   20  N   UNK A   0      -8.356   7.259  66.096  1.00  0.00    -0.126 NA 
HETATM   21  H   UNK A   0      -8.534   6.929  65.148  1.00  0.00     0.000 HD 
BRANCH  20  22
HETATM   22  C   UNK A   0      -8.797   8.515  66.527  1.00  0.00    -0.140 A  
HETATM   23  C   UNK A   0     -10.650   9.879  67.331  1.00  0.00    -0.338 A  
HETATM   24  C   UNK A   0      -9.755  10.901  67.664  1.00  0.00    -0.188 A  
HETATM   25  C   UNK A   0      -7.938   9.598  66.753  1.00  0.00    -0.105 A  
HETATM   26  C   UNK A   0     -10.167   8.697  66.755  1.00  0.00    -0.361 A  
HETATM   27  C   UNK A   0      -8.406  10.779  67.324  1.00  0.00    -0.124 A  
BRANCH  24  28
HETATM   28  C   UNK A   0     -10.240  12.106  68.378  1.00  0.00    -0.210 C  
ATOM     29  H   GLU A   1      -9.448  13.352  66.888  1.00  0.00     0.000 HD 
ATOM     30  N   GLU A   1      -9.910  13.324  67.797  1.00  0.00    -0.218 N  
HETATM   31  O   UNK A   0     -10.861  12.009  69.428  1.00  0.00    -0.140 OA 
BRANCH  30  32
ATOM     32  CA  GLU A   1     -10.232  14.578  68.505  1.00  0.00    -0.240 C  
ATOM     33  C   GLU A   1     -11.727  14.899  68.320  1.00  0.00    -0.315 C  
ATOM     34  O   GLU A   1     -12.258  14.339  67.205  1.00  0.00    -0.410 OA 
ATOM     35  OXT GLU A   1     -12.349  15.700  69.005  1.00  0.00    -0.194 OA 
BRANCH  32  36
ATOM     36  CB  GLU A   1      -9.377  15.732  67.958  1.00  0.00    -0.197 C  
BRANCH  36  37
ATOM     37  CG  GLU A   1     -10.209  16.824  67.278  1.00  0.00    -0.292 C  
ATOM     38  CD  GLU A   1      -9.794  18.211  67.697  1.00  0.00    -0.312 C  
ATOM     39  OE2 GLU A   1      -8.909  18.469  68.497  1.00  0.00    -0.320 OA 
ATOM     40  OE1 GLU A   1     -10.515  19.169  67.070  1.00  0.00    -0.385 OA 
ENDBRANCH  36  37
ENDBRANCH  32  36
ENDBRANCH  30  32
ENDBRANCH  24  28
ENDBRANCH  20  22
ENDBRANCH  19  20
ENDBRANCH   4  19
TORSDOF 7
ENDMDL
MODEL      204
REMARK 921   NORMALIZED FREE ENERGY PREDICTED BY IDOCK:   -3.86 KCAL/MOL
REMARK 922        TOTAL FREE ENERGY PREDICTED BY IDOCK:   -6.71 KCAL/MOL
REMARK 923 INTER-LIGAND FREE ENERGY PREDICTED BY IDOCK:   -6.52 KCAL/MOL
REMARK 924 INTRA-LIGAND FREE ENERGY PREDICTED BY IDOCK:   -0.19 KCAL/MOL
REMARK 927      BINDING AFFINITY PREDICTED BY RF-SCORE:    0.00 PKD
ROOT
HETATM    1  C   UNK A   0      -8.611   8.445  71.343  1.00  0.00    -0.164 C  
HETATM    2  N   UNK A   0      -9.404   7.356  71.006  1.00  0.00    -0.157 N  
HETATM    3  O   UNK A   0      -8.975   9.613  71.441  1.00  0.00    -0.078 OA 
HETATM    4  C   UNK A   0     -10.876   7.514  70.712  1.00  0.00    -0.242 C  
HETATM    5  C   UNK A   0     -11.648   6.369  71.406  1.00  0.00    -0.311 C  
HETATM    6  C   UNK A   0      -7.971   3.442  70.732  1.00  0.00    -0.050 C  
HETATM    7  H   UNK A   0      -6.078   4.206  70.928  1.00  0.00     0.000 HD 
HETATM    8  N   UNK A   0     -11.071   5.107  70.976  1.00  0.00     0.132 NA 
HETATM    9  H   UNK A   0     -11.686   4.325  70.751  1.00  0.00     0.000 HD 
HETATM   10  H2  UNK A   0      -6.480   2.002  70.576  1.00  0.00     0.000 HD 
HETATM   11  C   UNK A   0      -9.699   4.947  70.866  1.00  0.00    -0.195 C  
HETATM   12  O   UNK A   0      -6.576   6.607  70.540  1.00  0.00    -0.049 OA 
HETATM   13  C   UNK A   0      -8.889   6.040  70.886  1.00  0.00    -0.135 C  
HETATM   14  H1  UNK A   0      -8.167   1.432  70.545  1.00  0.00     0.000 HD 
HETATM   15  C   UNK A   0      -7.428   5.750  70.753  1.00  0.00    -0.090 C  
HETATM   16  N   UNK A   0      -9.242   3.657  70.764  1.00  0.00    -0.117 NA 
HETATM   17  N   UNK A   0      -7.482   2.186  70.607  1.00  0.00    -0.033 NA 
HETATM   18  N   UNK A   0      -7.064   4.441  70.815  1.00  0.00    -0.037 N  
ENDROOT
BRANCH   4  19
HETATM   19  C   UNK A   0     -11.515   8.873  71.071  1.00  0.00    -0.294 C  
BRANCH  19  20
HETATM   20  N   UNK A   0     -12.049   9.561  69.883  1.00  0.00    -0.338 NA 
HETATM   21  H   UNK A   0     -12.640   9.076  69.209  1.00  0.00     0.000 HD 
BRANCH  20  22
HETATM   22  C   UNK A   0     -11.709  10.909  69.720  1.00  0.00    -0.338 A  
HETATM   23  C   UNK A   0     -10.950  12.670  68.216  1.00  0.00    -0.275 A  
HETATM   24  C   UNK A   0     -11.261  13.632  69.183  1.00  0.00    -0.309 A  
HETATM   25  C   UNK A   0     -11.895  11.877  70.715  1.00  0.00    -0.003 A  
HETATM   26  C   UNK A   0     -11.166  11.314  68.494  1.00  0.00    -0.311 A  
HETATM   27  C   UNK A   0     -11.682  13.228  70.452  1.00  0.00    -0.161 A  
BRANCH  24  28
HETATM   28  C   UNK A   0     -11.144  15.073  68.857  1.00  0.00    -0.266 C  
ATOM     29  H   GLU A   1      -9.313  14.744  67.890  1.00  0.00     0.000 HD 
ATOM     30  N   GLU A   1      -9.980  15.451  68.201  1.00  0.00    -0.220 N  
HETATM   31  O   UNK A   0     -12.017  15.866  69.186  1.00  0.00    -0.380 OA 
BRANCH  30  32
ATOM     32  CA  GLU A   1      -9.714  16.881  67.957  1.00  0.00    -0.256 C  
ATOM     33  C   GLU A   1     -10.550  17.358  66.754  1.00  0.00    -0.194 C  
ATOM     34  O   GLU A   1     -10.886  16.353  65.908  1.00  0.00    -0.237 OA 
ATOM     35  OXT GLU A   1     -10.764  18.533  66.486  1.00  0.00    -0.358 OA 
BRANCH  32  36
ATOM     36  CB  GLU A   1      -8.220  17.104  67.678  1.00  0.00    -0.194 C  
BRANCH  36  37
ATOM     37  CG  GLU A   1      -7.965  18.047  66.497  1.00  0.00    -0.294 C  
ATOM     38  CD  GLU A   1      -6.539  18.533  66.443  1.00  0.00    -0.201 C  
ATOM     39  OE2 GLU A   1      -5.665  18.238  67.243  1.00  0.00    -0.134 OA 
ATOM     40  OE1 GLU A   1      -6.317  19.342  65.382  1.00  0.00    -0.227 OA 
ENDBRANCH  36  37
ENDBRANCH  32  36
ENDBRANCH  30  32
ENDBRANCH  24  28
ENDBRANCH  20  22
ENDBRANCH  19  20
ENDBRANCH   4  19
TORSDOF 7
ENDMDL
MODEL      205
REMARK 921   NORMALIZED FREE ENERGY PREDICTED BY IDOCK:   -3.83 KCAL/MOL
REMARK 922        TOTAL FREE ENERGY PREDICTED BY IDOCK:   -6.67 KCAL/MOL
REMARK 923 INTER-LIGAND FREE ENERGY PREDICTED BY IDOCK:   -5.80 KCAL/MOL
REMARK 924 INTRA-LIGAND FREE ENERGY PREDICTED BY IDOCK:   -0.87 KCAL/MOL
REMARK 927      BINDING AFFINITY PREDICTED BY RF-SCORE:    0.00 PKD
ROOT
HETATM    1  C   UNK A   0     -10.276   7.731  66.816  1.00  0.00    -0.276 C  
HETATM    2  N   UNK A   0      -9.013   7.306  67.204  1.00  0.00    -0.124 N  
HETATM    3  O   UNK A   0     -10.792   8.816  67.067  1.00  0.00    -0.193 OA 
HETATM    4  C   UNK A   0      -8.099   8.190  68.017  1.00  0.00    -0.128 C  
HETATM    5  C   UNK A   0      -6.668   8.093  67.440  1.00  0.00    -0.066 C  
HETATM    6  C   UNK A   0      -7.428   3.564  66.236  1.00  0.00    -0.077 C  
HETATM    7  H   UNK A   0      -9.285   3.048  65.534  1.00  0.00     0.000 HD 
HETATM    8  N   UNK A   0      -6.287   6.692  67.402  1.00  0.00    -0.042 NA 
HETATM    9  H   UNK A   0      -5.344   6.420  67.680  1.00  0.00     0.000 HD 
HETATM   10  H2  UNK A   0      -7.548   1.591  65.593  1.00  0.00     0.000 HD 
HETATM   11  C   UNK A   0      -7.184   5.717  66.993  1.00  0.00    -0.075 C  
HETATM   12  O   UNK A   0     -10.609   4.910  66.505  1.00  0.00    -0.280 OA 
HETATM   13  C   UNK A   0      -8.507   6.018  66.892  1.00  0.00    -0.109 C  
HETATM   14  H1  UNK A   0      -5.949   2.182  66.108  1.00  0.00     0.000 HD 
HETATM   15  C   UNK A   0      -9.383   4.889  66.450  1.00  0.00    -0.145 C  
HETATM   16  N   UNK A   0      -6.653   4.488  66.691  1.00  0.00    -0.048 NA 
HETATM   17  N   UNK A   0      -6.946   2.332  65.950  1.00  0.00    -0.043 NA 
HETATM   18  N   UNK A   0      -8.749   3.763  66.026  1.00  0.00    -0.113 N  
ENDROOT
BRANCH   4  19
HETATM   19  C   UNK A   0      -8.510   9.672  68.161  1.00  0.00    -0.118 C  
BRANCH  19  20
HETATM   20  N   UNK A   0      -7.606  10.409  69.059  1.00  0.00    -0.097 NA 
HETATM   21  H   UNK A   0      -7.122   9.943  69.826  1.00  0.00     0.000 HD 
BRANCH  20  22
HETATM   22  C   UNK A   0      -7.440  11.777  68.816  1.00  0.00    -0.109 A  
HETATM   23  C   UNK A   0      -6.029  13.750  69.050  1.00  0.00    -0.083 A  
HETATM   24  C   UNK A   0      -6.853  14.447  68.160  1.00  0.00    -0.126 A  
HETATM   25  C   UNK A   0      -8.318  12.532  68.028  1.00  0.00    -0.171 A  
HETATM   26  C   UNK A   0      -6.333  12.423  69.380  1.00  0.00    -0.119 A  
HETATM   27  C   UNK A   0      -8.028  13.852  67.693  1.00  0.00    -0.181 A  
BRANCH  24  28
HETATM   28  C   UNK A   0      -6.478  15.810  67.715  1.00  0.00    -0.155 C  
ATOM     29  H   GLU A   1      -7.799  16.666  69.101  1.00  0.00     0.000 HD 
ATOM     30  N   GLU A   1      -7.158  16.854  68.329  1.00  0.00    -0.173 N  
HETATM   31  O   UNK A   0      -5.641  15.978  66.838  1.00  0.00    -0.321 OA 
BRANCH  30  32
ATOM     32  CA  GLU A   1      -6.949  18.236  67.857  1.00  0.00    -0.211 C  
ATOM     33  C   GLU A   1      -6.207  19.039  68.941  1.00  0.00    -0.247 C  
ATOM     34  O   GLU A   1      -6.382  18.536  70.189  1.00  0.00    -0.104 OA 
ATOM     35  OXT GLU A   1      -5.647  20.109  68.744  1.00  0.00    -0.220 OA 
BRANCH  32  36
ATOM     36  CB  GLU A   1      -8.298  18.900  67.543  1.00  0.00    -0.294 C  
BRANCH  36  37
ATOM     37  CG  GLU A   1      -9.496  17.991  67.836  1.00  0.00    -0.273 C  
ATOM     38  CD  GLU A   1      -9.818  17.070  66.687  1.00  0.00    -0.290 C  
ATOM     39  OE2 GLU A   1      -9.220  17.038  65.623  1.00  0.00    -0.508 OA 
ATOM     40  OE1 GLU A   1     -10.859  16.253  66.966  1.00  0.00    -0.283 OA 
ENDBRANCH  36  37
ENDBRANCH  32  36
ENDBRANCH  30  32
ENDBRANCH  24  28
ENDBRANCH  20  22
ENDBRANCH  19  20
ENDBRANCH   4  19
TORSDOF 7
ENDMDL
MODEL      206
REMARK 921   NORMALIZED FREE ENERGY PREDICTED BY IDOCK:   -3.82 KCAL/MOL
REMARK 922        TOTAL FREE ENERGY PREDICTED BY IDOCK:   -6.65 KCAL/MOL
REMARK 923 INTER-LIGAND FREE ENERGY PREDICTED BY IDOCK:   -7.07 KCAL/MOL
REMARK 924 INTRA-LIGAND FREE ENERGY PREDICTED BY IDOCK:    0.42 KCAL/MOL
REMARK 927      BINDING AFFINITY PREDICTED BY RF-SCORE:    0.00 PKD
ROOT
HETATM    1  C   UNK A   0     -12.004  13.055  70.411  1.00  0.00    -0.258 C  
HETATM    2  N   UNK A   0     -11.870  12.621  69.099  1.00  0.00    -0.307 N  
HETATM    3  O   UNK A   0     -12.299  12.365  71.383  1.00  0.00    -0.181 OA 
HETATM    4  C   UNK A   0     -12.085  11.176  68.721  1.00  0.00    -0.162 C  
HETATM    5  C   UNK A   0     -10.971  10.747  67.737  1.00  0.00    -0.297 C  
HETATM    6  C   UNK A   0     -10.845  15.133  65.922  1.00  0.00    -0.339 C  
HETATM    7  H   UNK A   0     -11.082  16.717  67.202  1.00  0.00     0.000 HD 
HETATM    8  N   UNK A   0     -10.968  11.677  66.621  1.00  0.00    -0.287 NA 
HETATM    9  H   UNK A   0     -10.852  11.322  65.672  1.00  0.00     0.000 HD 
HETATM   10  H2  UNK A   0     -10.595  16.981  65.004  1.00  0.00     0.000 HD 
HETATM   11  C   UNK A   0     -11.121  13.040  66.824  1.00  0.00    -0.286 C  
HETATM   12  O   UNK A   0     -12.257  15.558  69.057  1.00  0.00    -0.267 OA 
HETATM   13  C   UNK A   0     -11.553  13.498  68.030  1.00  0.00    -0.337 C  
HETATM   14  H1  UNK A   0     -10.291  15.532  64.013  1.00  0.00     0.000 HD 
HETATM   15  C   UNK A   0     -11.688  14.984  68.133  1.00  0.00    -0.312 C  
HETATM   16  N   UNK A   0     -10.794  13.853  65.768  1.00  0.00    -0.285 NA 
HETATM   17  N   UNK A   0     -10.554  15.967  64.897  1.00  0.00    -0.664 NA 
HETATM   18  N   UNK A   0     -11.194  15.709  67.094  1.00  0.00    -0.219 N  
ENDROOT
BRANCH   4  19
HETATM   19  C   UNK A   0     -12.184  10.160  69.880  1.00  0.00     0.018 C  
BRANCH  19  20
HETATM   20  N   UNK A   0     -11.073  10.305  70.835  1.00  0.00    -0.359 NA 
HETATM   21  H   UNK A   0     -10.949  11.157  71.382  1.00  0.00     0.000 HD 
BRANCH  20  22
HETATM   22  C   UNK A   0     -10.194   9.223  70.961  1.00  0.00    -0.314 A  
HETATM   23  C   UNK A   0      -9.542   7.240  72.219  1.00  0.00    -0.173 A  
HETATM   24  C   UNK A   0      -8.680   6.865  71.183  1.00  0.00    -0.135 A  
HETATM   25  C   UNK A   0      -9.234   8.893  69.996  1.00  0.00    -0.183 A  
HETATM   26  C   UNK A   0     -10.286   8.422  72.106  1.00  0.00    -0.397 A  
HETATM   27  C   UNK A   0      -8.487   7.722  70.097  1.00  0.00    -0.134 A  
BRANCH  24  28
HETATM   28  C   UNK A   0      -7.976   5.562  71.241  1.00  0.00    -0.111 C  
ATOM     29  H   GLU A   1      -8.779   5.005  69.385  1.00  0.00     0.000 HD 
ATOM     30  N   GLU A   1      -8.223   4.696  70.183  1.00  0.00    -0.067 N  
HETATM   31  O   UNK A   0      -7.256   5.276  72.188  1.00  0.00    -0.081 OA 
BRANCH  30  32
ATOM     32  CA  GLU A   1      -7.675   3.327  70.221  1.00  0.00    -0.043 C  
ATOM     33  C   GLU A   1      -8.188   2.537  69.002  1.00  0.00    -0.051 C  
ATOM     34  O   GLU A   1      -9.355   3.021  68.509  1.00  0.00    -0.171 OA 
ATOM     35  OXT GLU A   1      -7.699   1.489  68.605  1.00  0.00    -0.046 OA 
BRANCH  32  36
ATOM     36  CB  GLU A   1      -8.096   2.621  71.518  1.00  0.00    -0.058 C  
BRANCH  36  37
ATOM     37  CG  GLU A   1      -9.614   2.611  71.729  1.00  0.00    -0.217 C  
ATOM     38  CD  GLU A   1     -10.003   2.946  73.146  1.00  0.00    -0.116 C  
ATOM     39  OE2 GLU A   1      -9.220   3.189  74.051  1.00  0.00    -0.085 OA 
ATOM     40  OE1 GLU A   1     -11.345   2.962  73.316  1.00  0.00    -0.147 OA 
ENDBRANCH  36  37
ENDBRANCH  32  36
ENDBRANCH  30  32
ENDBRANCH  24  28
ENDBRANCH  20  22
ENDBRANCH  19  20
ENDBRANCH   4  19
TORSDOF 7
ENDMDL
MODEL      207
REMARK 921   NORMALIZED FREE ENERGY PREDICTED BY IDOCK:   -3.80 KCAL/MOL
REMARK 922        TOTAL FREE ENERGY PREDICTED BY IDOCK:   -6.63 KCAL/MOL
REMARK 923 INTER-LIGAND FREE ENERGY PREDICTED BY IDOCK:   -5.69 KCAL/MOL
REMARK 924 INTRA-LIGAND FREE ENERGY PREDICTED BY IDOCK:   -0.93 KCAL/MOL
REMARK 927      BINDING AFFINITY PREDICTED BY RF-SCORE:    0.00 PKD
ROOT
HETATM    1  C   UNK A   0     -10.269   7.784  68.299  1.00  0.00    -0.201 C  
HETATM    2  N   UNK A   0      -9.269   7.485  67.385  1.00  0.00    -0.131 N  
HETATM    3  O   UNK A   0     -10.269   8.707  69.108  1.00  0.00    -0.198 OA 
HETATM    4  C   UNK A   0      -8.012   8.315  67.292  1.00  0.00    -0.105 C  
HETATM    5  C   UNK A   0      -7.680   8.551  65.801  1.00  0.00    -0.098 C  
HETATM    6  C   UNK A   0      -9.464   4.291  64.698  1.00  0.00    -0.163 C  
HETATM    7  H   UNK A   0     -11.136   3.654  65.702  1.00  0.00     0.000 HD 
HETATM    8  N   UNK A   0      -7.608   7.259  65.142  1.00  0.00    -0.097 NA 
HETATM    9  H   UNK A   0      -6.867   7.081  64.464  1.00  0.00     0.000 HD 
HETATM   10  H2  UNK A   0     -10.218   2.491  63.985  1.00  0.00     0.000 HD 
HETATM   11  C   UNK A   0      -8.531   6.262  65.417  1.00  0.00    -0.129 C  
HETATM   12  O   UNK A   0     -10.942   5.065  67.735  1.00  0.00     0.268 OA 
HETATM   13  C   UNK A   0      -9.341   6.376  66.505  1.00  0.00    -0.155 C  
HETATM   14  H1  UNK A   0      -8.840   3.201  63.107  1.00  0.00     0.000 HD 
HETATM   15  C   UNK A   0     -10.292   5.239  66.709  1.00  0.00    -0.273 C  
HETATM   16  N   UNK A   0      -8.576   5.212  64.534  1.00  0.00    -0.168 NA 
HETATM   17  N   UNK A   0      -9.524   3.228  63.864  1.00  0.00    -0.123 NA 
HETATM   18  N   UNK A   0     -10.371   4.328  65.701  1.00  0.00    -0.439 N  
ENDROOT
BRANCH   4  19
HETATM   19  C   UNK A   0      -8.008   9.660  68.052  1.00  0.00    -0.097 C  
BRANCH  19  20
HETATM   20  N   UNK A   0      -8.668  10.728  67.283  1.00  0.00    -0.130 NA 
HETATM   21  H   UNK A   0      -9.457  10.531  66.667  1.00  0.00     0.000 HD 
BRANCH  20  22
HETATM   22  C   UNK A   0      -8.167  12.026  67.434  1.00  0.00    -0.168 A  
HETATM   23  C   UNK A   0      -6.223  13.450  67.798  1.00  0.00    -0.160 A  
HETATM   24  C   UNK A   0      -6.988  14.577  67.482  1.00  0.00    -0.188 A  
HETATM   25  C   UNK A   0      -8.940  13.178  67.243  1.00  0.00    -0.216 A  
HETATM   26  C   UNK A   0      -6.820  12.182  67.783  1.00  0.00    -0.106 A  
HETATM   27  C   UNK A   0      -8.360  14.444  67.258  1.00  0.00    -0.228 A  
BRANCH  24  28
HETATM   28  C   UNK A   0      -6.340  15.907  67.383  1.00  0.00    -0.161 C  
ATOM     29  H   GLU A   1      -8.042  16.836  68.183  1.00  0.00     0.000 HD 
ATOM     30  N   GLU A   1      -7.122  16.988  67.770  1.00  0.00    -0.146 N  
HETATM   31  O   UNK A   0      -5.200  16.022  66.954  1.00  0.00    -0.322 OA 
BRANCH  30  32
ATOM     32  CA  GLU A   1      -6.611  18.360  67.580  1.00  0.00    -0.197 C  
ATOM     33  C   GLU A   1      -6.013  18.870  68.904  1.00  0.00    -0.220 C  
ATOM     34  O   GLU A   1      -6.528  18.250  69.995  1.00  0.00    -0.071 OA 
ATOM     35  OXT GLU A   1      -5.271  19.838  68.997  1.00  0.00    -0.183 OA 
BRANCH  32  36
ATOM     36  CB  GLU A   1      -7.745  19.290  67.124  1.00  0.00    -0.267 C  
BRANCH  36  37
ATOM     37  CG  GLU A   1      -7.589  19.758  65.673  1.00  0.00    -0.223 C  
ATOM     38  CD  GLU A   1      -6.563  20.852  65.526  1.00  0.00    -0.103 C  
ATOM     39  OE2 GLU A   1      -5.922  21.342  66.442  1.00  0.00    -0.281 OA 
ATOM     40  OE1 GLU A   1      -6.412  21.239  64.239  1.00  0.00    -0.212 OA 
ENDBRANCH  36  37
ENDBRANCH  32  36
ENDBRANCH  30  32
ENDBRANCH  24  28
ENDBRANCH  20  22
ENDBRANCH  19  20
ENDBRANCH   4  19
TORSDOF 7
ENDMDL
MODEL      208
REMARK 921   NORMALIZED FREE ENERGY PREDICTED BY IDOCK:   -3.79 KCAL/MOL
REMARK 922        TOTAL FREE ENERGY PREDICTED BY IDOCK:   -6.61 KCAL/MOL
REMARK 923 INTER-LIGAND FREE ENERGY PREDICTED BY IDOCK:   -7.32 KCAL/MOL
REMARK 924 INTRA-LIGAND FREE ENERGY PREDICTED BY IDOCK:    0.70 KCAL/MOL
REMARK 927      BINDING AFFINITY PREDICTED BY RF-SCORE:    0.00 PKD
ROOT
HETATM    1  C   UNK A   0      -9.299   3.445  70.159  1.00  0.00    -0.174 C  
HETATM    2  N   UNK A   0      -9.583   4.192  69.024  1.00  0.00    -0.175 N  
HETATM    3  O   UNK A   0      -9.237   3.860  71.312  1.00  0.00    -0.111 OA 
HETATM    4  C   UNK A   0      -9.863   5.673  69.105  1.00  0.00    -0.162 C  
HETATM    5  C   UNK A   0     -11.066   6.004  68.193  1.00  0.00    -0.143 C  
HETATM    6  C   UNK A   0      -9.756   2.582  65.173  1.00  0.00     0.165 C  
HETATM    7  H   UNK A   0      -8.994   0.844  65.951  1.00  0.00     0.000 HD 
HETATM    8  N   UNK A   0     -10.774   5.509  66.858  1.00  0.00    -0.396 NA 
HETATM    9  H   UNK A   0     -11.012   6.081  66.048  1.00  0.00     0.000 HD 
HETATM   10  H2  UNK A   0      -9.391   1.124  63.737  1.00  0.00     0.000 HD 
HETATM   11  C   UNK A   0     -10.178   4.273  66.668  1.00  0.00     0.008 C  
HETATM   12  O   UNK A   0      -8.247   1.692  68.162  1.00  0.00    -0.057 OA 
HETATM   13  C   UNK A   0      -9.604   3.631  67.722  1.00  0.00    -0.134 C  
HETATM   14  H1  UNK A   0     -10.168   2.630  63.188  1.00  0.00     0.000 HD 
HETATM   15  C   UNK A   0      -8.985   2.309  67.399  1.00  0.00    -0.152 C  
HETATM   16  N   UNK A   0     -10.229   3.761  65.395  1.00  0.00    -0.424 NA 
HETATM   17  N   UNK A   0      -9.766   2.053  63.927  1.00  0.00    -0.132 NA 
HETATM   18  N   UNK A   0      -9.223   1.817  66.153  1.00  0.00    -0.313 N  
ENDROOT
BRANCH   4  19
HETATM   19  C   UNK A   0     -10.092   6.262  70.514  1.00  0.00    -0.189 C  
BRANCH  19  20
HETATM   20  N   UNK A   0      -9.237   7.434  70.766  1.00  0.00    -0.159 NA 
HETATM   21  H   UNK A   0      -8.586   7.459  71.550  1.00  0.00     0.000 HD 
BRANCH  20  22
HETATM   22  C   UNK A   0      -9.356   8.513  69.883  1.00  0.00    -0.159 A  
HETATM   23  C   UNK A   0     -10.783  10.247  68.936  1.00  0.00    -0.256 A  
HETATM   24  C   UNK A   0      -9.664  10.856  68.360  1.00  0.00    -0.179 A  
HETATM   25  C   UNK A   0      -8.271   9.069  69.195  1.00  0.00    -0.121 A  
HETATM   26  C   UNK A   0     -10.624   9.074  69.685  1.00  0.00    -0.230 A  
HETATM   27  C   UNK A   0      -8.416  10.235  68.445  1.00  0.00    -0.124 A  
BRANCH  24  28
HETATM   28  C   UNK A   0      -9.805  12.157  67.663  1.00  0.00    -0.194 C  
ATOM     29  H   GLU A   1     -11.867  12.179  68.044  1.00  0.00     0.000 HD 
ATOM     30  N   GLU A   1     -11.099  12.654  67.570  1.00  0.00    -0.259 N  
HETATM   31  O   UNK A   0      -8.832  12.722  67.181  1.00  0.00    -0.189 OA 
BRANCH  30  32
ATOM     32  CA  GLU A   1     -11.354  13.872  66.779  1.00  0.00    -0.333 C  
ATOM     33  C   GLU A   1     -12.619  13.670  65.923  1.00  0.00    -0.425 C  
ATOM     34  O   GLU A   1     -12.884  12.365  65.667  1.00  0.00    -0.308 OA 
ATOM     35  OXT GLU A   1     -13.240  14.578  65.387  1.00  0.00    -0.494 OA 
BRANCH  32  36
ATOM     36  CB  GLU A   1     -10.152  14.180  65.873  1.00  0.00    -0.337 C  
BRANCH  36  37
ATOM     37  CG  GLU A   1      -9.855  15.679  65.762  1.00  0.00    -0.386 C  
ATOM     38  CD  GLU A   1      -8.579  16.070  66.464  1.00  0.00    -0.309 C  
ATOM     39  OE2 GLU A   1      -7.851  15.304  67.075  1.00  0.00    -0.210 OA 
ATOM     40  OE1 GLU A   1      -8.311  17.389  66.337  1.00  0.00    -0.252 OA 
ENDBRANCH  36  37
ENDBRANCH  32  36
ENDBRANCH  30  32
ENDBRANCH  24  28
ENDBRANCH  20  22
ENDBRANCH  19  20
ENDBRANCH   4  19
TORSDOF 7
ENDMDL
MODEL      209
REMARK 921   NORMALIZED FREE ENERGY PREDICTED BY IDOCK:   -3.76 KCAL/MOL
REMARK 922        TOTAL FREE ENERGY PREDICTED BY IDOCK:   -6.57 KCAL/MOL
REMARK 923 INTER-LIGAND FREE ENERGY PREDICTED BY IDOCK:   -6.01 KCAL/MOL
REMARK 924 INTRA-LIGAND FREE ENERGY PREDICTED BY IDOCK:   -0.56 KCAL/MOL
REMARK 927      BINDING AFFINITY PREDICTED BY RF-SCORE:    0.00 PKD
ROOT
HETATM    1  C   UNK A   0      -9.730   6.832  68.410  1.00  0.00    -0.128 C  
HETATM    2  N   UNK A   0      -8.530   6.436  67.836  1.00  0.00    -0.118 N  
HETATM    3  O   UNK A   0      -9.888   7.266  69.548  1.00  0.00    -0.161 OA 
HETATM    4  C   UNK A   0      -7.230   6.506  68.599  1.00  0.00    -0.085 C  
HETATM    5  C   UNK A   0      -6.134   7.073  67.666  1.00  0.00    -0.033 C  
HETATM    6  C   UNK A   0      -8.196   4.993  63.929  1.00  0.00    -0.125 C  
HETATM    7  H   UNK A   0     -10.246   4.947  63.856  1.00  0.00     0.000 HD 
HETATM    8  N   UNK A   0      -6.095   6.258  66.464  1.00  0.00    -0.028 NA 
HETATM    9  H   UNK A   0      -5.193   6.000  66.063  1.00  0.00     0.000 HD 
HETATM   10  H2  UNK A   0      -8.942   4.204  62.157  1.00  0.00     0.000 HD 
HETATM   11  C   UNK A   0      -7.261   5.826  65.853  1.00  0.00    -0.075 C  
HETATM   12  O   UNK A   0     -10.736   5.224  66.274  1.00  0.00    -0.294 OA 
HETATM   13  C   UNK A   0      -8.445   5.918  66.519  1.00  0.00    -0.113 C  
HETATM   14  H1  UNK A   0      -7.176   4.405  62.278  1.00  0.00     0.000 HD 
HETATM   15  C   UNK A   0      -9.635   5.415  65.767  1.00  0.00    -0.050 C  
HETATM   16  N   UNK A   0      -7.136   5.341  64.575  1.00  0.00    -0.053 NA 
HETATM   17  N   UNK A   0      -8.112   4.488  62.677  1.00  0.00    -0.069 NA 
HETATM   18  N   UNK A   0      -9.437   5.103  64.457  1.00  0.00    -0.341 N  
ENDROOT
BRANCH   4  19
HETATM   19  C   UNK A   0      -7.245   7.288  69.930  1.00  0.00    -0.081 C  
BRANCH  19  20
HETATM   20  N   UNK A   0      -6.119   8.232  70.027  1.00  0.00    -0.028 NA 
HETATM   21  H   UNK A   0      -5.207   7.938  70.376  1.00  0.00     0.000 HD 
BRANCH  20  22
HETATM   22  C   UNK A   0      -6.353   9.550  69.619  1.00  0.00    -0.040 A  
HETATM   23  C   UNK A   0      -5.419  11.645  68.795  1.00  0.00    -0.049 A  
HETATM   24  C   UNK A   0      -6.708  12.113  68.521  1.00  0.00    -0.071 A  
HETATM   25  C   UNK A   0      -7.636  10.088  69.452  1.00  0.00    -0.123 A  
HETATM   26  C   UNK A   0      -5.250  10.370  69.352  1.00  0.00    -0.038 A  
HETATM   27  C   UNK A   0      -7.817  11.354  68.900  1.00  0.00    -0.096 A  
BRANCH  24  28
HETATM   28  C   UNK A   0      -6.892  13.410  67.827  1.00  0.00    -0.160 C  
ATOM     29  H   GLU A   1      -8.789  13.644  68.688  1.00  0.00     0.000 HD 
ATOM     30  N   GLU A   1      -8.118  14.032  68.026  1.00  0.00    -0.139 N  
HETATM   31  O   UNK A   0      -6.016  13.868  67.104  1.00  0.00    -0.216 OA 
BRANCH  30  32
ATOM     32  CA  GLU A   1      -8.443  15.257  67.271  1.00  0.00    -0.193 C  
ATOM     33  C   GLU A   1      -7.822  16.475  67.981  1.00  0.00    -0.157 C  
ATOM     34  O   GLU A   1      -7.613  16.268  69.305  1.00  0.00    -0.232 OA 
ATOM     35  OXT GLU A   1      -7.674  17.573  67.462  1.00  0.00    -0.193 OA 
BRANCH  32  36
ATOM     36  CB  GLU A   1      -9.966  15.430  67.169  1.00  0.00    -0.234 C  
BRANCH  36  37
ATOM     37  CG  GLU A   1     -10.385  16.420  66.076  1.00  0.00    -0.365 C  
ATOM     38  CD  GLU A   1     -10.928  15.731  64.850  1.00  0.00    -0.427 C  
ATOM     39  OE2 GLU A   1     -11.022  14.523  64.707  1.00  0.00    -0.390 OA 
ATOM     40  OE1 GLU A   1     -11.320  16.614  63.903  1.00  0.00    -1.104 OA 
ENDBRANCH  36  37
ENDBRANCH  32  36
ENDBRANCH  30  32
ENDBRANCH  24  28
ENDBRANCH  20  22
ENDBRANCH  19  20
ENDBRANCH   4  19
TORSDOF 7
ENDMDL
MODEL      210
REMARK 921   NORMALIZED FREE ENERGY PREDICTED BY IDOCK:   -3.75 KCAL/MOL
REMARK 922        TOTAL FREE ENERGY PREDICTED BY IDOCK:   -6.55 KCAL/MOL
REMARK 923 INTER-LIGAND FREE ENERGY PREDICTED BY IDOCK:   -6.69 KCAL/MOL
REMARK 924 INTRA-LIGAND FREE ENERGY PREDICTED BY IDOCK:    0.14 KCAL/MOL
REMARK 927      BINDING AFFINITY PREDICTED BY RF-SCORE:    0.00 PKD
ROOT
HETATM    1  C   UNK A   0     -10.348   6.260  66.829  1.00  0.00    -0.221 C  
HETATM    2  N   UNK A   0      -9.185   5.513  66.956  1.00  0.00    -0.115 N  
HETATM    3  O   UNK A   0     -10.743   7.135  67.593  1.00  0.00    -0.240 OA 
HETATM    4  C   UNK A   0      -8.239   5.720  68.114  1.00  0.00    -0.104 C  
HETATM    5  C   UNK A   0      -6.788   5.712  67.579  1.00  0.00    -0.060 C  
HETATM    6  C   UNK A   0      -8.007   2.574  64.231  1.00  0.00    -0.078 C  
HETATM    7  H   UNK A   0      -9.849   2.767  63.349  1.00  0.00     0.000 HD 
HETATM    8  N   UNK A   0      -6.584   4.481  66.836  1.00  0.00    -0.049 NA 
HETATM    9  H   UNK A   0      -5.709   3.968  66.945  1.00  0.00     0.000 HD 
HETATM   10  H2  UNK A   0      -8.320   1.235  62.672  1.00  0.00     0.000 HD 
HETATM   11  C   UNK A   0      -7.559   3.991  65.981  1.00  0.00    -0.089 C  
HETATM   12  O   UNK A   0     -11.005   4.065  65.122  1.00  0.00    -0.065 OA 
HETATM   13  C   UNK A   0      -8.821   4.497  66.037  1.00  0.00    -0.119 C  
HETATM   14  H1  UNK A   0      -6.708   1.240  63.429  1.00  0.00     0.000 HD 
HETATM   15  C   UNK A   0      -9.791   3.889  65.075  1.00  0.00    -0.192 C  
HETATM   16  N   UNK A   0      -7.162   3.016  65.099  1.00  0.00    -0.065 NA 
HETATM   17  N   UNK A   0      -7.661   1.597  63.361  1.00  0.00    -0.052 NA 
HETATM   18  N   UNK A   0      -9.270   3.048  64.140  1.00  0.00    -0.114 N  
ENDROOT
BRANCH   4  19
HETATM   19  C   UNK A   0      -8.471   6.971  68.988  1.00  0.00    -0.129 C  
BRANCH  19  20
HETATM   20  N   UNK A   0      -7.643   8.108  68.554  1.00  0.00    -0.102 NA 
HETATM   21  H   UNK A   0      -6.627   8.034  68.493  1.00  0.00     0.000 HD 
BRANCH  20  22
HETATM   22  C   UNK A   0      -8.308   9.295  68.227  1.00  0.00    -0.120 A  
HETATM   23  C   UNK A   0     -10.326  10.646  68.438  1.00  0.00    -0.197 A  
HETATM   24  C   UNK A   0      -9.655  11.738  67.878  1.00  0.00    -0.187 A  
HETATM   25  C   UNK A   0      -7.697  10.362  67.555  1.00  0.00    -0.094 A  
HETATM   26  C   UNK A   0      -9.652   9.429  68.600  1.00  0.00    -0.152 A  
HETATM   27  C   UNK A   0      -8.357  11.577  67.387  1.00  0.00    -0.148 A  
BRANCH  24  28
HETATM   28  C   UNK A   0     -10.321  13.060  67.808  1.00  0.00    -0.226 C  
ATOM     29  H   GLU A   1     -10.705  13.017  69.869  1.00  0.00     0.000 HD 
ATOM     30  N   GLU A   1     -10.860  13.527  69.000  1.00  0.00    -0.227 N  
HETATM   31  O   UNK A   0     -10.408  13.667  66.749  1.00  0.00    -0.263 OA 
BRANCH  30  32
ATOM     32  CA  GLU A   1     -11.658  14.768  69.000  1.00  0.00    -0.297 C  
ATOM     33  C   GLU A   1     -10.713  15.984  68.975  1.00  0.00    -0.274 C  
ATOM     34  O   GLU A   1      -9.483  15.711  69.476  1.00  0.00    -0.265 OA 
ATOM     35  OXT GLU A   1     -11.061  17.121  68.688  1.00  0.00    -0.241 OA 
BRANCH  32  36
ATOM     36  CB  GLU A   1     -12.552  14.825  70.248  1.00  0.00    -0.365 C  
BRANCH  36  37
ATOM     37  CG  GLU A   1     -12.117  15.901  71.248  1.00  0.00    -0.487 C  
ATOM     38  CD  GLU A   1     -12.393  15.508  72.677  1.00  0.00    -0.414 C  
ATOM     39  OE2 GLU A   1     -12.917  14.463  73.030  1.00  0.00    -0.500 OA 
ATOM     40  OE1 GLU A   1     -11.981  16.452  73.554  1.00  0.00    -0.443 OA 
ENDBRANCH  36  37
ENDBRANCH  32  36
ENDBRANCH  30  32
ENDBRANCH  24  28
ENDBRANCH  20  22
ENDBRANCH  19  20
ENDBRANCH   4  19
TORSDOF 7
ENDMDL
MODEL      211
REMARK 921   NORMALIZED FREE ENERGY PREDICTED BY IDOCK:   -3.66 KCAL/MOL
REMARK 922        TOTAL FREE ENERGY PREDICTED BY IDOCK:   -6.43 KCAL/MOL
REMARK 923 INTER-LIGAND FREE ENERGY PREDICTED BY IDOCK:   -6.93 KCAL/MOL
REMARK 924 INTRA-LIGAND FREE ENERGY PREDICTED BY IDOCK:    0.50 KCAL/MOL
REMARK 927      BINDING AFFINITY PREDICTED BY RF-SCORE:    0.00 PKD
ROOT
HETATM    1  C   UNK A   0     -10.161   9.043  67.425  1.00  0.00    -0.245 C  
HETATM    2  N   UNK A   0      -9.743   8.874  68.738  1.00  0.00    -0.161 N  
HETATM    3  O   UNK A   0      -9.452   9.029  66.424  1.00  0.00    -0.187 OA 
HETATM    4  C   UNK A   0      -8.292   8.642  69.079  1.00  0.00    -0.119 C  
HETATM    5  C   UNK A   0      -8.203   7.525  70.145  1.00  0.00    -0.132 C  
HETATM    6  C   UNK A   0     -12.327   8.947  72.020  1.00  0.00    -0.390 C  
HETATM    7  H   UNK A   0     -13.801   9.584  70.744  1.00  0.00     0.000 HD 
HETATM    8  N   UNK A   0      -9.042   7.903  71.269  1.00  0.00    -0.136 NA 
HETATM    9  H   UNK A   0      -8.706   7.750  72.220  1.00  0.00     0.000 HD 
HETATM   10  H2  UNK A   0     -14.122   9.372  72.979  1.00  0.00     0.000 HD 
HETATM   11  C   UNK A   0     -10.291   8.469  71.072  1.00  0.00    -0.209 C  
HETATM   12  O   UNK A   0     -12.400  10.185  68.785  1.00  0.00     0.241 OA 
HETATM   13  C   UNK A   0     -10.633   8.936  69.840  1.00  0.00    -0.221 C  
HETATM   14  H1  UNK A   0     -12.809   8.693  73.973  1.00  0.00     0.000 HD 
HETATM   15  C   UNK A   0     -12.001   9.532  69.745  1.00  0.00     0.377 C  
HETATM   16  N   UNK A   0     -11.126   8.500  72.162  1.00  0.00    -0.345 NA 
HETATM   17  N   UNK A   0     -13.171   9.016  73.076  1.00  0.00    -0.828 NA 
HETATM   18  N   UNK A   0     -12.807   9.375  70.830  1.00  0.00    -0.523 N  
ENDROOT
BRANCH   4  19
HETATM   19  C   UNK A   0      -7.342   8.324  67.904  1.00  0.00    -0.096 C  
BRANCH  19  20
HETATM   20  N   UNK A   0      -6.399   9.424  67.645  1.00  0.00    -0.058 NA 
HETATM   21  H   UNK A   0      -5.413   9.245  67.452  1.00  0.00     0.000 HD 
BRANCH  20  22
HETATM   22  C   UNK A   0      -6.912  10.725  67.674  1.00  0.00    -0.082 A  
HETATM   23  C   UNK A   0      -8.262  12.429  66.572  1.00  0.00     0.160 A  
HETATM   24  C   UNK A   0      -8.228  13.209  67.732  1.00  0.00    -0.168 A  
HETATM   25  C   UNK A   0      -6.788  11.578  68.779  1.00  0.00    -0.084 A  
HETATM   26  C   UNK A   0      -7.596  11.197  66.547  1.00  0.00    -0.135 A  
HETATM   27  C   UNK A   0      -7.445  12.806  68.816  1.00  0.00    -0.048 A  
BRANCH  24  28
HETATM   28  C   UNK A   0      -9.023  14.458  67.808  1.00  0.00    -0.192 C  
ATOM     29  H   GLU A   1      -9.003  14.387  69.904  1.00  0.00     0.000 HD 
ATOM     30  N   GLU A   1      -9.370  14.875  69.087  1.00  0.00    -0.178 N  
HETATM   31  O   UNK A   0      -9.369  15.047  66.793  1.00  0.00    -0.223 OA 
BRANCH  30  32
ATOM     32  CA  GLU A   1     -10.272  16.030  69.256  1.00  0.00    -0.249 C  
ATOM     33  C   GLU A   1     -11.687  15.527  69.599  1.00  0.00    -0.357 C  
ATOM     34  O   GLU A   1     -11.922  14.263  69.165  1.00  0.00    -0.319 OA 
ATOM     35  OXT GLU A   1     -12.572  16.229  70.068  1.00  0.00     0.018 OA 
BRANCH  32  36
ATOM     36  CB  GLU A   1     -10.311  16.867  67.968  1.00  0.00    -0.334 C  
BRANCH  36  37
ATOM     37  CG  GLU A   1      -9.974  18.343  68.203  1.00  0.00    -0.388 C  
ATOM     38  CD  GLU A   1     -10.210  19.191  66.979  1.00  0.00    -0.393 C  
ATOM     39  OE2 GLU A   1     -10.610  18.776  65.903  1.00  0.00    -0.475 OA 
ATOM     40  OE1 GLU A   1      -9.936  20.497  67.204  1.00  0.00    -0.452 OA 
ENDBRANCH  36  37
ENDBRANCH  32  36
ENDBRANCH  30  32
ENDBRANCH  24  28
ENDBRANCH  20  22
ENDBRANCH  19  20
ENDBRANCH   4  19
TORSDOF 7
ENDMDL
MODEL      212
REMARK 921   NORMALIZED FREE ENERGY PREDICTED BY IDOCK:   -3.60 KCAL/MOL
REMARK 922        TOTAL FREE ENERGY PREDICTED BY IDOCK:   -6.34 KCAL/MOL
REMARK 923 INTER-LIGAND FREE ENERGY PREDICTED BY IDOCK:   -5.57 KCAL/MOL
REMARK 924 INTRA-LIGAND FREE ENERGY PREDICTED BY IDOCK:   -0.77 KCAL/MOL
REMARK 927      BINDING AFFINITY PREDICTED BY RF-SCORE:    0.00 PKD
ROOT
HETATM    1  C   UNK A   0      -9.866   4.698  68.234  1.00  0.00    -0.103 C  
HETATM    2  N   UNK A   0      -8.982   5.707  68.589  1.00  0.00    -0.111 N  
HETATM    3  O   UNK A   0     -10.468   4.593  67.169  1.00  0.00    -0.099 OA 
HETATM    4  C   UNK A   0      -8.656   6.838  67.644  1.00  0.00    -0.121 C  
HETATM    5  C   UNK A   0      -7.132   7.099  67.686  1.00  0.00    -0.089 C  
HETATM    6  C   UNK A   0      -7.019   5.879  72.273  1.00  0.00    -0.082 C  
HETATM    7  H   UNK A   0      -8.216   4.334  72.893  1.00  0.00     0.000 HD 
HETATM    8  N   UNK A   0      -6.749   7.328  69.068  1.00  0.00    -0.057 NA 
HETATM    9  H   UNK A   0      -6.084   8.070  69.288  1.00  0.00     0.000 HD 
HETATM   10  H2  UNK A   0      -6.728   5.358  74.264  1.00  0.00     0.000 HD 
HETATM   11  C   UNK A   0      -7.270   6.555  70.093  1.00  0.00    -0.080 C  
HETATM   12  O   UNK A   0      -9.905   4.385  71.074  1.00  0.00    -0.177 OA 
HETATM   13  C   UNK A   0      -8.351   5.764  69.858  1.00  0.00    -0.119 C  
HETATM   14  H1  UNK A   0      -5.654   6.605  73.585  1.00  0.00     0.000 HD 
HETATM   15  C   UNK A   0      -8.833   4.981  71.038  1.00  0.00    -0.131 C  
HETATM   16  N   UNK A   0      -6.624   6.631  71.302  1.00  0.00    -0.049 NA 
HETATM   17  N   UNK A   0      -6.423   5.943  73.486  1.00  0.00    -0.071 NA 
HETATM   18  N   UNK A   0      -8.038   5.001  72.142  1.00  0.00    -0.110 N  
ENDROOT
BRANCH   4  19
HETATM   19  C   UNK A   0      -9.123   6.679  66.181  1.00  0.00    -0.118 C  
BRANCH  19  20
HETATM   20  N   UNK A   0      -8.670   7.795  65.334  1.00  0.00    -0.340 NA 
HETATM   21  H   UNK A   0      -8.153   7.631  64.470  1.00  0.00     0.000 HD 
BRANCH  20  22
HETATM   22  C   UNK A   0      -8.979   9.090  65.765  1.00  0.00    -0.197 A  
HETATM   23  C   UNK A   0     -10.601  10.575  66.817  1.00  0.00    -0.284 A  
HETATM   24  C   UNK A   0      -9.625  11.571  66.919  1.00  0.00    -0.203 A  
HETATM   25  C   UNK A   0      -8.056  10.144  65.765  1.00  0.00    -0.142 A  
HETATM   26  C   UNK A   0     -10.275   9.344  66.231  1.00  0.00    -0.284 A  
HETATM   27  C   UNK A   0      -8.368  11.372  66.342  1.00  0.00    -0.140 A  
BRANCH  24  28
HETATM   28  C   UNK A   0      -9.926  12.832  67.638  1.00  0.00    -0.217 C  
ATOM     29  H   GLU A   1      -8.782  13.931  66.266  1.00  0.00     0.000 HD 
ATOM     30  N   GLU A   1      -9.317  13.974  67.134  1.00  0.00    -0.232 N  
HETATM   31  O   UNK A   0     -10.642  12.835  68.631  1.00  0.00    -0.247 OA 
BRANCH  30  32
ATOM     32  CA  GLU A   1      -9.450  15.250  67.862  1.00  0.00    -0.197 C  
ATOM     33  C   GLU A   1     -10.613  16.062  67.263  1.00  0.00    -0.313 C  
ATOM     34  O   GLU A   1     -10.882  15.735  65.975  1.00  0.00    -0.317 OA 
ATOM     35  OXT GLU A   1     -11.146  17.014  67.817  1.00  0.00    -0.263 OA 
BRANCH  32  36
ATOM     36  CB  GLU A   1      -8.144  16.055  67.765  1.00  0.00    -0.154 C  
BRANCH  36  37
ATOM     37  CG  GLU A   1      -7.303  15.987  69.044  1.00  0.00    -0.191 C  
ATOM     38  CD  GLU A   1      -6.157  15.014  68.930  1.00  0.00    -0.089 C  
ATOM     39  OE2 GLU A   1      -5.910  14.331  67.949  1.00  0.00    -0.136 OA 
ATOM     40  OE1 GLU A   1      -5.403  14.981  70.053  1.00  0.00    -0.103 OA 
ENDBRANCH  36  37
ENDBRANCH  32  36
ENDBRANCH  30  32
ENDBRANCH  24  28
ENDBRANCH  20  22
ENDBRANCH  19  20
ENDBRANCH   4  19
TORSDOF 7
ENDMDL
MODEL      213
REMARK 921   NORMALIZED FREE ENERGY PREDICTED BY IDOCK:   -3.57 KCAL/MOL
REMARK 922        TOTAL FREE ENERGY PREDICTED BY IDOCK:   -6.31 KCAL/MOL
REMARK 923 INTER-LIGAND FREE ENERGY PREDICTED BY IDOCK:   -7.06 KCAL/MOL
REMARK 924 INTRA-LIGAND FREE ENERGY PREDICTED BY IDOCK:    0.76 KCAL/MOL
REMARK 927      BINDING AFFINITY PREDICTED BY RF-SCORE:    0.00 PKD
ROOT
HETATM    1  C   UNK A   0      -9.139   3.496  68.426  1.00  0.00    -0.149 C  
HETATM    2  N   UNK A   0      -9.390   4.177  69.609  1.00  0.00    -0.153 N  
HETATM    3  O   UNK A   0      -9.596   3.760  67.318  1.00  0.00    -0.202 OA 
HETATM    4  C   UNK A   0     -10.302   5.379  69.647  1.00  0.00    -0.291 C  
HETATM    5  C   UNK A   0      -9.654   6.469  70.531  1.00  0.00    -0.169 C  
HETATM    6  C   UNK A   0      -7.720   3.124  73.290  1.00  0.00    -0.060 C  
HETATM    7  H   UNK A   0      -7.023   1.415  72.395  1.00  0.00     0.000 HD 
HETATM    8  N   UNK A   0      -9.357   5.885  71.828  1.00  0.00    -0.149 NA 
HETATM    9  H   UNK A   0      -9.541   6.423  72.675  1.00  0.00     0.000 HD 
HETATM   10  H2  UNK A   0      -6.752   1.838  74.606  1.00  0.00     0.000 HD 
HETATM   11  C   UNK A   0      -8.826   4.610  71.934  1.00  0.00    -0.123 C  
HETATM   12  O   UNK A   0      -8.359   1.488  70.303  1.00  0.00    -0.041 OA 
HETATM   13  C   UNK A   0      -8.838   3.782  70.854  1.00  0.00    -0.082 C  
HETATM   14  H1  UNK A   0      -7.289   3.409  75.251  1.00  0.00     0.000 HD 
HETATM   15  C   UNK A   0      -8.247   2.428  71.085  1.00  0.00    -0.050 C  
HETATM   16  N   UNK A   0      -8.293   4.271  73.153  1.00  0.00    -0.090 NA 
HETATM   17  N   UNK A   0      -7.204   2.744  74.482  1.00  0.00    -0.041 NA 
HETATM   18  N   UNK A   0      -7.606   2.242  72.271  1.00  0.00    -0.043 N  
ENDROOT
BRANCH   4  19
HETATM   19  C   UNK A   0     -10.718   5.982  68.288  1.00  0.00    -0.279 C  
BRANCH  19  20
HETATM   20  N   UNK A   0      -9.568   6.545  67.561  1.00  0.00    -0.123 NA 
HETATM   21  H   UNK A   0      -8.876   5.944  67.114  1.00  0.00     0.000 HD 
BRANCH  20  22
HETATM   22  C   UNK A   0      -9.467   7.939  67.509  1.00  0.00    -0.145 A  
HETATM   23  C   UNK A   0      -9.827   9.981  66.227  1.00  0.00    -0.297 A  
HETATM   24  C   UNK A   0      -9.574  10.745  67.370  1.00  0.00    -0.179 A  
HETATM   25  C   UNK A   0      -9.097   8.727  68.606  1.00  0.00    -0.141 A  
HETATM   26  C   UNK A   0      -9.762   8.583  66.300  1.00  0.00    -0.300 A  
HETATM   27  C   UNK A   0      -9.156  10.117  68.546  1.00  0.00    -0.134 A  
BRANCH  24  28
HETATM   28  C   UNK A   0      -9.753  12.216  67.332  1.00  0.00    -0.179 C  
ATOM     29  H   GLU A   1     -11.315  12.100  68.726  1.00  0.00     0.000 HD 
ATOM     30  N   GLU A   1     -10.791  12.718  68.107  1.00  0.00    -0.219 N  
HETATM   31  O   UNK A   0      -9.040  12.919  66.628  1.00  0.00    -0.225 OA 
BRANCH  30  32
ATOM     32  CA  GLU A   1     -11.130  14.152  68.028  1.00  0.00    -0.267 C  
ATOM     33  C   GLU A   1     -11.884  14.570  69.304  1.00  0.00    -0.323 C  
ATOM     34  O   GLU A   1     -12.512  13.534  69.914  1.00  0.00    -0.252 OA 
ATOM     35  OXT GLU A   1     -12.046  15.729  69.659  1.00  0.00    -0.355 OA 
BRANCH  32  36
ATOM     36  CB  GLU A   1     -12.001  14.425  66.791  1.00  0.00    -0.423 C  
BRANCH  36  37
ATOM     37  CG  GLU A   1     -12.239  13.174  65.939  1.00  0.00    -0.497 C  
ATOM     38  CD  GLU A   1     -11.388  13.151  64.695  1.00  0.00    -0.333 C  
ATOM     39  OE2 GLU A   1     -10.600  14.023  64.367  1.00  0.00    -0.382 OA 
ATOM     40  OE1 GLU A   1     -11.586  12.031  63.963  1.00  0.00    -0.367 OA 
ENDBRANCH  36  37
ENDBRANCH  32  36
ENDBRANCH  30  32
ENDBRANCH  24  28
ENDBRANCH  20  22
ENDBRANCH  19  20
ENDBRANCH   4  19
TORSDOF 7
ENDMDL
MODEL      214
REMARK 921   NORMALIZED FREE ENERGY PREDICTED BY IDOCK:   -3.53 KCAL/MOL
REMARK 922        TOTAL FREE ENERGY PREDICTED BY IDOCK:   -6.24 KCAL/MOL
REMARK 923 INTER-LIGAND FREE ENERGY PREDICTED BY IDOCK:   -5.75 KCAL/MOL
REMARK 924 INTRA-LIGAND FREE ENERGY PREDICTED BY IDOCK:   -0.48 KCAL/MOL
REMARK 927      BINDING AFFINITY PREDICTED BY RF-SCORE:    0.00 PKD
ROOT
HETATM    1  C   UNK A   0      -9.145   3.506  68.414  1.00  0.00    -0.149 C  
HETATM    2  N   UNK A   0      -9.418   4.366  69.468  1.00  0.00    -0.164 N  
HETATM    3  O   UNK A   0      -9.585   3.587  67.271  1.00  0.00    -0.211 OA 
HETATM    4  C   UNK A   0     -10.333   5.554  69.300  1.00  0.00    -0.265 C  
HETATM    5  C   UNK A   0      -9.701   6.774  70.009  1.00  0.00    -0.163 C  
HETATM    6  C   UNK A   0      -7.807   3.920  73.298  1.00  0.00    -0.083 C  
HETATM    7  H   UNK A   0      -7.092   2.094  72.698  1.00  0.00     0.000 HD 
HETATM    8  N   UNK A   0      -9.425   6.406  71.387  1.00  0.00    -0.156 NA 
HETATM    9  H   UNK A   0      -9.625   7.071  72.134  1.00  0.00     0.000 HD 
HETATM   10  H2  UNK A   0      -6.859   2.865  74.817  1.00  0.00     0.000 HD 
HETATM   11  C   UNK A   0      -8.894   5.166  71.704  1.00  0.00    -0.134 C  
HETATM   12  O   UNK A   0      -8.393   1.827  70.600  1.00  0.00    -0.047 OA 
HETATM   13  C   UNK A   0      -8.886   4.177  70.769  1.00  0.00    -0.086 C  
HETATM   14  H1  UNK A   0      -7.410   4.517  75.194  1.00  0.00     0.000 HD 
HETATM   15  C   UNK A   0      -8.297   2.879  71.224  1.00  0.00    -0.062 C  
HETATM   16  N   UNK A   0      -8.380   5.028  72.970  1.00  0.00    -0.111 NA 
HETATM   17  N   UNK A   0      -7.311   3.738  74.543  1.00  0.00    -0.057 NA 
HETATM   18  N   UNK A   0      -7.675   2.888  72.434  1.00  0.00    -0.053 N  
ENDROOT
BRANCH   4  19
HETATM   19  C   UNK A   0     -10.727   5.930  67.855  1.00  0.00    -0.255 C  
BRANCH  19  20
HETATM   20  N   UNK A   0      -9.566   6.375  67.066  1.00  0.00    -0.136 NA 
HETATM   21  H   UNK A   0      -8.819   5.730  66.809  1.00  0.00     0.000 HD 
BRANCH  20  22
HETATM   22  C   UNK A   0      -9.532   7.721  66.684  1.00  0.00    -0.205 A  
HETATM   23  C   UNK A   0     -10.612   9.905  66.749  1.00  0.00    -0.214 A  
HETATM   24  C   UNK A   0      -9.457  10.493  66.222  1.00  0.00    -0.217 A  
HETATM   25  C   UNK A   0      -8.436   8.312  66.043  1.00  0.00    -0.148 A  
HETATM   26  C   UNK A   0     -10.646   8.521  66.967  1.00  0.00    -0.305 A  
HETATM   27  C   UNK A   0      -8.390   9.686  65.819  1.00  0.00    -0.132 A  
BRANCH  24  28
HETATM   28  C   UNK A   0      -9.369  11.967  66.095  1.00  0.00    -0.219 C  
ATOM     29  H   GLU A   1      -7.813  12.032  67.499  1.00  0.00     0.000 HD 
ATOM     30  N   GLU A   1      -8.444  12.589  66.923  1.00  0.00    -0.167 N  
HETATM   31  O   UNK A   0     -10.099  12.578  65.326  1.00  0.00    -0.278 OA 
BRANCH  30  32
ATOM     32  CA  GLU A   1      -8.380  14.063  66.964  1.00  0.00    -0.104 C  
ATOM     33  C   GLU A   1      -6.962  14.501  67.378  1.00  0.00    -0.077 C  
ATOM     34  O   GLU A   1      -6.300  13.557  68.091  1.00  0.00    -0.095 OA 
ATOM     35  OXT GLU A   1      -6.521  15.633  67.230  1.00  0.00    -0.248 OA 
BRANCH  32  36
ATOM     36  CB  GLU A   1      -9.411  14.612  67.962  1.00  0.00    -0.198 C  
BRANCH  36  37
ATOM     37  CG  GLU A   1     -10.249  13.513  68.623  1.00  0.00    -0.193 C  
ATOM     38  CD  GLU A   1     -11.655  13.453  68.080  1.00  0.00    -0.341 C  
ATOM     39  OE2 GLU A   1     -12.108  14.193  67.222  1.00  0.00    -0.417 OA 
ATOM     40  OE1 GLU A   1     -12.378  12.462  68.649  1.00  0.00    -0.063 OA 
ENDBRANCH  36  37
ENDBRANCH  32  36
ENDBRANCH  30  32
ENDBRANCH  24  28
ENDBRANCH  20  22
ENDBRANCH  19  20
ENDBRANCH   4  19
TORSDOF 7
ENDMDL
MODEL      215
REMARK 921   NORMALIZED FREE ENERGY PREDICTED BY IDOCK:   -3.46 KCAL/MOL
REMARK 922        TOTAL FREE ENERGY PREDICTED BY IDOCK:   -6.15 KCAL/MOL
REMARK 923 INTER-LIGAND FREE ENERGY PREDICTED BY IDOCK:   -5.89 KCAL/MOL
REMARK 924 INTRA-LIGAND FREE ENERGY PREDICTED BY IDOCK:   -0.25 KCAL/MOL
REMARK 927      BINDING AFFINITY PREDICTED BY RF-SCORE:    0.00 PKD
ROOT
HETATM    1  C   UNK A   0     -10.888  14.729  69.746  1.00  0.00    -0.198 C  
HETATM    2  N   UNK A   0     -11.409  14.139  68.603  1.00  0.00    -0.260 N  
HETATM    3  O   UNK A   0     -10.878  14.250  70.877  1.00  0.00     0.470 OA 
HETATM    4  C   UNK A   0     -12.050  12.773  68.642  1.00  0.00    -0.113 C  
HETATM    5  C   UNK A   0     -11.566  11.961  67.419  1.00  0.00    -0.297 C  
HETATM    6  C   UNK A   0     -11.336  15.935  64.831  1.00  0.00    -0.256 C  
HETATM    7  H   UNK A   0     -10.686  17.651  65.749  1.00  0.00     0.000 HD 
HETATM    8  N   UNK A   0     -11.847  12.733  66.221  1.00  0.00    -0.411 NA 
HETATM    9  H   UNK A   0     -12.215  12.262  65.395  1.00  0.00     0.000 HD 
HETATM   10  H2  UNK A   0     -11.130  17.541  63.528  1.00  0.00     0.000 HD 
HETATM   11  C   UNK A   0     -11.621  14.100  66.181  1.00  0.00    -0.370 C  
HETATM   12  O   UNK A   0     -11.178  17.051  68.108  1.00  0.00    -0.272 OA 
HETATM   13  C   UNK A   0     -11.404  14.781  67.338  1.00  0.00    -0.351 C  
HETATM   14  H1  UNK A   0     -11.570  15.968  62.817  1.00  0.00     0.000 HD 
HETATM   15  C   UNK A   0     -11.180  16.251  67.177  1.00  0.00     0.102 C  
HETATM   16  N   UNK A   0     -11.613  14.680  64.937  1.00  0.00    -0.388 NA 
HETATM   17  N   UNK A   0     -11.342  16.548  63.625  1.00  0.00    -0.967 NA 
HETATM   18  N   UNK A   0     -11.034  16.704  65.902  1.00  0.00    -0.037 N  
ENDROOT
BRANCH   4  19
HETATM   19  C   UNK A   0     -11.854  11.949  69.933  1.00  0.00    -0.343 C  
BRANCH  19  20
HETATM   20  N   UNK A   0     -10.497  11.385  70.025  1.00  0.00    -0.052 NA 
HETATM   21  H   UNK A   0      -9.754  11.868  70.529  1.00  0.00     0.000 HD 
BRANCH  20  22
HETATM   22  C   UNK A   0     -10.272  10.158  69.393  1.00  0.00    -0.227 A  
HETATM   23  C   UNK A   0      -8.761   8.770  68.077  1.00  0.00    -0.141 A  
HETATM   24  C   UNK A   0      -9.574   7.657  68.314  1.00  0.00    -0.160 A  
HETATM   25  C   UNK A   0     -11.132   9.060  69.511  1.00  0.00    -0.039 A  
HETATM   26  C   UNK A   0      -9.120  10.016  68.609  1.00  0.00    -0.139 A  
HETATM   27  C   UNK A   0     -10.788   7.816  68.986  1.00  0.00    -0.042 A  
BRANCH  24  28
HETATM   28  C   UNK A   0      -9.145   6.315  67.854  1.00  0.00    -0.111 C  
ATOM     29  H   GLU A   1      -8.214   7.149  66.170  1.00  0.00     0.000 HD 
ATOM     30  N   GLU A   1      -8.469   6.281  66.641  1.00  0.00    -0.111 N  
HETATM   31  O   UNK A   0      -9.410   5.312  68.503  1.00  0.00    -0.113 OA 
BRANCH  30  32
ATOM     32  CA  GLU A   1      -8.122   4.980  66.038  1.00  0.00    -0.108 C  
ATOM     33  C   GLU A   1      -6.594   4.788  66.083  1.00  0.00    -0.045 C  
ATOM     34  O   GLU A   1      -5.912   5.958  66.138  1.00  0.00    -0.023 OA 
ATOM     35  OXT GLU A   1      -6.030   3.713  65.924  1.00  0.00    -0.025 OA 
BRANCH  32  36
ATOM     36  CB  GLU A   1      -8.616   4.919  64.585  1.00  0.00    -0.149 C  
BRANCH  36  37
ATOM     37  CG  GLU A   1      -8.737   3.487  64.053  1.00  0.00    -0.093 C  
ATOM     38  CD  GLU A   1     -10.165   3.094  63.770  1.00  0.00    -0.200 C  
ATOM     39  OE2 GLU A   1     -11.138   3.809  63.948  1.00  0.00    -0.311 OA 
ATOM     40  OE1 GLU A   1     -10.259   1.839  63.275  1.00  0.00    -0.113 OA 
ENDBRANCH  36  37
ENDBRANCH  32  36
ENDBRANCH  30  32
ENDBRANCH  24  28
ENDBRANCH  20  22
ENDBRANCH  19  20
ENDBRANCH   4  19
TORSDOF 7
ENDMDL
MODEL      216
REMARK 921   NORMALIZED FREE ENERGY PREDICTED BY IDOCK:   -3.33 KCAL/MOL
REMARK 922        TOTAL FREE ENERGY PREDICTED BY IDOCK:   -5.96 KCAL/MOL
REMARK 923 INTER-LIGAND FREE ENERGY PREDICTED BY IDOCK:   -5.26 KCAL/MOL
REMARK 924 INTRA-LIGAND FREE ENERGY PREDICTED BY IDOCK:   -0.70 KCAL/MOL
REMARK 927      BINDING AFFINITY PREDICTED BY RF-SCORE:    0.00 PKD
ROOT
HETATM    1  C   UNK A   0     -11.629  13.789  65.527  1.00  0.00    -0.326 C  
HETATM    2  N   UNK A   0     -10.862  13.548  66.658  1.00  0.00    -0.282 N  
HETATM    3  O   UNK A   0     -11.495  13.263  64.426  1.00  0.00    -0.348 OA 
HETATM    4  C   UNK A   0      -9.724  12.556  66.642  1.00  0.00    -0.242 C  
HETATM    5  C   UNK A   0      -9.780  11.713  67.937  1.00  0.00    -0.179 C  
HETATM    6  C   UNK A   0     -11.487  15.442  70.329  1.00  0.00    -0.316 C  
HETATM    7  H   UNK A   0     -12.819  16.676  69.375  1.00  0.00     0.000 HD 
HETATM    8  N   UNK A   0      -9.783  12.621  69.071  1.00  0.00    -0.368 NA 
HETATM    9  H   UNK A   0      -9.218  12.402  69.891  1.00  0.00     0.000 HD 
HETATM   10  H2  UNK A   0     -12.269  16.922  71.561  1.00  0.00     0.000 HD 
HETATM   11  C   UNK A   0     -10.542  13.780  69.058  1.00  0.00    -0.139 C  
HETATM   12  O   UNK A   0     -12.234  16.148  67.021  1.00  0.00     1.149 OA 
HETATM   13  C   UNK A   0     -11.071  14.227  67.886  1.00  0.00    -0.278 C  
HETATM   14  H1  UNK A   0     -11.196  15.718  72.317  1.00  0.00     0.000 HD 
HETATM   15  C   UNK A   0     -11.865  15.490  67.988  1.00  0.00    -0.073 C  
HETATM   16  N   UNK A   0     -10.729  14.400  70.268  1.00  0.00    -0.388 NA 
HETATM   17  N   UNK A   0     -11.676  16.095  71.499  1.00  0.00    -0.547 NA 
HETATM   18  N   UNK A   0     -12.124  15.941  69.246  1.00  0.00    -0.457 N  
ENDROOT
BRANCH   4  19
HETATM   19  C   UNK A   0      -9.627  11.628  65.412  1.00  0.00    -0.205 C  
BRANCH  19  20
HETATM   20  N   UNK A   0     -10.539  10.477  65.518  1.00  0.00    -0.135 NA 
HETATM   21  H   UNK A   0     -11.537  10.571  65.332  1.00  0.00     0.000 HD 
BRANCH  20  22
HETATM   22  C   UNK A   0      -9.977   9.249  65.885  1.00  0.00    -0.219 A  
HETATM   23  C   UNK A   0     -10.223   7.162  67.120  1.00  0.00    -0.327 A  
HETATM   24  C   UNK A   0      -9.092   6.647  66.477  1.00  0.00    -0.167 A  
HETATM   25  C   UNK A   0      -8.780   8.759  65.349  1.00  0.00    -0.217 A  
HETATM   26  C   UNK A   0     -10.652   8.463  66.827  1.00  0.00    -0.227 A  
HETATM   27  C   UNK A   0      -8.341   7.467  65.633  1.00  0.00    -0.144 A  
BRANCH  24  28
HETATM   28  C   UNK A   0      -8.697   5.235  66.693  1.00  0.00    -0.113 C  
ATOM     29  H   GLU A   1      -7.091   5.442  65.360  1.00  0.00     0.000 HD 
ATOM     30  N   GLU A   1      -7.618   4.789  65.941  1.00  0.00    -0.089 N  
HETATM   31  O   UNK A   0      -9.320   4.518  67.465  1.00  0.00    -0.130 OA 
BRANCH  30  32
ATOM     32  CA  GLU A   1      -7.238   3.364  65.988  1.00  0.00    -0.067 C  
ATOM     33  C   GLU A   1      -6.170   3.156  67.079  1.00  0.00    -0.028 C  
ATOM     34  O   GLU A   1      -5.463   4.280  67.352  1.00  0.00    -0.015 OA 
ATOM     35  OXT GLU A   1      -5.867   2.067  67.546  1.00  0.00    -0.018 OA 
BRANCH  32  36
ATOM     36  CB  GLU A   1      -6.690   2.915  64.625  1.00  0.00    -0.040 C  
BRANCH  36  37
ATOM     37  CG  GLU A   1      -7.562   1.851  63.950  1.00  0.00    -0.059 C  
ATOM     38  CD  GLU A   1      -8.802   2.434  63.321  1.00  0.00    -0.085 C  
ATOM     39  OE2 GLU A   1      -9.113   3.614  63.344  1.00  0.00    -0.095 OA 
ATOM     40  OE1 GLU A   1      -9.551   1.491  62.705  1.00  0.00    -0.087 OA 
ENDBRANCH  36  37
ENDBRANCH  32  36
ENDBRANCH  30  32
ENDBRANCH  24  28
ENDBRANCH  20  22
ENDBRANCH  19  20
ENDBRANCH   4  19
TORSDOF 7
ENDMDL
MODEL      217
REMARK 921   NORMALIZED FREE ENERGY PREDICTED BY IDOCK:   -3.32 KCAL/MOL
REMARK 922        TOTAL FREE ENERGY PREDICTED BY IDOCK:   -5.94 KCAL/MOL
REMARK 923 INTER-LIGAND FREE ENERGY PREDICTED BY IDOCK:   -6.14 KCAL/MOL
REMARK 924 INTRA-LIGAND FREE ENERGY PREDICTED BY IDOCK:    0.20 KCAL/MOL
REMARK 927      BINDING AFFINITY PREDICTED BY RF-SCORE:    0.00 PKD
ROOT
HETATM    1  C   UNK A   0      -8.067   7.241  69.050  1.00  0.00    -0.124 C  
HETATM    2  N   UNK A   0      -7.203   7.567  68.013  1.00  0.00    -0.088 N  
HETATM    3  O   UNK A   0      -8.045   7.694  70.190  1.00  0.00    -0.114 OA 
HETATM    4  C   UNK A   0      -6.090   8.569  68.200  1.00  0.00    -0.051 C  
HETATM    5  C   UNK A   0      -6.042   9.497  66.964  1.00  0.00    -0.063 C  
HETATM    6  C   UNK A   0      -7.451   5.915  64.184  1.00  0.00    -0.074 C  
HETATM    7  H   UNK A   0      -8.841   4.603  64.926  1.00  0.00     0.000 HD 
HETATM    8  N   UNK A   0      -5.924   8.667  65.778  1.00  0.00    -0.047 NA 
HETATM    9  H   UNK A   0      -5.289   8.948  65.030  1.00  0.00     0.000 HD 
HETATM   10  H2  UNK A   0      -8.087   4.511  62.790  1.00  0.00     0.000 HD 
HETATM   11  C   UNK A   0      -6.659   7.500  65.644  1.00  0.00    -0.045 C  
HETATM   12  O   UNK A   0      -8.487   4.980  67.355  1.00  0.00    -0.106 OA 
HETATM   13  C   UNK A   0      -7.285   6.969  66.730  1.00  0.00    -0.076 C  
HETATM   14  H1  UNK A   0      -6.972   5.777  62.218  1.00  0.00     0.000 HD 
HETATM   15  C   UNK A   0      -8.042   5.706  66.471  1.00  0.00    -0.105 C  
HETATM   16  N   UNK A   0      -6.721   6.960  64.384  1.00  0.00    -0.045 NA 
HETATM   17  N   UNK A   0      -7.518   5.340  62.961  1.00  0.00    -0.049 NA 
HETATM   18  N   UNK A   0      -8.175   5.337  65.168  1.00  0.00    -0.128 N  
ENDROOT
BRANCH   4  19
HETATM   19  C   UNK A   0      -6.124   9.415  69.492  1.00  0.00    -0.040 C  
BRANCH  19  20
HETATM   20  N   UNK A   0      -7.391  10.152  69.634  1.00  0.00    -0.120 NA 
HETATM   21  H   UNK A   0      -8.113   9.849  70.288  1.00  0.00     0.000 HD 
BRANCH  20  22
HETATM   22  C   UNK A   0      -7.562  11.287  68.834  1.00  0.00    -0.126 A  
HETATM   23  C   UNK A   0      -8.916  12.447  67.172  1.00  0.00    -0.195 A  
HETATM   24  C   UNK A   0      -8.175  13.614  67.380  1.00  0.00    -0.187 A  
HETATM   25  C   UNK A   0      -6.757  12.429  68.934  1.00  0.00    -0.098 A  
HETATM   26  C   UNK A   0      -8.598  11.288  67.893  1.00  0.00    -0.134 A  
HETATM   27  C   UNK A   0      -7.060  13.587  68.222  1.00  0.00    -0.110 A  
BRANCH  24  28
HETATM   28  C   UNK A   0      -8.574  14.874  66.710  1.00  0.00    -0.222 C  
ATOM     29  H   GLU A   1     -10.503  14.126  66.371  1.00  0.00     0.000 HD 
ATOM     30  N   GLU A   1      -9.864  14.901  66.196  1.00  0.00    -0.290 N  
HETATM   31  O   UNK A   0      -7.788  15.805  66.599  1.00  0.00    -0.234 OA 
BRANCH  30  32
ATOM     32  CA  GLU A   1     -10.304  16.060  65.395  1.00  0.00    -0.359 C  
ATOM     33  C   GLU A   1     -10.649  17.230  66.336  1.00  0.00    -0.179 C  
ATOM     34  O   GLU A   1     -10.987  16.825  67.586  1.00  0.00    -0.290 OA 
ATOM     35  OXT GLU A   1     -10.768  18.392  65.974  1.00  0.00    -0.368 OA 
BRANCH  32  36
ATOM     36  CB  GLU A   1     -11.532  15.686  64.551  1.00  0.00    -0.304 C  
BRANCH  36  37
ATOM     37  CG  GLU A   1     -12.366  14.560  65.171  1.00  0.00    -0.324 C  
ATOM     38  CD  GLU A   1     -12.359  13.307  64.332  1.00  0.00    -0.348 C  
ATOM     39  OE2 GLU A   1     -11.778  13.179  63.266  1.00  0.00    -0.444 OA 
ATOM     40  OE1 GLU A   1     -13.074  12.310  64.900  1.00  0.00    -0.654 OA 
ENDBRANCH  36  37
ENDBRANCH  32  36
ENDBRANCH  30  32
ENDBRANCH  24  28
ENDBRANCH  20  22
ENDBRANCH  19  20
ENDBRANCH   4  19
TORSDOF 7
ENDMDL
MODEL      218
REMARK 921   NORMALIZED FREE ENERGY PREDICTED BY IDOCK:   -3.29 KCAL/MOL
REMARK 922        TOTAL FREE ENERGY PREDICTED BY IDOCK:   -5.90 KCAL/MOL
REMARK 923 INTER-LIGAND FREE ENERGY PREDICTED BY IDOCK:   -6.70 KCAL/MOL
REMARK 924 INTRA-LIGAND FREE ENERGY PREDICTED BY IDOCK:    0.80 KCAL/MOL
REMARK 927      BINDING AFFINITY PREDICTED BY RF-SCORE:    0.00 PKD
ROOT
HETATM    1  C   UNK A   0     -12.017  13.375  64.078  1.00  0.00    -0.464 C  
HETATM    2  N   UNK A   0     -11.051  13.616  65.044  1.00  0.00    -0.318 N  
HETATM    3  O   UNK A   0     -12.321  12.284  63.603  1.00  0.00    -0.500 OA 
HETATM    4  C   UNK A   0     -10.233  12.496  65.639  1.00  0.00    -0.267 C  
HETATM    5  C   UNK A   0     -10.133  12.709  67.167  1.00  0.00    -0.223 C  
HETATM    6  C   UNK A   0     -10.170  17.416  66.542  1.00  0.00    -0.329 C  
HETATM    7  H   UNK A   0     -11.376  18.187  65.072  1.00  0.00     0.000 HD 
HETATM    8  N   UNK A   0      -9.607  14.042  67.406  1.00  0.00    -0.222 NA 
HETATM    9  H   UNK A   0      -8.908  14.183  68.135  1.00  0.00     0.000 HD 
HETATM   10  H2  UNK A   0     -10.205  19.494  66.508  1.00  0.00     0.000 HD 
HETATM   11  C   UNK A   0     -10.039  15.127  66.659  1.00  0.00    -0.264 C  
HETATM   12  O   UNK A   0     -11.604  16.168  63.645  1.00  0.00    -0.710 OA 
HETATM   13  C   UNK A   0     -10.745  14.919  65.514  1.00  0.00    -0.356 C  
HETATM   14  H1  UNK A   0      -9.287  18.717  67.822  1.00  0.00     0.000 HD 
HETATM   15  C   UNK A   0     -11.153  16.160  64.786  1.00  0.00    -0.333 C  
HETATM   16  N   UNK A   0      -9.732  16.370  67.155  1.00  0.00    -0.235 NA 
HETATM   17  N   UNK A   0      -9.868  18.658  66.985  1.00  0.00    -0.313 NA 
HETATM   18  N   UNK A   0     -10.941  17.338  65.433  1.00  0.00    -0.096 N  
ENDROOT
BRANCH   4  19
HETATM   19  C   UNK A   0     -10.703  11.056  65.339  1.00  0.00    -0.152 C  
BRANCH  19  20
HETATM   20  N   UNK A   0      -9.570  10.129  65.181  1.00  0.00    -0.269 NA 
HETATM   21  H   UNK A   0      -9.016  10.106  64.325  1.00  0.00     0.000 HD 
BRANCH  20  22
HETATM   22  C   UNK A   0      -9.286   9.280  66.257  1.00  0.00    -0.200 A  
HETATM   23  C   UNK A   0      -9.065   6.992  67.067  1.00  0.00    -0.150 A  
HETATM   24  C   UNK A   0      -8.477   7.464  68.245  1.00  0.00    -0.125 A  
HETATM   25  C   UNK A   0      -8.811   9.734  67.493  1.00  0.00    -0.129 A  
HETATM   26  C   UNK A   0      -9.475   7.903  66.085  1.00  0.00    -0.158 A  
HETATM   27  C   UNK A   0      -8.401   8.839  68.479  1.00  0.00    -0.129 A  
BRANCH  24  28
HETATM   28  C   UNK A   0      -7.936   6.506  69.239  1.00  0.00    -0.111 C  
ATOM     29  H   GLU A   1      -6.455   5.887  67.890  1.00  0.00     0.000 HD 
ATOM     30  N   GLU A   1      -6.875   5.722  68.804  1.00  0.00    -0.063 N  
HETATM   31  O   UNK A   0      -8.432   6.408  70.353  1.00  0.00    -0.127 OA 
BRANCH  30  32
ATOM     32  CA  GLU A   1      -6.360   4.649  69.676  1.00  0.00    -0.027 C  
ATOM     33  C   GLU A   1      -5.970   3.434  68.814  1.00  0.00    -0.024 C  
ATOM     34  O   GLU A   1      -6.633   3.386  67.631  1.00  0.00    -0.037 OA 
ATOM     35  OXT GLU A   1      -5.262   2.514  69.200  1.00  0.00    -0.011 OA 
BRANCH  32  36
ATOM     36  CB  GLU A   1      -7.425   4.242  70.705  1.00  0.00    -0.048 C  
BRANCH  36  37
ATOM     37  CG  GLU A   1      -6.970   4.450  72.153  1.00  0.00    -0.055 C  
ATOM     38  CD  GLU A   1      -8.014   4.023  73.154  1.00  0.00    -0.088 C  
ATOM     39  OE2 GLU A   1      -9.113   3.573  72.873  1.00  0.00    -0.094 OA 
ATOM     40  OE1 GLU A   1      -7.593   4.185  74.429  1.00  0.00    -0.074 OA 
ENDBRANCH  36  37
ENDBRANCH  32  36
ENDBRANCH  30  32
ENDBRANCH  24  28
ENDBRANCH  20  22
ENDBRANCH  19  20
ENDBRANCH   4  19
TORSDOF 7
ENDMDL
MODEL      219
REMARK 921   NORMALIZED FREE ENERGY PREDICTED BY IDOCK:   -3.27 KCAL/MOL
REMARK 922        TOTAL FREE ENERGY PREDICTED BY IDOCK:   -5.88 KCAL/MOL
REMARK 923 INTER-LIGAND FREE ENERGY PREDICTED BY IDOCK:   -6.09 KCAL/MOL
REMARK 924 INTRA-LIGAND FREE ENERGY PREDICTED BY IDOCK:    0.22 KCAL/MOL
REMARK 927      BINDING AFFINITY PREDICTED BY RF-SCORE:    0.00 PKD
ROOT
HETATM    1  C   UNK A   0      -7.684   8.823  68.970  1.00  0.00    -0.091 C  
HETATM    2  N   UNK A   0      -7.114   9.415  67.851  1.00  0.00    -0.080 N  
HETATM    3  O   UNK A   0      -7.318   8.956  70.134  1.00  0.00    -0.050 OA 
HETATM    4  C   UNK A   0      -5.922  10.332  67.965  1.00  0.00    -0.044 C  
HETATM    5  C   UNK A   0      -6.144  11.556  67.047  1.00  0.00    -0.131 C  
HETATM    6  C   UNK A   0      -8.521   8.843  63.959  1.00  0.00    -0.133 C  
HETATM    7  H   UNK A   0      -9.749   7.378  64.703  1.00  0.00     0.000 HD 
HETATM    8  N   UNK A   0      -6.416  11.072  65.704  1.00  0.00    -0.365 NA 
HETATM    9  H   UNK A   0      -5.991  11.543  64.905  1.00  0.00     0.000 HD 
HETATM   10  H2  UNK A   0      -9.616   7.860  62.491  1.00  0.00     0.000 HD 
HETATM   11  C   UNK A   0      -7.245   9.982  65.490  1.00  0.00    -0.133 C  
HETATM   12  O   UNK A   0      -8.717   7.094  66.943  1.00  0.00    -0.120 OA 
HETATM   13  C   UNK A   0      -7.588   9.180  66.535  1.00  0.00    -0.093 C  
HETATM   14  H1  UNK A   0      -8.609   9.233  61.971  1.00  0.00     0.000 HD 
HETATM   15  C   UNK A   0      -8.478   8.031  66.187  1.00  0.00    -0.135 C  
HETATM   16  N   UNK A   0      -7.689   9.797  64.204  1.00  0.00    -0.128 NA 
HETATM   17  N   UNK A   0      -8.962   8.614  62.700  1.00  0.00    -0.423 NA 
HETATM   18  N   UNK A   0      -8.990   8.022  64.926  1.00  0.00    -0.347 N  
ENDROOT
BRANCH   4  19
HETATM   19  C   UNK A   0      -5.539  10.803  69.385  1.00  0.00    -0.037 C  
BRANCH  19  20
HETATM   20  N   UNK A   0      -6.604  11.609  70.004  1.00  0.00    -0.354 NA 
HETATM   21  H   UNK A   0      -7.335  11.179  70.572  1.00  0.00     0.000 HD 
BRANCH  20  22
HETATM   22  C   UNK A   0      -6.571  12.990  69.781  1.00  0.00     0.069 A  
HETATM   23  C   UNK A   0      -7.600  14.926  68.715  1.00  0.00    -0.135 A  
HETATM   24  C   UNK A   0      -6.786  15.776  69.470  1.00  0.00    -0.187 A  
HETATM   25  C   UNK A   0      -5.683  13.855  70.432  1.00  0.00    -0.150 A  
HETATM   26  C   UNK A   0      -7.481  13.538  68.867  1.00  0.00    -0.017 A  
HETATM   27  C   UNK A   0      -5.790  15.237  70.288  1.00  0.00    -0.141 A  
BRANCH  24  28
HETATM   28  C   UNK A   0      -6.983  17.243  69.402  1.00  0.00    -0.123 C  
ATOM     29  H   GLU A   1      -8.887  16.985  68.562  1.00  0.00     0.000 HD 
ATOM     30  N   GLU A   1      -8.173  17.665  68.824  1.00  0.00    -0.261 N  
HETATM   31  O   UNK A   0      -6.122  18.014  69.806  1.00  0.00    -0.246 OA 
BRANCH  30  32
ATOM     32  CA  GLU A   1      -8.398  19.105  68.590  1.00  0.00    -0.368 C  
ATOM     33  C   GLU A   1      -9.867  19.449  68.900  1.00  0.00    -0.453 C  
ATOM     34  O   GLU A   1     -10.698  18.384  68.787  1.00  0.00    -0.015 OA 
ATOM     35  OXT GLU A   1     -10.285  20.586  69.074  1.00  0.00    -0.066 OA 
BRANCH  32  36
ATOM     36  CB  GLU A   1      -8.071  19.464  67.132  1.00  0.00    -0.293 C  
BRANCH  36  37
ATOM     37  CG  GLU A   1      -6.628  19.130  66.742  1.00  0.00    -0.197 C  
ATOM     38  CD  GLU A   1      -6.519  17.832  65.983  1.00  0.00    -0.259 C  
ATOM     39  OE2 GLU A   1      -7.456  17.099  65.708  1.00  0.00    -0.338 OA 
ATOM     40  OE1 GLU A   1      -5.246  17.559  65.620  1.00  0.00    -0.249 OA 
ENDBRANCH  36  37
ENDBRANCH  32  36
ENDBRANCH  30  32
ENDBRANCH  24  28
ENDBRANCH  20  22
ENDBRANCH  19  20
ENDBRANCH   4  19
TORSDOF 7
ENDMDL
MODEL      220
REMARK 921   NORMALIZED FREE ENERGY PREDICTED BY IDOCK:   -3.22 KCAL/MOL
REMARK 922        TOTAL FREE ENERGY PREDICTED BY IDOCK:   -5.80 KCAL/MOL
REMARK 923 INTER-LIGAND FREE ENERGY PREDICTED BY IDOCK:   -5.84 KCAL/MOL
REMARK 924 INTRA-LIGAND FREE ENERGY PREDICTED BY IDOCK:    0.04 KCAL/MOL
REMARK 927      BINDING AFFINITY PREDICTED BY RF-SCORE:    0.00 PKD
ROOT
HETATM    1  C   UNK A   0      -9.519  13.938  68.046  1.00  0.00    -0.208 C  
HETATM    2  N   UNK A   0      -9.752  12.916  67.137  1.00  0.00    -0.216 N  
HETATM    3  O   UNK A   0      -8.924  13.846  69.116  1.00  0.00     0.145 OA 
HETATM    4  C   UNK A   0      -9.265  11.510  67.390  1.00  0.00    -0.166 C  
HETATM    5  C   UNK A   0      -8.664  10.947  66.082  1.00  0.00    -0.184 C  
HETATM    6  C   UNK A   0     -11.799  13.440  63.533  1.00  0.00    -0.344 C  
HETATM    7  H   UNK A   0     -12.292  15.323  64.179  1.00  0.00     0.000 HD 
HETATM    8  N   UNK A   0      -9.663  11.068  65.034  1.00  0.00    -0.237 NA 
HETATM    9  H   UNK A   0      -9.794  10.301  64.375  1.00  0.00     0.000 HD 
HETATM   10  H2  UNK A   0     -13.047  14.462  62.222  1.00  0.00     0.000 HD 
HETATM   11  C   UNK A   0     -10.440  12.209  64.914  1.00  0.00    -0.288 C  
HETATM   12  O   UNK A   0     -11.677  15.096  66.574  1.00  0.00    -0.202 OA 
HETATM   13  C   UNK A   0     -10.478  13.109  65.935  1.00  0.00    -0.280 C  
HETATM   14  H1  UNK A   0     -12.456  12.865  61.703  1.00  0.00     0.000 HD 
HETATM   15  C   UNK A   0     -11.355  14.298  65.699  1.00  0.00    -0.317 C  
HETATM   16  N   UNK A   0     -11.118  12.363  63.731  1.00  0.00    -0.408 NA 
HETATM   17  N   UNK A   0     -12.501  13.618  62.390  1.00  0.00    -0.030 NA 
HETATM   18  N   UNK A   0     -11.858  14.439  64.443  1.00  0.00    -0.570 N  
ENDROOT
BRANCH   4  19
HETATM   19  C   UNK A   0      -8.268  11.317  68.554  1.00  0.00    -0.150 C  
BRANCH  19  20
HETATM   20  N   UNK A   0      -8.915  10.738  69.743  1.00  0.00    -0.304 NA 
HETATM   21  H   UNK A   0      -9.528  11.294  70.339  1.00  0.00     0.000 HD 
BRANCH  20  22
HETATM   22  C   UNK A   0      -8.654   9.391  70.019  1.00  0.00    -0.203 A  
HETATM   23  C   UNK A   0      -9.090   7.463  71.445  1.00  0.00    -0.146 A  
HETATM   24  C   UNK A   0      -8.436   6.635  70.527  1.00  0.00    -0.138 A  
HETATM   25  C   UNK A   0      -7.898   8.564  69.179  1.00  0.00    -0.100 A  
HETATM   26  C   UNK A   0      -9.186   8.838  71.191  1.00  0.00    -0.299 A  
HETATM   27  C   UNK A   0      -7.794   7.197  69.421  1.00  0.00    -0.113 A  
BRANCH  24  28
HETATM   28  C   UNK A   0      -8.428   5.167  70.730  1.00  0.00    -0.117 C  
ATOM     29  H   GLU A   1      -7.179   5.366  72.402  1.00  0.00     0.000 HD 
ATOM     30  N   GLU A   1      -7.636   4.706  71.773  1.00  0.00    -0.088 N  
HETATM   31  O   UNK A   0      -9.062   4.426  69.990  1.00  0.00    -0.089 OA 
BRANCH  30  32
ATOM     32  CA  GLU A   1      -7.460   3.254  71.966  1.00  0.00    -0.052 C  
ATOM     33  C   GLU A   1      -6.244   2.774  71.151  1.00  0.00    -0.018 C  
ATOM     34  O   GLU A   1      -5.960   3.577  70.096  1.00  0.00    -0.017 OA 
ATOM     35  OXT GLU A   1      -5.680   1.702  71.323  1.00  0.00    -0.008 OA 
BRANCH  32  36
ATOM     36  CB  GLU A   1      -8.722   2.501  71.518  1.00  0.00    -0.111 C  
BRANCH  36  37
ATOM     37  CG  GLU A   1      -9.440   1.795  72.672  1.00  0.00    -0.123 C  
ATOM     38  CD  GLU A   1     -10.481   2.668  73.326  1.00  0.00    -0.154 C  
ATOM     39  OE2 GLU A   1     -10.735   3.818  73.005  1.00  0.00    -0.172 OA 
ATOM     40  OE1 GLU A   1     -11.128   2.027  74.326  1.00  0.00    -0.134 OA 
ENDBRANCH  36  37
ENDBRANCH  32  36
ENDBRANCH  30  32
ENDBRANCH  24  28
ENDBRANCH  20  22
ENDBRANCH  19  20
ENDBRANCH   4  19
TORSDOF 7
ENDMDL
MODEL      221
REMARK 921   NORMALIZED FREE ENERGY PREDICTED BY IDOCK:   -3.20 KCAL/MOL
REMARK 922        TOTAL FREE ENERGY PREDICTED BY IDOCK:   -5.78 KCAL/MOL
REMARK 923 INTER-LIGAND FREE ENERGY PREDICTED BY IDOCK:   -6.56 KCAL/MOL
REMARK 924 INTRA-LIGAND FREE ENERGY PREDICTED BY IDOCK:    0.78 KCAL/MOL
REMARK 927      BINDING AFFINITY PREDICTED BY RF-SCORE:    0.00 PKD
ROOT
HETATM    1  C   UNK A   0     -11.628  13.318  69.150  1.00  0.00    -0.319 C  
HETATM    2  N   UNK A   0     -11.452  14.046  67.982  1.00  0.00    -0.293 N  
HETATM    3  O   UNK A   0     -11.806  12.107  69.238  1.00  0.00    -0.304 OA 
HETATM    4  C   UNK A   0     -11.461  13.378  66.629  1.00  0.00    -0.344 C  
HETATM    5  C   UNK A   0     -10.311  13.964  65.776  1.00  0.00    -0.316 C  
HETATM    6  C   UNK A   0     -10.848  18.179  67.895  1.00  0.00    -0.202 C  
HETATM    7  H   UNK A   0     -11.292  18.206  69.897  1.00  0.00     0.000 HD 
HETATM    8  N   UNK A   0     -10.459  15.409  65.746  1.00  0.00    -0.330 NA 
HETATM    9  H   UNK A   0     -10.306  15.911  64.871  1.00  0.00     0.000 HD 
HETATM   10  H2  UNK A   0     -10.881  20.092  68.708  1.00  0.00     0.000 HD 
HETATM   11  C   UNK A   0     -10.804  16.118  66.885  1.00  0.00    -0.175 C  
HETATM   12  O   UNK A   0     -12.261  15.930  70.120  1.00  0.00    -0.342 OA 
HETATM   13  C   UNK A   0     -11.281  15.454  67.974  1.00  0.00    -0.325 C  
HETATM   14  H1  UNK A   0     -10.384  19.941  67.004  1.00  0.00     0.000 HD 
HETATM   15  C   UNK A   0     -11.628  16.319  69.143  1.00  0.00    -0.213 C  
HETATM   16  N   UNK A   0     -10.613  17.476  66.840  1.00  0.00    -0.270 NA 
HETATM   17  N   UNK A   0     -10.695  19.523  67.882  1.00  0.00    -0.375 NA 
HETATM   18  N   UNK A   0     -11.259  17.626  69.059  1.00  0.00     0.161 N  
ENDROOT
BRANCH   4  19
HETATM   19  C   UNK A   0     -11.395  11.836  66.613  1.00  0.00    -0.316 C  
BRANCH  19  20
HETATM   20  N   UNK A   0     -10.024  11.341  66.821  1.00  0.00    -0.202 NA 
HETATM   21  H   UNK A   0      -9.269  11.967  67.101  1.00  0.00     0.000 HD 
BRANCH  20  22
HETATM   22  C   UNK A   0      -9.801   9.975  66.618  1.00  0.00    -0.203 A  
HETATM   23  C   UNK A   0      -8.366   8.243  65.678  1.00  0.00    -0.154 A  
HETATM   24  C   UNK A   0      -9.087   7.267  66.373  1.00  0.00    -0.192 A  
HETATM   25  C   UNK A   0     -10.582   8.971  67.204  1.00  0.00    -0.291 A  
HETATM   26  C   UNK A   0      -8.734   9.590  65.796  1.00  0.00    -0.170 A  
HETATM   27  C   UNK A   0     -10.228   7.628  67.093  1.00  0.00    -0.360 A  
BRANCH  24  28
HETATM   28  C   UNK A   0      -8.636   5.855  66.347  1.00  0.00    -0.127 C  
ATOM     29  H   GLU A   1     -10.267   5.273  67.530  1.00  0.00     0.000 HD 
ATOM     30  N   GLU A   1      -9.402   4.963  67.088  1.00  0.00    -0.124 N  
HETATM   31  O   UNK A   0      -7.631   5.526  65.730  1.00  0.00    -0.080 OA 
BRANCH  30  32
ATOM     32  CA  GLU A   1      -8.955   3.565  67.230  1.00  0.00    -0.146 C  
ATOM     33  C   GLU A   1      -7.774   3.503  68.217  1.00  0.00    -0.060 C  
ATOM     34  O   GLU A   1      -7.094   4.673  68.306  1.00  0.00    -0.055 OA 
ATOM     35  OXT GLU A   1      -7.376   2.477  68.752  1.00  0.00    -0.047 OA 
BRANCH  32  36
ATOM     36  CB  GLU A   1      -8.527   3.002  65.866  1.00  0.00    -0.110 C  
BRANCH  36  37
ATOM     37  CG  GLU A   1      -9.695   2.860  64.884  1.00  0.00    -0.016 C  
ATOM     38  CD  GLU A   1      -9.315   2.097  63.640  1.00  0.00    -0.102 C  
ATOM     39  OE2 GLU A   1      -8.207   1.643  63.405  1.00  0.00    -0.064 OA 
ATOM     40  OE1 GLU A   1     -10.359   1.953  62.793  1.00  0.00    -0.098 OA 
ENDBRANCH  36  37
ENDBRANCH  32  36
ENDBRANCH  30  32
ENDBRANCH  24  28
ENDBRANCH  20  22
ENDBRANCH  19  20
ENDBRANCH   4  19
TORSDOF 7
ENDMDL
MODEL      222
REMARK 921   NORMALIZED FREE ENERGY PREDICTED BY IDOCK:   -3.20 KCAL/MOL
REMARK 922        TOTAL FREE ENERGY PREDICTED BY IDOCK:   -5.78 KCAL/MOL
REMARK 923 INTER-LIGAND FREE ENERGY PREDICTED BY IDOCK:   -6.41 KCAL/MOL
REMARK 924 INTRA-LIGAND FREE ENERGY PREDICTED BY IDOCK:    0.63 KCAL/MOL
REMARK 927      BINDING AFFINITY PREDICTED BY RF-SCORE:    0.00 PKD
ROOT
HETATM    1  C   UNK A   0     -10.646   8.318  68.514  1.00  0.00    -0.100 C  
HETATM    2  N   UNK A   0      -9.933   7.352  69.209  1.00  0.00    -0.169 N  
HETATM    3  O   UNK A   0     -10.270   8.931  67.519  1.00  0.00    -0.213 OA 
HETATM    4  C   UNK A   0      -8.546   6.938  68.783  1.00  0.00    -0.124 C  
HETATM    5  C   UNK A   0      -8.437   5.398  68.869  1.00  0.00    -0.099 C  
HETATM    6  C   UNK A   0     -11.399   5.367  72.580  1.00  0.00    -0.266 C  
HETATM    7  H   UNK A   0     -12.970   6.686  72.575  1.00  0.00     0.000 HD 
HETATM    8  N   UNK A   0      -8.811   4.991  70.213  1.00  0.00    -0.112 NA 
HETATM    9  H   UNK A   0      -8.271   4.266  70.686  1.00  0.00     0.000 HD 
HETATM   10  H2  UNK A   0     -12.695   5.112  74.185  1.00  0.00     0.000 HD 
HETATM   11  C   UNK A   0      -9.889   5.570  70.863  1.00  0.00    -0.183 C  
HETATM   12  O   UNK A   0     -12.068   8.372  70.991  1.00  0.00    -0.279 OA 
HETATM   13  C   UNK A   0     -10.437   6.714  70.371  1.00  0.00    -0.211 C  
HETATM   14  H1  UNK A   0     -11.363   3.941  74.022  1.00  0.00     0.000 HD 
HETATM   15  C   UNK A   0     -11.589   7.254  71.157  1.00  0.00    -0.293 C  
HETATM   16  N   UNK A   0     -10.353   4.915  71.977  1.00  0.00    -0.202 NA 
HETATM   17  N   UNK A   0     -11.872   4.763  73.695  1.00  0.00    -0.294 NA 
HETATM   18  N   UNK A   0     -12.073   6.456  72.147  1.00  0.00    -0.462 N  
ENDROOT
BRANCH   4  19
HETATM   19  C   UNK A   0      -8.069   7.422  67.397  1.00  0.00    -0.113 C  
BRANCH  19  20
HETATM   20  N   UNK A   0      -6.747   8.067  67.463  1.00  0.00    -0.067 NA 
HETATM   21  H   UNK A   0      -5.888   7.531  67.340  1.00  0.00     0.000 HD 
BRANCH  20  22
HETATM   22  C   UNK A   0      -6.720   9.445  67.702  1.00  0.00    -0.068 A  
HETATM   23  C   UNK A   0      -7.159  11.688  66.855  1.00  0.00    -0.124 A  
HETATM   24  C   UNK A   0      -6.976  12.211  68.139  1.00  0.00    -0.082 A  
HETATM   25  C   UNK A   0      -6.419  10.006  68.950  1.00  0.00    -0.048 A  
HETATM   26  C   UNK A   0      -7.020  10.310  66.642  1.00  0.00    -0.103 A  
HETATM   27  C   UNK A   0      -6.553  11.374  69.174  1.00  0.00    -0.095 A  
BRANCH  24  28
HETATM   28  C   UNK A   0      -7.233  13.647  68.397  1.00  0.00    -0.109 C  
ATOM     29  H   GLU A   1      -8.478  13.765  66.713  1.00  0.00     0.000 HD 
ATOM     30  N   GLU A   1      -8.032  14.294  67.463  1.00  0.00    -0.176 N  
HETATM   31  O   UNK A   0      -6.734  14.213  69.361  1.00  0.00    -0.115 OA 
BRANCH  30  32
ATOM     32  CA  GLU A   1      -8.232  15.753  67.563  1.00  0.00    -0.162 C  
ATOM     33  C   GLU A   1      -6.998  16.478  66.993  1.00  0.00    -0.215 C  
ATOM     34  O   GLU A   1      -5.871  15.724  67.037  1.00  0.00    -0.316 OA 
ATOM     35  OXT GLU A   1      -6.978  17.660  66.680  1.00  0.00    -0.181 OA 
BRANCH  32  36
ATOM     36  CB  GLU A   1      -8.450  16.161  69.028  1.00  0.00    -0.251 C  
BRANCH  36  37
ATOM     37  CG  GLU A   1      -9.728  15.567  69.631  1.00  0.00    -0.276 C  
ATOM     38  CD  GLU A   1     -10.952  16.388  69.315  1.00  0.00    -0.322 C  
ATOM     39  OE2 GLU A   1     -10.956  17.423  68.668  1.00  0.00    -0.224 OA 
ATOM     40  OE1 GLU A   1     -12.078  15.842  69.828  1.00  0.00    -0.353 OA 
ENDBRANCH  36  37
ENDBRANCH  32  36
ENDBRANCH  30  32
ENDBRANCH  24  28
ENDBRANCH  20  22
ENDBRANCH  19  20
ENDBRANCH   4  19
TORSDOF 7
ENDMDL
MODEL      223
REMARK 921   NORMALIZED FREE ENERGY PREDICTED BY IDOCK:   -2.89 KCAL/MOL
REMARK 922        TOTAL FREE ENERGY PREDICTED BY IDOCK:   -5.34 KCAL/MOL
REMARK 923 INTER-LIGAND FREE ENERGY PREDICTED BY IDOCK:   -6.96 KCAL/MOL
REMARK 924 INTRA-LIGAND FREE ENERGY PREDICTED BY IDOCK:    1.62 KCAL/MOL
REMARK 927      BINDING AFFINITY PREDICTED BY RF-SCORE:    0.00 PKD
ROOT
HETATM    1  C   UNK A   0      -7.476  18.135  69.305  1.00  0.00     0.025 C  
HETATM    2  N   UNK A   0      -7.142  17.119  68.420  1.00  0.00    -0.196 N  
HETATM    3  O   UNK A   0      -7.920  19.242  69.015  1.00  0.00    -0.340 OA 
HETATM    4  C   UNK A   0      -7.304  17.289  66.929  1.00  0.00    -0.205 C  
HETATM    5  C   UNK A   0      -7.918  15.996  66.344  1.00  0.00    -0.162 C  
HETATM    6  C   UNK A   0      -5.650  13.403  69.612  1.00  0.00    -0.098 C  
HETATM    7  H   UNK A   0      -5.481  14.169  71.507  1.00  0.00     0.000 HD 
HETATM    8  N   UNK A   0      -7.085  14.876  66.745  1.00  0.00    -0.172 NA 
HETATM    9  H   UNK A   0      -6.874  14.141  66.070  1.00  0.00     0.000 HD 
HETATM   10  H2  UNK A   0      -4.786  12.081  70.962  1.00  0.00     0.000 HD 
HETATM   11  C   UNK A   0      -6.573  14.788  68.029  1.00  0.00    -0.147 C  
HETATM   12  O   UNK A   0      -5.772  16.580  70.990  1.00  0.00     0.075 OA 
HETATM   13  C   UNK A   0      -6.606  15.877  68.845  1.00  0.00    -0.126 C  
HETATM   14  H1  UNK A   0      -5.094  11.476  69.315  1.00  0.00     0.000 HD 
HETATM   15  C   UNK A   0      -6.019  15.670  70.204  1.00  0.00    -0.140 C  
HETATM   16  N   UNK A   0      -6.073  13.565  68.404  1.00  0.00    -0.085 NA 
HETATM   17  N   UNK A   0      -5.128  12.221  70.012  1.00  0.00    -0.077 NA 
HETATM   18  N   UNK A   0      -5.695  14.390  70.535  1.00  0.00    -0.144 N  
ENDROOT
BRANCH   4  19
HETATM   19  C   UNK A   0      -8.108  18.517  66.451  1.00  0.00    -0.273 C  
BRANCH  19  20
HETATM   20  N   UNK A   0      -9.296  18.129  65.673  1.00  0.00    -0.153 NA 
HETATM   21  H   UNK A   0      -9.541  18.603  64.804  1.00  0.00     0.000 HD 
BRANCH  20  22
HETATM   22  C   UNK A   0     -10.074  17.081  66.177  1.00  0.00    -0.319 A  
HETATM   23  C   UNK A   0     -11.088  14.900  65.784  1.00  0.00    -0.342 A  
HETATM   24  C   UNK A   0     -11.388  14.792  67.146  1.00  0.00    -0.363 A  
HETATM   25  C   UNK A   0     -10.495  17.005  67.510  1.00  0.00    -0.334 A  
HETATM   26  C   UNK A   0     -10.443  16.048  65.306  1.00  0.00    -0.384 A  
HETATM   27  C   UNK A   0     -11.139  15.870  67.998  1.00  0.00    -0.334 A  
BRANCH  24  28
HETATM   28  C   UNK A   0     -11.966  13.536  67.679  1.00  0.00    -0.336 C  
ATOM     29  H   GLU A   1     -11.242  13.974  69.598  1.00  0.00     0.000 HD 
ATOM     30  N   GLU A   1     -11.714  13.278  69.021  1.00  0.00    -0.302 N  
HETATM   31  O   UNK A   0     -12.594  12.774  66.956  1.00  0.00    -0.103 OA 
BRANCH  30  32
ATOM     32  CA  GLU A   1     -12.133  11.990  69.605  1.00  0.00    -0.230 C  
ATOM     33  C   GLU A   1     -12.786  12.240  70.978  1.00  0.00    -0.225 C  
ATOM     34  O   GLU A   1     -12.378  13.395  71.558  1.00  0.00    -0.229 OA 
ATOM     35  OXT GLU A   1     -13.477  11.422  71.570  1.00  0.00    -0.165 OA 
BRANCH  32  36
ATOM     36  CB  GLU A   1     -10.921  11.059  69.763  1.00  0.00    -0.258 C  
BRANCH  36  37
ATOM     37  CG  GLU A   1      -9.854  11.276  68.685  1.00  0.00    -0.208 C  
ATOM     38  CD  GLU A   1     -10.009  10.332  67.520  1.00  0.00    -0.189 C  
ATOM     39  OE2 GLU A   1     -10.868   9.470  67.423  1.00  0.00    -0.269 OA 
ATOM     40  OE1 GLU A   1      -9.080  10.550  66.561  1.00  0.00    -0.153 OA 
ENDBRANCH  36  37
ENDBRANCH  32  36
ENDBRANCH  30  32
ENDBRANCH  24  28
ENDBRANCH  20  22
ENDBRANCH  19  20
ENDBRANCH   4  19
TORSDOF 7
ENDMDL
MODEL      224
REMARK 921   NORMALIZED FREE ENERGY PREDICTED BY IDOCK:   -2.77 KCAL/MOL
REMARK 922        TOTAL FREE ENERGY PREDICTED BY IDOCK:   -5.17 KCAL/MOL
REMARK 923 INTER-LIGAND FREE ENERGY PREDICTED BY IDOCK:   -5.92 KCAL/MOL
REMARK 924 INTRA-LIGAND FREE ENERGY PREDICTED BY IDOCK:    0.75 KCAL/MOL
REMARK 927      BINDING AFFINITY PREDICTED BY RF-SCORE:    0.00 PKD
ROOT
HETATM    1  C   UNK A   0     -12.535  14.480  67.366  1.00  0.00     0.270 C  
HETATM    2  N   UNK A   0     -11.444  14.842  68.143  1.00  0.00    -0.318 N  
HETATM    3  O   UNK A   0     -12.530  14.246  66.161  1.00  0.00    -0.442 OA 
HETATM    4  C   UNK A   0     -10.066  14.991  67.546  1.00  0.00    -0.228 C  
HETATM    5  C   UNK A   0      -9.037  14.338  68.497  1.00  0.00    -0.191 C  
HETATM    6  C   UNK A   0     -11.667  15.586  72.248  1.00  0.00    -0.482 C  
HETATM    7  H   UNK A   0     -13.708  15.488  72.074  1.00  0.00     0.000 HD 
HETATM    8  N   UNK A   0      -9.199  14.927  69.815  1.00  0.00    -0.442 NA 
HETATM    9  H   UNK A   0      -8.372  15.166  70.363  1.00  0.00     0.000 HD 
HETATM   10  H2  UNK A   0     -12.667  15.998  74.023  1.00  0.00     0.000 HD 
HETATM   11  C   UNK A   0     -10.457  15.169  70.342  1.00  0.00    -0.075 C  
HETATM   12  O   UNK A   0     -13.903  15.616  69.602  1.00  0.00     1.229 OA 
HETATM   13  C   UNK A   0     -11.548  15.122  69.529  1.00  0.00    -0.319 C  
HETATM   14  H1  UNK A   0     -10.889  15.933  74.088  1.00  0.00     0.000 HD 
HETATM   15  C   UNK A   0     -12.853  15.407  70.203  1.00  0.00    -0.158 C  
HETATM   16  N   UNK A   0     -10.516  15.425  71.689  1.00  0.00     0.131 NA 
HETATM   17  N   UNK A   0     -11.764  15.864  73.569  1.00  0.00    -0.213 NA 
HETATM   18  N   UNK A   0     -12.827  15.493  71.560  1.00  0.00    -0.421 N  
ENDROOT
BRANCH   4  19
HETATM   19  C   UNK A   0      -9.868  14.459  66.110  1.00  0.00    -0.320 C  
BRANCH  19  20
HETATM   20  N   UNK A   0     -10.627  13.221  65.873  1.00  0.00    -0.278 NA 
HETATM   21  H   UNK A   0     -11.490  13.222  65.329  1.00  0.00     0.000 HD 
BRANCH  20  22
HETATM   22  C   UNK A   0     -10.113  12.041  66.424  1.00  0.00    -0.218 A  
HETATM   23  C   UNK A   0     -10.525  10.051  67.769  1.00  0.00    -0.282 A  
HETATM   24  C   UNK A   0      -9.297   9.520  67.363  1.00  0.00    -0.153 A  
HETATM   25  C   UNK A   0      -8.837  11.546  66.132  1.00  0.00    -0.167 A  
HETATM   26  C   UNK A   0     -10.921  11.313  67.306  1.00  0.00    -0.342 A  
HETATM   27  C   UNK A   0      -8.430  10.293  66.587  1.00  0.00    -0.124 A  
BRANCH  24  28
HETATM   28  C   UNK A   0      -8.920   8.141  67.754  1.00  0.00    -0.132 C  
ATOM     29  H   GLU A   1     -10.908   7.702  68.258  1.00  0.00     0.000 HD 
ATOM     30  N   GLU A   1      -9.949   7.356  68.260  1.00  0.00    -0.158 N  
HETATM   31  O   UNK A   0      -7.764   7.753  67.659  1.00  0.00    -0.116 OA 
BRANCH  30  32
ATOM     32  CA  GLU A   1      -9.643   6.017  68.800  1.00  0.00    -0.129 C  
ATOM     33  C   GLU A   1      -9.871   4.960  67.704  1.00  0.00    -0.161 C  
ATOM     34  O   GLU A   1     -10.750   5.362  66.752  1.00  0.00    -0.284 OA 
ATOM     35  OXT GLU A   1      -9.442   3.815  67.751  1.00  0.00    -0.182 OA 
BRANCH  32  36
ATOM     36  CB  GLU A   1     -10.537   5.717  70.013  1.00  0.00    -0.388 C  
BRANCH  36  37
ATOM     37  CG  GLU A   1     -10.795   6.949  70.886  1.00  0.00    -0.277 C  
ATOM     38  CD  GLU A   1      -9.670   7.218  71.853  1.00  0.00    -0.155 C  
ATOM     39  OE2 GLU A   1      -8.661   6.541  71.962  1.00  0.00    -0.125 OA 
ATOM     40  OE1 GLU A   1      -9.894   8.323  72.600  1.00  0.00    -0.271 OA 
ENDBRANCH  36  37
ENDBRANCH  32  36
ENDBRANCH  30  32
ENDBRANCH  24  28
ENDBRANCH  20  22
ENDBRANCH  19  20
ENDBRANCH   4  19
TORSDOF 7
ENDMDL
MODEL      225
REMARK 921   NORMALIZED FREE ENERGY PREDICTED BY IDOCK:   -2.75 KCAL/MOL
REMARK 922        TOTAL FREE ENERGY PREDICTED BY IDOCK:   -5.15 KCAL/MOL
REMARK 923 INTER-LIGAND FREE ENERGY PREDICTED BY IDOCK:   -5.87 KCAL/MOL
REMARK 924 INTRA-LIGAND FREE ENERGY PREDICTED BY IDOCK:    0.72 KCAL/MOL
REMARK 927      BINDING AFFINITY PREDICTED BY RF-SCORE:    0.00 PKD
ROOT
HETATM    1  C   UNK A   0      -8.203  15.720  66.876  1.00  0.00    -0.253 C  
HETATM    2  N   UNK A   0      -8.795  14.481  66.676  1.00  0.00    -0.412 N  
HETATM    3  O   UNK A   0      -7.330  15.990  67.697  1.00  0.00    -0.129 OA 
HETATM    4  C   UNK A   0      -8.399  13.276  67.494  1.00  0.00    -0.186 C  
HETATM    5  C   UNK A   0      -8.271  12.055  66.554  1.00  0.00     0.014 C  
HETATM    6  C   UNK A   0     -11.753  13.763  63.814  1.00  0.00    -0.180 C  
HETATM    7  H   UNK A   0     -11.841  15.789  63.512  1.00  0.00     0.000 HD 
HETATM    8  N   UNK A   0      -9.517  11.914  65.822  1.00  0.00    -0.317 NA 
HETATM    9  H   UNK A   0      -9.914  10.985  65.682  1.00  0.00     0.000 HD 
HETATM   10  H2  UNK A   0     -13.223  14.332  62.460  1.00  0.00     0.000 HD 
HETATM   11  C   UNK A   0     -10.177  13.020  65.309  1.00  0.00    -0.279 C  
HETATM   12  O   UNK A   0     -10.571  16.544  65.508  1.00  0.00    -0.436 OA 
HETATM   13  C   UNK A   0      -9.821  14.267  65.721  1.00  0.00    -0.287 C  
HETATM   14  H1  UNK A   0     -12.975  12.586  62.704  1.00  0.00     0.000 HD 
HETATM   15  C   UNK A   0     -10.604  15.384  65.108  1.00  0.00    -0.434 C  
HETATM   16  N   UNK A   0     -11.155  12.769  64.380  1.00  0.00    -0.328 NA 
HETATM   17  N   UNK A   0     -12.739  13.556  62.911  1.00  0.00    -0.563 NA 
HETATM   18  N   UNK A   0     -11.439  15.049  64.088  1.00  0.00    -0.651 N  
ENDROOT
BRANCH   4  19
HETATM   19  C   UNK A   0      -7.127  13.410  68.360  1.00  0.00    -0.108 C  
BRANCH  19  20
HETATM   20  N   UNK A   0      -6.141  12.361  68.055  1.00  0.00    -0.066 NA 
HETATM   21  H   UNK A   0      -5.250  12.582  67.610  1.00  0.00     0.000 HD 
BRANCH  20  22
HETATM   22  C   UNK A   0      -6.477  11.048  68.401  1.00  0.00    -0.057 A  
HETATM   23  C   UNK A   0      -6.561   8.704  67.738  1.00  0.00    -0.062 A  
HETATM   24  C   UNK A   0      -6.851   8.340  69.057  1.00  0.00    -0.056 A  
HETATM   25  C   UNK A   0      -6.890  10.671  69.685  1.00  0.00    -0.124 A  
HETATM   26  C   UNK A   0      -6.386  10.056  67.416  1.00  0.00    -0.067 A  
HETATM   27  C   UNK A   0      -7.069   9.330  70.018  1.00  0.00    -0.070 A  
BRANCH  24  28
HETATM   28  C   UNK A   0      -6.924   6.907  69.431  1.00  0.00    -0.066 C  
ATOM     29  H   GLU A   1      -7.596   6.402  67.510  1.00  0.00     0.000 HD 
ATOM     30  N   GLU A   1      -7.405   6.051  68.449  1.00  0.00    -0.083 N  
HETATM   31  O   UNK A   0      -6.606   6.532  70.551  1.00  0.00    -0.046 OA 
BRANCH  30  32
ATOM     32  CA  GLU A   1      -7.640   4.631  68.772  1.00  0.00    -0.068 C  
ATOM     33  C   GLU A   1      -6.356   3.826  68.499  1.00  0.00    -0.033 C  
ATOM     34  O   GLU A   1      -5.545   4.413  67.584  1.00  0.00    -0.016 OA 
ATOM     35  OXT GLU A   1      -6.145   2.699  68.927  1.00  0.00    -0.024 OA 
BRANCH  32  36
ATOM     36  CB  GLU A   1      -8.797   4.078  67.926  1.00  0.00    -0.132 C  
BRANCH  36  37
ATOM     37  CG  GLU A   1      -8.588   4.278  66.422  1.00  0.00    -0.112 C  
ATOM     38  CD  GLU A   1      -8.140   3.018  65.727  1.00  0.00    -0.086 C  
ATOM     39  OE2 GLU A   1      -7.943   1.945  66.276  1.00  0.00    -0.074 OA 
ATOM     40  OE1 GLU A   1      -7.985   3.198  64.395  1.00  0.00    -0.081 OA 
ENDBRANCH  36  37
ENDBRANCH  32  36
ENDBRANCH  30  32
ENDBRANCH  24  28
ENDBRANCH  20  22
ENDBRANCH  19  20
ENDBRANCH   4  19
TORSDOF 7
ENDMDL
MODEL      226
REMARK 921   NORMALIZED FREE ENERGY PREDICTED BY IDOCK:   -2.72 KCAL/MOL
REMARK 922        TOTAL FREE ENERGY PREDICTED BY IDOCK:   -5.10 KCAL/MOL
REMARK 923 INTER-LIGAND FREE ENERGY PREDICTED BY IDOCK:   -5.24 KCAL/MOL
REMARK 924 INTRA-LIGAND FREE ENERGY PREDICTED BY IDOCK:    0.14 KCAL/MOL
REMARK 927      BINDING AFFINITY PREDICTED BY RF-SCORE:    0.00 PKD
ROOT
HETATM    1  C   UNK A   0     -10.600  19.065  67.371  1.00  0.00    -0.474 C  
HETATM    2  N   UNK A   0      -9.543  18.168  67.321  1.00  0.00    -0.275 N  
HETATM    3  O   UNK A   0     -11.598  19.062  66.656  1.00  0.00     0.717 OA 
HETATM    4  C   UNK A   0      -9.517  17.035  66.323  1.00  0.00    -0.256 C  
HETATM    5  C   UNK A   0      -9.035  15.752  67.039  1.00  0.00    -0.224 C  
HETATM    6  C   UNK A   0      -6.230  18.344  69.860  1.00  0.00    -0.124 C  
HETATM    7  H   UNK A   0      -6.925  20.161  70.509  1.00  0.00     0.000 HD 
HETATM    8  N   UNK A   0      -7.759  16.038  67.672  1.00  0.00    -0.137 NA 
HETATM    9  H   UNK A   0      -7.010  15.347  67.626  1.00  0.00     0.000 HD 
HETATM   10  H2  UNK A   0      -4.962  19.275  71.218  1.00  0.00     0.000 HD 
HETATM   11  C   UNK A   0      -7.542  17.233  68.338  1.00  0.00    -0.241 C  
HETATM   12  O   UNK A   0      -8.616  20.595  68.744  1.00  0.00     0.631 OA 
HETATM   13  C   UNK A   0      -8.412  18.266  68.171  1.00  0.00    -0.278 C  
HETATM   14  H1  UNK A   0      -4.517  17.636  70.682  1.00  0.00     0.000 HD 
HETATM   15  C   UNK A   0      -8.075  19.509  68.931  1.00  0.00    -0.282 C  
HETATM   16  N   UNK A   0      -6.442  17.283  69.158  1.00  0.00    -0.223 NA 
HETATM   17  N   UNK A   0      -5.144  18.440  70.662  1.00  0.00    -0.237 NA 
HETATM   18  N   UNK A   0      -7.062  19.410  69.833  1.00  0.00    -0.023 N  
ENDROOT
BRANCH   4  19
HETATM   19  C   UNK A   0     -10.829  16.750  65.559  1.00  0.00    -0.129 C  
BRANCH  19  20
HETATM   20  N   UNK A   0     -10.685  15.627  64.619  1.00  0.00    -0.723 NA 
HETATM   21  H   UNK A   0     -10.548  15.783  63.620  1.00  0.00     0.000 HD 
BRANCH  20  22
HETATM   22  C   UNK A   0     -10.745  14.335  65.154  1.00  0.00    -0.394 A  
HETATM   23  C   UNK A   0      -9.933  12.038  65.077  1.00  0.00    -0.259 A  
HETATM   24  C   UNK A   0     -10.561  11.774  66.299  1.00  0.00    -0.292 A  
HETATM   25  C   UNK A   0     -11.466  14.012  66.310  1.00  0.00    -0.358 A  
HETATM   26  C   UNK A   0     -10.037  13.314  64.507  1.00  0.00    -0.241 A  
HETATM   27  C   UNK A   0     -11.372  12.747  66.886  1.00  0.00    -0.371 A  
BRANCH  24  28
HETATM   28  C   UNK A   0     -10.362  10.465  66.965  1.00  0.00    -0.240 C  
ATOM     29  H   GLU A   1      -9.035  11.326  68.342  1.00  0.00     0.000 HD 
ATOM     30  N   GLU A   1      -9.450  10.454  68.013  1.00  0.00    -0.142 N  
HETATM   31  O   UNK A   0     -10.951   9.465  66.577  1.00  0.00     0.087 OA 
BRANCH  30  32
ATOM     32  CA  GLU A   1      -9.087   9.173  68.648  1.00  0.00    -0.136 C  
ATOM     33  C   GLU A   1      -8.447   9.447  70.022  1.00  0.00    -0.190 C  
ATOM     34  O   GLU A   1      -7.890  10.680  70.112  1.00  0.00     0.030 OA 
ATOM     35  OXT GLU A   1      -8.302   8.602  70.895  1.00  0.00    -0.125 OA 
BRANCH  32  36
ATOM     36  CB  GLU A   1      -8.105   8.398  67.757  1.00  0.00    -0.122 C  
BRANCH  36  37
ATOM     37  CG  GLU A   1      -7.182   9.313  66.945  1.00  0.00    -0.086 C  
ATOM     38  CD  GLU A   1      -6.087   8.553  66.241  1.00  0.00    -0.052 C  
ATOM     39  OE2 GLU A   1      -5.919   7.345  66.302  1.00  0.00    -0.035 OA 
ATOM     40  OE1 GLU A   1      -5.295   9.365  65.505  1.00  0.00    -0.039 OA 
ENDBRANCH  36  37
ENDBRANCH  32  36
ENDBRANCH  30  32
ENDBRANCH  24  28
ENDBRANCH  20  22
ENDBRANCH  19  20
ENDBRANCH   4  19
TORSDOF 7
ENDMDL
MODEL      227
REMARK 921   NORMALIZED FREE ENERGY PREDICTED BY IDOCK:   -2.51 KCAL/MOL
REMARK 922        TOTAL FREE ENERGY PREDICTED BY IDOCK:   -4.80 KCAL/MOL
REMARK 923 INTER-LIGAND FREE ENERGY PREDICTED BY IDOCK:   -5.32 KCAL/MOL
REMARK 924 INTRA-LIGAND FREE ENERGY PREDICTED BY IDOCK:    0.52 KCAL/MOL
REMARK 927      BINDING AFFINITY PREDICTED BY RF-SCORE:    0.00 PKD
ROOT
HETATM    1  C   UNK A   0      -9.607  15.122  66.558  1.00  0.00    -0.271 C  
HETATM    2  N   UNK A   0     -10.333  13.947  66.693  1.00  0.00    -0.275 N  
HETATM    3  O   UNK A   0      -8.920  15.662  67.422  1.00  0.00    -0.187 OA 
HETATM    4  C   UNK A   0     -10.348  13.175  67.989  1.00  0.00    -0.238 C  
HETATM    5  C   UNK A   0     -10.206  11.668  67.673  1.00  0.00    -0.188 C  
HETATM    6  C   UNK A   0     -12.607  12.263  63.620  1.00  0.00    -0.490 C  
HETATM    7  H   UNK A   0     -12.282  13.981  62.547  1.00  0.00     0.000 HD 
HETATM    8  N   UNK A   0     -11.250  11.302  66.731  1.00  0.00    -0.329 NA 
HETATM    9  H   UNK A   0     -11.752  10.422  66.855  1.00  0.00     0.000 HD 
HETATM   10  H2  UNK A   0     -13.599  12.295  61.794  1.00  0.00     0.000 HD 
HETATM   11  C   UNK A   0     -11.576  12.127  65.667  1.00  0.00    -0.351 C  
HETATM   12  O   UNK A   0     -11.413  15.429  64.367  1.00  0.00    -0.355 OA 
HETATM   13  C   UNK A   0     -11.125  13.411  65.647  1.00  0.00    -0.285 C  
HETATM   14  H1  UNK A   0     -13.711  10.799  62.754  1.00  0.00     0.000 HD 
HETATM   15  C   UNK A   0     -11.544  14.212  64.455  1.00  0.00    -0.362 C  
HETATM   16  N   UNK A   0     -12.335  11.566  64.670  1.00  0.00     0.108 NA 
HETATM   17  N   UNK A   0     -13.373  11.753  62.628  1.00  0.00    -0.098 NA 
HETATM   18  N   UNK A   0     -12.158  13.527  63.452  1.00  0.00    -0.889 N  
ENDROOT
BRANCH   4  19
HETATM   19  C   UNK A   0      -9.313  13.588  69.059  1.00  0.00     0.335 C  
BRANCH  19  20
HETATM   20  N   UNK A   0      -7.932  13.342  68.612  1.00  0.00    -0.285 NA 
HETATM   21  H   UNK A   0      -7.280  14.110  68.451  1.00  0.00     0.000 HD 
BRANCH  20  22
HETATM   22  C   UNK A   0      -7.552  12.009  68.416  1.00  0.00    -0.128 A  
HETATM   23  C   UNK A   0      -6.614  10.338  66.910  1.00  0.00    -0.076 A  
HETATM   24  C   UNK A   0      -6.498   9.440  67.976  1.00  0.00    -0.062 A  
HETATM   25  C   UNK A   0      -7.541  11.053  69.439  1.00  0.00    -0.058 A  
HETATM   26  C   UNK A   0      -7.150  11.613  67.134  1.00  0.00    -0.143 A  
HETATM   27  C   UNK A   0      -7.012   9.781  69.229  1.00  0.00    -0.056 A  
BRANCH  24  28
HETATM   28  C   UNK A   0      -5.828   8.134  67.774  1.00  0.00    -0.042 C  
ATOM     29  H   GLU A   1      -6.453   8.081  65.773  1.00  0.00     0.000 HD 
ATOM     30  N   GLU A   1      -5.985   7.564  66.517  1.00  0.00    -0.039 N  
HETATM   31  O   UNK A   0      -5.210   7.595  68.682  1.00  0.00    -0.024 OA 
BRANCH  30  32
ATOM     32  CA  GLU A   1      -5.469   6.205  66.264  1.00  0.00    -0.013 C  
ATOM     33  C   GLU A   1      -5.693   5.840  64.785  1.00  0.00    -0.024 C  
ATOM     34  O   GLU A   1      -6.711   6.530  64.215  1.00  0.00    -0.036 OA 
ATOM     35  OXT GLU A   1      -5.131   4.917  64.211  1.00  0.00    -0.009 OA 
BRANCH  32  36
ATOM     36  CB  GLU A   1      -6.183   5.189  67.169  1.00  0.00    -0.032 C  
BRANCH  36  37
ATOM     37  CG  GLU A   1      -7.690   5.105  66.903  1.00  0.00    -0.092 C  
ATOM     38  CD  GLU A   1      -8.509   5.317  68.151  1.00  0.00    -0.096 C  
ATOM     39  OE2 GLU A   1      -8.054   5.519  69.265  1.00  0.00    -0.093 OA 
ATOM     40  OE1 GLU A   1      -9.838   5.269  67.901  1.00  0.00    -0.135 OA 
ENDBRANCH  36  37
ENDBRANCH  32  36
ENDBRANCH  30  32
ENDBRANCH  24  28
ENDBRANCH  20  22
ENDBRANCH  19  20
ENDBRANCH   4  19
TORSDOF 7
ENDMDL
MODEL      228
REMARK 921   NORMALIZED FREE ENERGY PREDICTED BY IDOCK:   -2.48 KCAL/MOL
REMARK 922        TOTAL FREE ENERGY PREDICTED BY IDOCK:   -4.76 KCAL/MOL
REMARK 923 INTER-LIGAND FREE ENERGY PREDICTED BY IDOCK:   -3.80 KCAL/MOL
REMARK 924 INTRA-LIGAND FREE ENERGY PREDICTED BY IDOCK:   -0.96 KCAL/MOL
REMARK 927      BINDING AFFINITY PREDICTED BY RF-SCORE:    0.00 PKD
ROOT
HETATM    1  C   UNK A   0     -10.096   6.927  68.338  1.00  0.00    -0.168 C  
HETATM    2  N   UNK A   0      -9.813   7.447  69.593  1.00  0.00    -0.173 N  
HETATM    3  O   UNK A   0     -10.575   7.534  67.385  1.00  0.00    -0.270 OA 
HETATM    4  C   UNK A   0     -10.083   8.894  69.925  1.00  0.00    -0.195 C  
HETATM    5  C   UNK A   0      -8.879   9.457  70.716  1.00  0.00    -0.171 C  
HETATM    6  C   UNK A   0      -8.167   5.209  72.713  1.00  0.00    -0.109 C  
HETATM    7  H   UNK A   0      -8.458   3.537  71.561  1.00  0.00     0.000 HD 
HETATM    8  N   UNK A   0      -8.650   8.599  71.865  1.00  0.00    -0.281 NA 
HETATM    9  H   UNK A   0      -8.429   9.018  72.768  1.00  0.00     0.000 HD 
HETATM   10  H2  UNK A   0      -7.651   3.441  73.677  1.00  0.00     0.000 HD 
HETATM   11  C   UNK A   0      -8.724   7.220  71.755  1.00  0.00    -0.116 C  
HETATM   12  O   UNK A   0      -9.966   4.499  69.838  1.00  0.00    -0.219 OA 
HETATM   13  C   UNK A   0      -9.285   6.661  70.648  1.00  0.00    -0.159 C  
HETATM   14  H1  UNK A   0      -7.322   4.964  74.540  1.00  0.00     0.000 HD 
HETATM   15  C   UNK A   0      -9.319   5.166  70.640  1.00  0.00    -0.159 C  
HETATM   16  N   UNK A   0      -8.192   6.495  72.793  1.00  0.00    -0.109 NA 
HETATM   17  N   UNK A   0      -7.673   4.460  73.726  1.00  0.00    -0.081 NA 
HETATM   18  N   UNK A   0      -8.630   4.540  71.633  1.00  0.00    -0.113 N  
ENDROOT
BRANCH   4  19
HETATM   19  C   UNK A   0     -10.420   9.829  68.743  1.00  0.00    -0.218 C  
BRANCH  19  20
HETATM   20  N   UNK A   0     -11.739  10.464  68.902  1.00  0.00    -0.522 NA 
HETATM   21  H   UNK A   0     -12.600   9.918  68.863  1.00  0.00     0.000 HD 
BRANCH  20  22
HETATM   22  C   UNK A   0     -11.760  11.847  69.109  1.00  0.00    -0.319 A  
HETATM   23  C   UNK A   0     -11.481  13.697  70.671  1.00  0.00     0.248 A  
HETATM   24  C   UNK A   0     -11.502  14.603  69.605  1.00  0.00    -0.329 A  
HETATM   25  C   UNK A   0     -11.903  12.780  68.074  1.00  0.00    -0.386 A  
HETATM   26  C   UNK A   0     -11.621  12.326  70.418  1.00  0.00     0.048 A  
HETATM   27  C   UNK A   0     -11.768  14.146  68.313  1.00  0.00    -0.383 A  
BRANCH  24  28
HETATM   28  C   UNK A   0     -11.241  16.041  69.851  1.00  0.00    -0.361 C  
ATOM     29  H   GLU A   1      -9.715  16.047  68.412  1.00  0.00     0.000 HD 
ATOM     30  N   GLU A   1     -10.192  16.595  69.128  1.00  0.00    -0.296 N  
HETATM   31  O   UNK A   0     -11.900  16.670  70.667  1.00  0.00     0.142 OA 
BRANCH  30  32
ATOM     32  CA  GLU A   1      -9.772  17.982  69.404  1.00  0.00     0.160 C  
ATOM     33  C   GLU A   1      -9.897  18.819  68.117  1.00  0.00    -0.352 C  
ATOM     34  O   GLU A   1      -9.830  18.071  66.987  1.00  0.00    -0.294 OA 
ATOM     35  OXT GLU A   1      -9.896  20.042  68.088  1.00  0.00    -0.379 OA 
BRANCH  32  36
ATOM     36  CB  GLU A   1      -8.320  18.008  69.907  1.00  0.00     1.636 C  
BRANCH  36  37
ATOM     37  CG  GLU A   1      -7.335  17.360  68.928  1.00  0.00    -0.244 C  
ATOM     38  CD  GLU A   1      -6.556  16.232  69.554  1.00  0.00    -0.202 C  
ATOM     39  OE2 GLU A   1      -6.663  15.862  70.712  1.00  0.00     0.670 OA 
ATOM     40  OE1 GLU A   1      -5.709  15.648  68.675  1.00  0.00    -0.095 OA 
ENDBRANCH  36  37
ENDBRANCH  32  36
ENDBRANCH  30  32
ENDBRANCH  24  28
ENDBRANCH  20  22
ENDBRANCH  19  20
ENDBRANCH   4  19
TORSDOF 7
ENDMDL
MODEL      229
REMARK 921   NORMALIZED FREE ENERGY PREDICTED BY IDOCK:   -2.17 KCAL/MOL
REMARK 922        TOTAL FREE ENERGY PREDICTED BY IDOCK:   -4.33 KCAL/MOL
REMARK 923 INTER-LIGAND FREE ENERGY PREDICTED BY IDOCK:   -4.76 KCAL/MOL
REMARK 924 INTRA-LIGAND FREE ENERGY PREDICTED BY IDOCK:    0.43 KCAL/MOL
REMARK 927      BINDING AFFINITY PREDICTED BY RF-SCORE:    0.00 PKD
ROOT
HETATM    1  C   UNK A   0     -12.390  14.512  67.088  1.00  0.00     0.004 C  
HETATM    2  N   UNK A   0     -11.350  14.768  67.971  1.00  0.00    -0.302 N  
HETATM    3  O   UNK A   0     -12.291  14.292  65.885  1.00  0.00    -0.430 OA 
HETATM    4  C   UNK A   0      -9.914  14.802  67.508  1.00  0.00    -0.219 C  
HETATM    5  C   UNK A   0      -9.040  14.050  68.538  1.00  0.00    -0.163 C  
HETATM    6  C   UNK A   0     -11.895  15.487  72.050  1.00  0.00    -0.453 C  
HETATM    7  H   UNK A   0     -13.911  15.572  71.684  1.00  0.00     0.000 HD 
HETATM    8  N   UNK A   0      -9.274  14.637  69.846  1.00  0.00    -0.148 NA 
HETATM    9  H   UNK A   0      -8.485  14.797  70.473  1.00  0.00     0.000 HD 
HETATM   10  H2  UNK A   0     -13.019  15.968  73.731  1.00  0.00     0.000 HD 
HETATM   11  C   UNK A   0     -10.551  14.984  70.257  1.00  0.00    -0.084 C  
HETATM   12  O   UNK A   0     -13.859  15.742  69.208  1.00  0.00     2.170 OA 
HETATM   13  C   UNK A   0     -11.560  15.042  69.346  1.00  0.00    -0.315 C  
HETATM   14  H1  UNK A   0     -11.266  15.745  73.961  1.00  0.00     0.000 HD 
HETATM   15  C   UNK A   0     -12.893  15.435  69.899  1.00  0.00     0.024 C  
HETATM   16  N   UNK A   0     -10.714  15.231  71.598  1.00  0.00    -0.302 NA 
HETATM   17  N   UNK A   0     -12.091  15.759  73.361  1.00  0.00    -0.470 NA 
HETATM   18  N   UNK A   0     -12.988  15.505  71.255  1.00  0.00    -0.477 N  
ENDROOT
BRANCH   4  19
HETATM   19  C   UNK A   0      -9.628  14.269  66.087  1.00  0.00    -0.275 C  
BRANCH  19  20
HETATM   20  N   UNK A   0     -10.366  13.027  65.806  1.00  0.00    -0.282 NA 
HETATM   21  H   UNK A   0     -11.130  13.003  65.129  1.00  0.00     0.000 HD 
BRANCH  20  22
HETATM   22  C   UNK A   0      -9.976  11.880  66.506  1.00  0.00    -0.202 A  
HETATM   23  C   UNK A   0     -10.653   9.952  67.835  1.00  0.00    -0.303 A  
HETATM   24  C   UNK A   0      -9.369   9.413  67.710  1.00  0.00    -0.144 A  
HETATM   25  C   UNK A   0      -8.667  11.381  66.500  1.00  0.00    -0.181 A  
HETATM   26  C   UNK A   0     -10.946  11.187  67.241  1.00  0.00    -0.354 A  
HETATM   27  C   UNK A   0      -8.363  10.156  67.088  1.00  0.00    -0.125 A  
BRANCH  24  28
HETATM   28  C   UNK A   0      -9.081   8.057  68.235  1.00  0.00    -0.135 C  
ATOM     29  H   GLU A   1      -8.549   8.853  70.101  1.00  0.00     0.000 HD 
ATOM     30  N   GLU A   1      -8.598   8.005  69.537  1.00  0.00    -0.135 N  
HETATM   31  O   UNK A   0      -9.235   7.065  67.536  1.00  0.00    -0.124 OA 
BRANCH  30  32
ATOM     32  CA  GLU A   1      -8.157   6.713  70.097  1.00  0.00    -0.124 C  
ATOM     33  C   GLU A   1      -9.203   6.212  71.110  1.00  0.00    -0.153 C  
ATOM     34  O   GLU A   1      -9.948   7.211  71.644  1.00  0.00    -0.178 OA 
ATOM     35  OXT GLU A   1      -9.266   5.062  71.523  1.00  0.00    -0.140 OA 
BRANCH  32  36
ATOM     36  CB  GLU A   1      -6.793   6.871  70.787  1.00  0.00    -0.058 C  
BRANCH  36  37
ATOM     37  CG  GLU A   1      -6.181   8.262  70.592  1.00  0.00    -0.036 C  
ATOM     38  CD  GLU A   1      -6.411   9.166  71.776  1.00  0.00    -0.009 C  
ATOM     39  OE2 GLU A   1      -7.025   8.859  72.786  1.00  0.00    -0.325 OA 
ATOM     40  OE1 GLU A   1      -5.843  10.382  71.607  1.00  0.00    -0.310 OA 
ENDBRANCH  36  37
ENDBRANCH  32  36
ENDBRANCH  30  32
ENDBRANCH  24  28
ENDBRANCH  20  22
ENDBRANCH  19  20
ENDBRANCH   4  19
TORSDOF 7
ENDMDL
MODEL      230
REMARK 921   NORMALIZED FREE ENERGY PREDICTED BY IDOCK:   -1.87 KCAL/MOL
REMARK 922        TOTAL FREE ENERGY PREDICTED BY IDOCK:   -3.91 KCAL/MOL
REMARK 923 INTER-LIGAND FREE ENERGY PREDICTED BY IDOCK:   -4.23 KCAL/MOL
REMARK 924 INTRA-LIGAND FREE ENERGY PREDICTED BY IDOCK:    0.32 KCAL/MOL
REMARK 927      BINDING AFFINITY PREDICTED BY RF-SCORE:    0.00 PKD
ROOT
HETATM    1  C   UNK A   0      -8.069  15.312  67.056  1.00  0.00    -0.218 C  
HETATM    2  N   UNK A   0      -9.304  15.929  66.911  1.00  0.00    -0.217 N  
HETATM    3  O   UNK A   0      -7.705  14.269  66.520  1.00  0.00     0.543 OA 
HETATM    4  C   UNK A   0     -10.379  15.343  66.028  1.00  0.00    -0.324 C  
HETATM    5  C   UNK A   0     -11.030  16.484  65.212  1.00  0.00    -0.162 C  
HETATM    6  C   UNK A   0     -10.351  19.495  68.820  1.00  0.00    -0.222 C  
HETATM    7  H   UNK A   0      -8.618  19.329  69.905  1.00  0.00     0.000 HD 
HETATM    8  N   UNK A   0     -11.489  17.502  66.141  1.00  0.00     1.195 NA 
HETATM    9  H   UNK A   0     -12.397  17.944  65.993  1.00  0.00     0.000 HD 
HETATM   10  H2  UNK A   0     -10.126  20.987  70.249  1.00  0.00     0.000 HD 
HETATM   11  C   UNK A   0     -10.715  17.884  67.224  1.00  0.00    -0.267 C  
HETATM   12  O   UNK A   0      -8.045  16.971  69.382  1.00  0.00    -0.016 OA 
HETATM   13  C   UNK A   0      -9.650  17.122  67.595  1.00  0.00    -0.254 C  
HETATM   14  H1  UNK A   0     -11.535  21.104  69.166  1.00  0.00     0.000 HD 
HETATM   15  C   UNK A   0      -8.892  17.625  68.782  1.00  0.00    -0.208 C  
HETATM   16  N   UNK A   0     -11.078  19.050  67.852  1.00  0.00    -0.239 NA 
HETATM   17  N   UNK A   0     -10.689  20.627  69.479  1.00  0.00    -0.105 NA 
HETATM   18  N   UNK A   0      -9.229  18.863  69.234  1.00  0.00    -0.048 N  
ENDROOT
BRANCH   4  19
HETATM   19  C   UNK A   0      -9.958  14.195  65.086  1.00  0.00    -0.229 C  
BRANCH  19  20
HETATM   20  N   UNK A   0     -11.040  13.216  64.893  1.00  0.00    -0.303 NA 
HETATM   21  H   UNK A   0     -11.897  13.460  64.397  1.00  0.00     0.000 HD 
BRANCH  20  22
HETATM   22  C   UNK A   0     -10.843  11.934  65.420  1.00  0.00    -0.294 A  
HETATM   23  C   UNK A   0      -9.689   9.795  65.246  1.00  0.00    -0.371 A  
HETATM   24  C   UNK A   0     -10.147   9.442  66.519  1.00  0.00    -0.332 A  
HETATM   25  C   UNK A   0     -11.390  11.509  66.637  1.00  0.00    -0.285 A  
HETATM   26  C   UNK A   0     -10.048  11.034  64.700  1.00  0.00    -0.370 A  
HETATM   27  C   UNK A   0     -11.042  10.278  67.190  1.00  0.00    -0.165 A  
BRANCH  24  28
HETATM   28  C   UNK A   0      -9.680   8.186  67.152  1.00  0.00    -0.199 C  
ATOM     29  H   GLU A   1      -9.840   9.044  69.059  1.00  0.00     0.000 HD 
ATOM     30  N   GLU A   1      -9.540   8.222  68.534  1.00  0.00    -0.147 N  
HETATM   31  O   UNK A   0      -9.410   7.202  66.476  1.00  0.00    -0.164 OA 
BRANCH  30  32
ATOM     32  CA  GLU A   1      -8.954   7.065  69.236  1.00  0.00    -0.138 C  
ATOM     33  C   GLU A   1      -8.158   7.559  70.459  1.00  0.00    -0.106 C  
ATOM     34  O   GLU A   1      -7.730   8.840  70.333  1.00  0.00    -0.074 OA 
ATOM     35  OXT GLU A   1      -7.801   6.842  71.384  1.00  0.00    -0.096 OA 
BRANCH  32  36
ATOM     36  CB  GLU A   1      -8.030   6.281  68.291  1.00  0.00    -0.108 C  
BRANCH  36  37
ATOM     37  CG  GLU A   1      -7.485   4.994  68.918  1.00  0.00    -0.069 C  
ATOM     38  CD  GLU A   1      -8.120   3.755  68.340  1.00  0.00    -0.074 C  
ATOM     39  OE2 GLU A   1      -8.985   3.746  67.478  1.00  0.00    -0.114 OA 
ATOM     40  OE1 GLU A   1      -7.612   2.623  68.879  1.00  0.00    -0.047 OA 
ENDBRANCH  36  37
ENDBRANCH  32  36
ENDBRANCH  30  32
ENDBRANCH  24  28
ENDBRANCH  20  22
ENDBRANCH  19  20
ENDBRANCH   4  19
TORSDOF 7
ENDMDL
MODEL      231
REMARK 921   NORMALIZED FREE ENERGY PREDICTED BY IDOCK:   -1.70 KCAL/MOL
REMARK 922        TOTAL FREE ENERGY PREDICTED BY IDOCK:   -3.66 KCAL/MOL
REMARK 923 INTER-LIGAND FREE ENERGY PREDICTED BY IDOCK:   -3.87 KCAL/MOL
REMARK 924 INTRA-LIGAND FREE ENERGY PREDICTED BY IDOCK:    0.21 KCAL/MOL
REMARK 927      BINDING AFFINITY PREDICTED BY RF-SCORE:    0.00 PKD
ROOT
HETATM    1  C   UNK A   0     -10.986  14.428  68.621  1.00  0.00    -0.250 C  
HETATM    2  N   UNK A   0     -10.388  14.433  67.368  1.00  0.00    -0.251 N  
HETATM    3  O   UNK A   0     -10.476  14.794  69.676  1.00  0.00    -0.201 OA 
HETATM    4  C   UNK A   0      -8.972  14.917  67.172  1.00  0.00    -0.214 C  
HETATM    5  C   UNK A   0      -8.918  15.799  65.903  1.00  0.00    -0.193 C  
HETATM    6  C   UNK A   0     -12.303  13.152  63.883  1.00  0.00    -0.365 C  
HETATM    7  H   UNK A   0     -13.824  12.455  65.070  1.00  0.00     0.000 HD 
HETATM    8  N   UNK A   0      -9.461  15.033  64.795  1.00  0.00    -0.006 NA 
HETATM    9  H   UNK A   0      -9.003  15.074  63.885  1.00  0.00     0.000 HD 
HETATM   10  H2  UNK A   0     -13.789  12.158  62.822  1.00  0.00     0.000 HD 
HETATM   11  C   UNK A   0     -10.593  14.249  64.952  1.00  0.00    -0.431 C  
HETATM   12  O   UNK A   0     -12.692  12.572  67.276  1.00  0.00     0.388 OA 
HETATM   13  C   UNK A   0     -11.046  13.962  66.203  1.00  0.00    -0.299 C  
HETATM   14  H1  UNK A   0     -12.481  12.912  61.877  1.00  0.00     0.000 HD 
HETATM   15  C   UNK A   0     -12.268  13.102  66.254  1.00  0.00    -0.355 C  
HETATM   16  N   UNK A   0     -11.205  13.823  63.800  1.00  0.00    -0.490 NA 
HETATM   17  N   UNK A   0     -12.923  12.694  62.770  1.00  0.00    -0.080 NA 
HETATM   18  N   UNK A   0     -12.889  12.863  65.067  1.00  0.00    -0.697 N  
ENDROOT
BRANCH   4  19
HETATM   19  C   UNK A   0      -8.320  15.659  68.358  1.00  0.00    -0.162 C  
BRANCH  19  20
HETATM   20  N   UNK A   0      -6.978  15.136  68.664  1.00  0.00    -0.109 NA 
HETATM   21  H   UNK A   0      -6.160  15.745  68.680  1.00  0.00     0.000 HD 
BRANCH  20  22
HETATM   22  C   UNK A   0      -6.873  13.767  68.934  1.00  0.00    -0.110 A  
HETATM   23  C   UNK A   0      -8.023  11.665  69.380  1.00  0.00     0.415 A  
HETATM   24  C   UNK A   0      -6.821  10.970  69.209  1.00  0.00    -0.110 A  
HETATM   25  C   UNK A   0      -5.662  13.064  68.891  1.00  0.00    -0.074 A  
HETATM   26  C   UNK A   0      -8.039  13.060  69.251  1.00  0.00     0.676 A  
HETATM   27  C   UNK A   0      -5.632  11.677  69.019  1.00  0.00    -0.050 A  
BRANCH  24  28
HETATM   28  C   UNK A   0      -6.814   9.488  69.229  1.00  0.00    -0.049 C  
ATOM     29  H   GLU A   1      -5.652   9.433  67.485  1.00  0.00     0.000 HD 
ATOM     30  N   GLU A   1      -6.164   8.873  68.166  1.00  0.00    -0.050 N  
HETATM   31  O   UNK A   0      -7.381   8.867  70.119  1.00  0.00    -0.050 OA 
BRANCH  30  32
ATOM     32  CA  GLU A   1      -6.221   7.405  68.030  1.00  0.00    -0.043 C  
ATOM     33  C   GLU A   1      -5.660   6.998  66.654  1.00  0.00    -0.022 C  
ATOM     34  O   GLU A   1      -5.748   7.987  65.730  1.00  0.00    -0.036 OA 
ATOM     35  OXT GLU A   1      -5.316   5.862  66.360  1.00  0.00    -0.009 OA 
BRANCH  32  36
ATOM     36  CB  GLU A   1      -7.670   6.914  68.171  1.00  0.00    -0.113 C  
BRANCH  36  37
ATOM     37  CG  GLU A   1      -8.533   7.232  66.945  1.00  0.00    -0.119 C  
ATOM     38  CD  GLU A   1      -9.787   7.989  67.302  1.00  0.00    -0.197 C  
ATOM     39  OE2 GLU A   1     -10.114   8.314  68.432  1.00  0.00    -0.189 OA 
ATOM     40  OE1 GLU A   1     -10.528   8.289  66.210  1.00  0.00    -0.026 OA 
ENDBRANCH  36  37
ENDBRANCH  32  36
ENDBRANCH  30  32
ENDBRANCH  24  28
ENDBRANCH  20  22
ENDBRANCH  19  20
ENDBRANCH   4  19
TORSDOF 7
ENDMDL
MODEL      232
REMARK 921   NORMALIZED FREE ENERGY PREDICTED BY IDOCK:   -1.65 KCAL/MOL
REMARK 922        TOTAL FREE ENERGY PREDICTED BY IDOCK:   -3.59 KCAL/MOL
REMARK 923 INTER-LIGAND FREE ENERGY PREDICTED BY IDOCK:   -4.31 KCAL/MOL
REMARK 924 INTRA-LIGAND FREE ENERGY PREDICTED BY IDOCK:    0.72 KCAL/MOL
REMARK 927      BINDING AFFINITY PREDICTED BY RF-SCORE:    0.00 PKD
ROOT
HETATM    1  C   UNK A   0     -12.042  13.236  67.778  1.00  0.00    -0.237 C  
HETATM    2  N   UNK A   0     -11.148  14.068  68.438  1.00  0.00    -0.243 N  
HETATM    3  O   UNK A   0     -11.960  12.848  66.616  1.00  0.00    -0.397 OA 
HETATM    4  C   UNK A   0      -9.918  14.607  67.749  1.00  0.00    -0.224 C  
HETATM    5  C   UNK A   0      -8.718  14.503  68.718  1.00  0.00    -0.147 C  
HETATM    6  C   UNK A   0     -11.600  15.269  72.414  1.00  0.00    -0.417 C  
HETATM    7  H   UNK A   0     -13.472  14.432  72.370  1.00  0.00     0.000 HD 
HETATM    8  N   UNK A   0      -9.072  15.180  69.954  1.00  0.00    -0.427 NA 
HETATM    9  H   UNK A   0      -8.383  15.772  70.417  1.00  0.00     0.000 HD 
HETATM   10  H2  UNK A   0     -12.671  15.552  74.172  1.00  0.00     0.000 HD 
HETATM   11  C   UNK A   0     -10.332  15.036  70.514  1.00  0.00     0.178 C  
HETATM   12  O   UNK A   0     -13.713  14.125  69.918  1.00  0.00     1.215 OA 
HETATM   13  C   UNK A   0     -11.338  14.490  69.778  1.00  0.00    -0.260 C  
HETATM   14  H1  UNK A   0     -10.987  16.130  74.144  1.00  0.00     0.000 HD 
HETATM   15  C   UNK A   0     -12.655  14.390  70.480  1.00  0.00    -0.353 C  
HETATM   16  N   UNK A   0     -10.471  15.446  71.817  1.00  0.00     0.224 NA 
HETATM   17  N   UNK A   0     -11.783  15.682  73.689  1.00  0.00    -0.220 NA 
HETATM   18  N   UNK A   0     -12.654  14.674  71.811  1.00  0.00    -0.326 N  
ENDROOT
BRANCH   4  19
HETATM   19  C   UNK A   0      -9.551  13.978  66.387  1.00  0.00    -0.283 C  
BRANCH  19  20
HETATM   20  N   UNK A   0      -9.752  12.520  66.382  1.00  0.00    -0.246 NA 
HETATM   21  H   UNK A   0     -10.493  12.087  65.830  1.00  0.00     0.000 HD 
BRANCH  20  22
HETATM   22  C   UNK A   0      -8.885  11.753  67.167  1.00  0.00    -0.173 A  
HETATM   23  C   UNK A   0      -8.628   9.942  68.779  1.00  0.00    -0.130 A  
HETATM   24  C   UNK A   0      -7.243   9.963  68.584  1.00  0.00    -0.072 A  
HETATM   25  C   UNK A   0      -7.489  11.838  67.082  1.00  0.00    -0.149 A  
HETATM   26  C   UNK A   0      -9.439  10.844  68.078  1.00  0.00    -0.167 A  
HETATM   27  C   UNK A   0      -6.672  10.948  67.775  1.00  0.00    -0.064 A  
BRANCH  24  28
HETATM   28  C   UNK A   0      -6.389   8.939  69.232  1.00  0.00    -0.042 C  
ATOM     29  H   GLU A   1      -8.080   7.943  69.971  1.00  0.00     0.000 HD 
ATOM     30  N   GLU A   1      -7.060   7.975  69.973  1.00  0.00    -0.049 N  
HETATM   31  O   UNK A   0      -5.170   8.982  69.133  1.00  0.00    -0.035 OA 
BRANCH  30  32
ATOM     32  CA  GLU A   1      -6.288   6.997  70.763  1.00  0.00    -0.043 C  
ATOM     33  C   GLU A   1      -5.989   5.761  69.894  1.00  0.00    -0.025 C  
ATOM     34  O   GLU A   1      -6.878   5.593  68.884  1.00  0.00    -0.054 OA 
ATOM     35  OXT GLU A   1      -5.143   4.919  70.163  1.00  0.00     0.000 OA 
BRANCH  32  36
ATOM     36  CB  GLU A   1      -7.079   6.581  72.013  1.00  0.00    -0.081 C  
BRANCH  36  37
ATOM     37  CG  GLU A   1      -8.582   6.849  71.887  1.00  0.00    -0.118 C  
ATOM     38  CD  GLU A   1      -9.040   7.989  72.760  1.00  0.00    -0.238 C  
ATOM     39  OE2 GLU A   1      -8.322   8.636  73.505  1.00  0.00    -0.393 OA 
ATOM     40  OE1 GLU A   1     -10.363   8.236  72.622  1.00  0.00    -0.313 OA 
ENDBRANCH  36  37
ENDBRANCH  32  36
ENDBRANCH  30  32
ENDBRANCH  24  28
ENDBRANCH  20  22
ENDBRANCH  19  20
ENDBRANCH   4  19
TORSDOF 7
ENDMDL
MODEL      233
REMARK 921   NORMALIZED FREE ENERGY PREDICTED BY IDOCK:   -1.53 KCAL/MOL
REMARK 922        TOTAL FREE ENERGY PREDICTED BY IDOCK:   -3.42 KCAL/MOL
REMARK 923 INTER-LIGAND FREE ENERGY PREDICTED BY IDOCK:   -4.14 KCAL/MOL
REMARK 924 INTRA-LIGAND FREE ENERGY PREDICTED BY IDOCK:    0.72 KCAL/MOL
REMARK 927      BINDING AFFINITY PREDICTED BY RF-SCORE:    0.00 PKD
ROOT
HETATM    1  C   UNK A   0      -8.997  13.961  67.146  1.00  0.00    -0.235 C  
HETATM    2  N   UNK A   0      -9.385  14.597  68.317  1.00  0.00    -0.193 N  
HETATM    3  O   UNK A   0      -9.154  12.775  66.870  1.00  0.00    -0.213 OA 
HETATM    4  C   UNK A   0     -10.080  13.847  69.428  1.00  0.00     0.337 C  
HETATM    5  C   UNK A   0     -11.246  14.713  69.959  1.00  0.00    -0.209 C  
HETATM    6  C   UNK A   0      -8.765  18.660  69.063  1.00  0.00    -0.068 C  
HETATM    7  H   UNK A   0      -7.609  18.713  67.370  1.00  0.00     0.000 HD 
HETATM    8  N   UNK A   0     -10.713  16.010  70.337  1.00  0.00    -0.269 NA 
HETATM    9  H   UNK A   0     -11.034  16.452  71.198  1.00  0.00     0.000 HD 
HETATM   10  H2  UNK A   0      -7.880  20.510  68.725  1.00  0.00     0.000 HD 
HETATM   11  C   UNK A   0      -9.776  16.657  69.548  1.00  0.00     0.007 C  
HETATM   12  O   UNK A   0      -7.325  16.273  67.006  1.00  0.00    -0.185 OA 
HETATM   13  C   UNK A   0      -9.135  15.970  68.563  1.00  0.00    -0.203 C  
HETATM   14  H1  UNK A   0      -9.004  20.386  70.101  1.00  0.00     0.000 HD 
HETATM   15  C   UNK A   0      -8.139  16.766  67.780  1.00  0.00    -0.179 C  
HETATM   16  N   UNK A   0      -9.571  17.988  69.812  1.00  0.00     0.650 NA 
HETATM   17  N   UNK A   0      -8.519  19.968  69.307  1.00  0.00     0.191 NA 
HETATM   18  N   UNK A   0      -8.122  18.107  68.010  1.00  0.00    -0.252 N  
ENDROOT
BRANCH   4  19
HETATM   19  C   UNK A   0     -10.586  12.426  69.098  1.00  0.00     0.039 C  
BRANCH  19  20
HETATM   20  N   UNK A   0     -11.346  11.840  70.215  1.00  0.00    -0.463 NA 
HETATM   21  H   UNK A   0     -11.894  12.421  70.849  1.00  0.00     0.000 HD 
BRANCH  20  22
HETATM   22  C   UNK A   0     -11.283  10.450  70.370  1.00  0.00    -0.321 A  
HETATM   23  C   UNK A   0     -10.072   8.384  69.919  1.00  0.00    -0.195 A  
HETATM   24  C   UNK A   0     -10.887   7.706  70.831  1.00  0.00    -0.250 A  
HETATM   25  C   UNK A   0     -12.164   9.725  71.182  1.00  0.00    -0.453 A  
HETATM   26  C   UNK A   0     -10.282   9.749  69.686  1.00  0.00    -0.254 A  
HETATM   27  C   UNK A   0     -11.967   8.366  71.421  1.00  0.00    -0.337 A  
BRANCH  24  28
HETATM   28  C   UNK A   0     -10.602   6.291  71.170  1.00  0.00    -0.239 C  
ATOM     29  H   GLU A   1      -8.922   6.860  72.290  1.00  0.00     0.000 HD 
ATOM     30  N   GLU A   1      -9.457   6.071  71.925  1.00  0.00    -0.151 N  
HETATM   31  O   UNK A   0     -11.325   5.389  70.770  1.00  0.00     0.062 OA 
BRANCH  30  32
ATOM     32  CA  GLU A   1      -9.018   4.689  72.196  1.00  0.00    -0.126 C  
ATOM     33  C   GLU A   1      -9.303   4.343  73.670  1.00  0.00    -0.113 C  
ATOM     34  O   GLU A   1      -9.363   5.436  74.471  1.00  0.00    -0.124 OA 
ATOM     35  OXT GLU A   1      -9.316   3.205  74.120  1.00  0.00    -0.084 OA 
BRANCH  32  36
ATOM     36  CB  GLU A   1      -7.518   4.540  71.902  1.00  0.00    -0.075 C  
BRANCH  36  37
ATOM     37  CG  GLU A   1      -6.904   5.792  71.267  1.00  0.00    -0.062 C  
ATOM     38  CD  GLU A   1      -6.879   6.966  72.213  1.00  0.00    -0.062 C  
ATOM     39  OE2 GLU A   1      -7.305   6.956  73.357  1.00  0.00    -0.078 OA 
ATOM     40  OE1 GLU A   1      -6.311   8.058  71.653  1.00  0.00    -0.038 OA 
ENDBRANCH  36  37
ENDBRANCH  32  36
ENDBRANCH  30  32
ENDBRANCH  24  28
ENDBRANCH  20  22
ENDBRANCH  19  20
ENDBRANCH   4  19
TORSDOF 7
ENDMDL
MODEL      234
REMARK 921   NORMALIZED FREE ENERGY PREDICTED BY IDOCK:   -1.22 KCAL/MOL
REMARK 922        TOTAL FREE ENERGY PREDICTED BY IDOCK:   -2.98 KCAL/MOL
REMARK 923 INTER-LIGAND FREE ENERGY PREDICTED BY IDOCK:   -6.56 KCAL/MOL
REMARK 924 INTRA-LIGAND FREE ENERGY PREDICTED BY IDOCK:    3.57 KCAL/MOL
REMARK 927      BINDING AFFINITY PREDICTED BY RF-SCORE:    0.00 PKD
ROOT
HETATM    1  C   UNK A   0      -9.828  18.125  67.370  1.00  0.00    -0.313 C  
HETATM    2  N   UNK A   0      -9.148  16.984  66.967  1.00  0.00    -0.215 N  
HETATM    3  O   UNK A   0     -10.722  18.700  66.755  1.00  0.00    -0.385 OA 
HETATM    4  C   UNK A   0      -9.462  16.299  65.660  1.00  0.00    -0.062 C  
HETATM    5  C   UNK A   0      -9.498  14.771  65.893  1.00  0.00    -0.231 C  
HETATM    6  C   UNK A   0      -6.132  15.169  69.218  1.00  0.00    -0.109 C  
HETATM    7  H   UNK A   0      -6.186  16.801  70.459  1.00  0.00     0.000 HD 
HETATM    8  N   UNK A   0      -8.241  14.375  66.504  1.00  0.00    -0.273 NA 
HETATM    9  H   UNK A   0      -7.779  13.521  66.191  1.00  0.00     0.000 HD 
HETATM   10  H2  UNK A   0      -4.699  15.110  70.722  1.00  0.00     0.000 HD 
HETATM   11  C   UNK A   0      -7.659  15.138  67.504  1.00  0.00    -0.192 C  
HETATM   12  O   UNK A   0      -7.516  18.340  69.035  1.00  0.00    -0.260 OA 
HETATM   13  C   UNK A   0      -8.104  16.403  67.732  1.00  0.00    -0.157 C  
HETATM   14  H1  UNK A   0      -4.823  13.685  69.661  1.00  0.00     0.000 HD 
HETATM   15  C   UNK A   0      -7.399  17.136  68.829  1.00  0.00    -0.241 C  
HETATM   16  N   UNK A   0      -6.660  14.535  68.227  1.00  0.00    -0.107 NA 
HETATM   17  N   UNK A   0      -5.128  14.618  69.939  1.00  0.00    -0.092 NA 
HETATM   18  N   UNK A   0      -6.537  16.406  69.587  1.00  0.00    -0.211 N  
ENDROOT
BRANCH   4  19
HETATM   19  C   UNK A   0     -10.745  16.751  64.928  1.00  0.00    -0.018 C  
BRANCH  19  20
HETATM   20  N   UNK A   0     -11.532  15.606  64.440  1.00  0.00    -0.709 NA 
HETATM   21  H   UNK A   0     -11.976  15.618  63.521  1.00  0.00     0.000 HD 
BRANCH  20  22
HETATM   22  C   UNK A   0     -11.645  14.501  65.290  1.00  0.00    -0.359 A  
HETATM   23  C   UNK A   0     -11.608  12.075  65.525  1.00  0.00    -0.352 A  
HETATM   24  C   UNK A   0     -11.579  12.209  66.917  1.00  0.00    -0.408 A  
HETATM   25  C   UNK A   0     -11.742  14.607  66.683  1.00  0.00    -0.345 A  
HETATM   26  C   UNK A   0     -11.652  13.221  64.720  1.00  0.00    -0.364 A  
HETATM   27  C   UNK A   0     -11.701  13.475  67.495  1.00  0.00    -0.403 A  
BRANCH  24  28
HETATM   28  C   UNK A   0     -11.418  11.010  67.773  1.00  0.00    -0.261 C  
ATOM     29  H   GLU A   1      -9.849  11.924  68.822  1.00  0.00     0.000 HD 
ATOM     30  N   GLU A   1     -10.383  11.063  68.697  1.00  0.00    -0.185 N  
HETATM   31  O   UNK A   0     -12.142  10.033  67.632  1.00  0.00     1.086 OA 
BRANCH  30  32
ATOM     32  CA  GLU A   1     -10.060   9.867  69.499  1.00  0.00    -0.221 C  
ATOM     33  C   GLU A   1     -11.024   9.780  70.697  1.00  0.00    -0.331 C  
ATOM     34  O   GLU A   1     -11.541  10.983  71.052  1.00  0.00    -0.139 OA 
ATOM     35  OXT GLU A   1     -11.195   8.774  71.371  1.00  0.00    -0.252 OA 
BRANCH  32  36
ATOM     36  CB  GLU A   1      -8.609   9.937  69.997  1.00  0.00    -0.196 C  
BRANCH  36  37
ATOM     37  CG  GLU A   1      -7.588   9.530  68.929  1.00  0.00    -0.075 C  
ATOM     38  CD  GLU A   1      -6.535  10.584  68.704  1.00  0.00    -0.051 C  
ATOM     39  OE2 GLU A   1      -6.482  11.659  69.281  1.00  0.00    -0.085 OA 
ATOM     40  OE1 GLU A   1      -5.624  10.205  67.779  1.00  0.00    -0.042 OA 
ENDBRANCH  36  37
ENDBRANCH  32  36
ENDBRANCH  30  32
ENDBRANCH  24  28
ENDBRANCH  20  22
ENDBRANCH  19  20
ENDBRANCH   4  19
TORSDOF 7
ENDMDL
MODEL      235
REMARK 921   NORMALIZED FREE ENERGY PREDICTED BY IDOCK:   -0.97 KCAL/MOL
REMARK 922        TOTAL FREE ENERGY PREDICTED BY IDOCK:   -2.64 KCAL/MOL
REMARK 923 INTER-LIGAND FREE ENERGY PREDICTED BY IDOCK:   -6.19 KCAL/MOL
REMARK 924 INTRA-LIGAND FREE ENERGY PREDICTED BY IDOCK:    3.55 KCAL/MOL
REMARK 927      BINDING AFFINITY PREDICTED BY RF-SCORE:    0.00 PKD
ROOT
HETATM    1  C   UNK A   0     -11.923  11.912  69.505  1.00  0.00    -0.292 C  
HETATM    2  N   UNK A   0     -11.256  12.499  68.439  1.00  0.00    -0.251 N  
HETATM    3  O   UNK A   0     -12.211  10.725  69.624  1.00  0.00    -0.318 OA 
HETATM    4  C   UNK A   0     -10.794  11.686  67.254  1.00  0.00    -0.256 C  
HETATM    5  C   UNK A   0      -9.365  12.134  66.869  1.00  0.00    -0.203 C  
HETATM    6  C   UNK A   0     -10.356  16.574  68.228  1.00  0.00    -0.293 C  
HETATM    7  H   UNK A   0     -11.533  16.838  69.887  1.00  0.00     0.000 HD 
HETATM    8  N   UNK A   0      -9.381  13.570  66.656  1.00  0.00    -0.307 NA 
HETATM    9  H   UNK A   0      -8.866  13.966  65.869  1.00  0.00     0.000 HD 
HETATM   10  H2  UNK A   0     -10.556  18.565  68.790  1.00  0.00     0.000 HD 
HETATM   11  C   UNK A   0     -10.083  14.413  67.503  1.00  0.00    -0.232 C  
HETATM   12  O   UNK A   0     -12.681  14.636  69.916  1.00  0.00    -0.241 OA 
HETATM   13  C   UNK A   0     -10.990  13.891  68.373  1.00  0.00    -0.253 C  
HETATM   14  H1  UNK A   0      -9.455  18.208  67.436  1.00  0.00     0.000 HD 
HETATM   15  C   UNK A   0     -11.694  14.892  69.232  1.00  0.00    -0.316 C  
HETATM   16  N   UNK A   0      -9.788  15.751  67.414  1.00  0.00    -0.231 NA 
HETATM   17  N   UNK A   0     -10.110  17.902  68.156  1.00  0.00    -0.345 NA 
HETATM   18  N   UNK A   0     -11.223  16.168  69.183  1.00  0.00    -0.329 N  
ENDROOT
BRANCH   4  19
HETATM   19  C   UNK A   0     -10.844  10.150  67.402  1.00  0.00    -0.261 C  
BRANCH  19  20
HETATM   20  N   UNK A   0     -10.443   9.714  68.750  1.00  0.00    -0.209 NA 
HETATM   21  H   UNK A   0     -10.494  10.345  69.551  1.00  0.00     0.000 HD 
BRANCH  20  22
HETATM   22  C   UNK A   0      -9.990   8.397  68.887  1.00  0.00    -0.187 A  
HETATM   23  C   UNK A   0      -8.089   6.873  68.951  1.00  0.00    -0.120 A  
HETATM   24  C   UNK A   0      -8.923   5.850  69.415  1.00  0.00    -0.122 A  
HETATM   25  C   UNK A   0     -10.825   7.327  69.232  1.00  0.00    -0.177 A  
HETATM   26  C   UNK A   0      -8.630   8.137  68.680  1.00  0.00    -0.127 A  
HETATM   27  C   UNK A   0     -10.300   6.065  69.503  1.00  0.00    -0.295 A  
BRANCH  24  28
HETATM   28  C   UNK A   0      -8.343   4.546  69.812  1.00  0.00    -0.062 C  
ATOM     29  H   GLU A   1     -10.142   3.984  70.732  1.00  0.00     0.000 HD 
ATOM     30  N   GLU A   1      -9.171   3.722  70.564  1.00  0.00    -0.124 N  
HETATM   31  O   UNK A   0      -7.194   4.250  69.514  1.00  0.00    -0.049 OA 
BRANCH  30  32
ATOM     32  CA  GLU A   1      -8.635   2.464  71.119  1.00  0.00    -0.059 C  
ATOM     33  C   GLU A   1      -7.462   2.781  72.064  1.00  0.00    -0.047 C  
ATOM     34  O   GLU A   1      -6.860   3.964  71.786  1.00  0.00    -0.025 OA 
ATOM     35  OXT GLU A   1      -7.003   1.994  72.881  1.00  0.00    -0.022 OA 
BRANCH  32  36
ATOM     36  CB  GLU A   1      -8.161   1.542  69.985  1.00  0.00    -0.059 C  
BRANCH  36  37
ATOM     37  CG  GLU A   1      -9.120   1.521  68.790  1.00  0.00    -0.171 C  
ATOM     38  CD  GLU A   1      -8.419   1.787  67.482  1.00  0.00    -0.080 C  
ATOM     39  OE2 GLU A   1      -7.226   2.013  67.358  1.00  0.00    -0.053 OA 
ATOM     40  OE1 GLU A   1      -9.268   1.739  66.431  1.00  0.00    -0.073 OA 
ENDBRANCH  36  37
ENDBRANCH  32  36
ENDBRANCH  30  32
ENDBRANCH  24  28
ENDBRANCH  20  22
ENDBRANCH  19  20
ENDBRANCH   4  19
TORSDOF 7
ENDMDL
MODEL      236
REMARK 921   NORMALIZED FREE ENERGY PREDICTED BY IDOCK:   -0.91 KCAL/MOL
REMARK 922        TOTAL FREE ENERGY PREDICTED BY IDOCK:   -2.55 KCAL/MOL
REMARK 923 INTER-LIGAND FREE ENERGY PREDICTED BY IDOCK:   -4.65 KCAL/MOL
REMARK 924 INTRA-LIGAND FREE ENERGY PREDICTED BY IDOCK:    2.09 KCAL/MOL
REMARK 927      BINDING AFFINITY PREDICTED BY RF-SCORE:    0.00 PKD
ROOT
HETATM    1  C   UNK A   0     -10.766  10.802  64.465  1.00  0.00    -0.077 C  
HETATM    2  N   UNK A   0      -9.771  10.217  65.237  1.00  0.00    -0.269 N  
HETATM    3  O   UNK A   0     -11.815  11.292  64.873  1.00  0.00     0.180 OA 
HETATM    4  C   UNK A   0      -9.890  10.125  66.738  1.00  0.00    -0.196 C  
HETATM    5  C   UNK A   0      -8.529  10.496  67.371  1.00  0.00    -0.122 C  
HETATM    6  C   UNK A   0      -6.255   8.609  63.654  1.00  0.00    -0.080 C  
HETATM    7  H   UNK A   0      -7.075   8.857  61.790  1.00  0.00     0.000 HD 
HETATM    8  N   UNK A   0      -7.509   9.643  66.785  1.00  0.00    -0.094 NA 
HETATM    9  H   UNK A   0      -6.785   9.244  67.382  1.00  0.00     0.000 HD 
HETATM   10  H2  UNK A   0      -5.058   7.876  62.121  1.00  0.00     0.000 HD 
HETATM   11  C   UNK A   0      -7.502   9.363  65.428  1.00  0.00    -0.099 C  
HETATM   12  O   UNK A   0      -9.432   9.283  62.446  1.00  0.00     0.015 OA 
HETATM   13  C   UNK A   0      -8.600   9.648  64.675  1.00  0.00    -0.183 C  
HETATM   14  H1  UNK A   0      -4.389   7.824  63.771  1.00  0.00     0.000 HD 
HETATM   15  C   UNK A   0      -8.484   9.296  63.226  1.00  0.00    -0.204 C  
HETATM   16  N   UNK A   0      -6.346   8.822  64.922  1.00  0.00    -0.065 NA 
HETATM   17  N   UNK A   0      -5.141   8.054  63.122  1.00  0.00    -0.049 NA 
HETATM   18  N   UNK A   0      -7.252   8.914  62.793  1.00  0.00    -0.096 N  
ENDROOT
BRANCH   4  19
HETATM   19  C   UNK A   0     -11.019  10.946  67.399  1.00  0.00    -0.293 C  
BRANCH  19  20
HETATM   20  N   UNK A   0     -11.158  12.279  66.790  1.00  0.00    -0.279 NA 
HETATM   21  H   UNK A   0     -11.948  12.508  66.187  1.00  0.00     0.000 HD 
BRANCH  20  22
HETATM   22  C   UNK A   0     -10.162  13.219  67.076  1.00  0.00    -0.244 A  
HETATM   23  C   UNK A   0      -8.613  14.897  66.223  1.00  0.00     0.127 A  
HETATM   24  C   UNK A   0      -8.352  15.322  67.530  1.00  0.00    -0.191 A  
HETATM   25  C   UNK A   0      -9.791  13.578  68.377  1.00  0.00    -0.225 A  
HETATM   26  C   UNK A   0      -9.508  13.841  66.005  1.00  0.00    -0.125 A  
HETATM   27  C   UNK A   0      -8.901  14.625  68.608  1.00  0.00    -0.183 A  
BRANCH  24  28
HETATM   28  C   UNK A   0      -7.498  16.510  67.765  1.00  0.00    -0.145 C  
ATOM     29  H   GLU A   1      -8.674  17.659  66.463  1.00  0.00     0.000 HD 
ATOM     30  N   GLU A   1      -7.831  17.646  67.039  1.00  0.00    -0.207 N  
HETATM   31  O   UNK A   0      -6.544  16.459  68.530  1.00  0.00    -0.129 OA 
BRANCH  30  32
ATOM     32  CA  GLU A   1      -6.959  18.834  67.105  1.00  0.00    -0.200 C  
ATOM     33  C   GLU A   1      -5.903  18.755  65.986  1.00  0.00    -0.162 C  
ATOM     34  O   GLU A   1      -5.658  17.487  65.575  1.00  0.00    -0.140 OA 
ATOM     35  OXT GLU A   1      -5.230  19.704  65.607  1.00  0.00    -0.154 OA 
BRANCH  32  36
ATOM     36  CB  GLU A   1      -6.267  18.910  68.475  1.00  0.00    -0.240 C  
BRANCH  36  37
ATOM     37  CG  GLU A   1      -7.127  19.595  69.542  1.00  0.00    -0.268 C  
ATOM     38  CD  GLU A   1      -6.379  19.814  70.833  1.00  0.00    -0.017 C  
ATOM     39  OE2 GLU A   1      -5.223  19.480  71.041  1.00  0.00    -0.209 OA 
ATOM     40  OE1 GLU A   1      -7.137  20.443  71.760  1.00  0.00    -0.023 OA 
ENDBRANCH  36  37
ENDBRANCH  32  36
ENDBRANCH  30  32
ENDBRANCH  24  28
ENDBRANCH  20  22
ENDBRANCH  19  20
ENDBRANCH   4  19
TORSDOF 7
ENDMDL
MODEL      237
REMARK 921   NORMALIZED FREE ENERGY PREDICTED BY IDOCK:   -0.89 KCAL/MOL
REMARK 922        TOTAL FREE ENERGY PREDICTED BY IDOCK:   -2.52 KCAL/MOL
REMARK 923 INTER-LIGAND FREE ENERGY PREDICTED BY IDOCK:   -5.68 KCAL/MOL
REMARK 924 INTRA-LIGAND FREE ENERGY PREDICTED BY IDOCK:    3.16 KCAL/MOL
REMARK 927      BINDING AFFINITY PREDICTED BY RF-SCORE:    0.00 PKD
ROOT
HETATM    1  C   UNK A   0     -11.621  14.081  70.367  1.00  0.00    -0.139 C  
HETATM    2  N   UNK A   0     -11.419  14.021  68.995  1.00  0.00    -0.275 N  
HETATM    3  O   UNK A   0     -12.117  13.207  71.072  1.00  0.00    -0.263 OA 
HETATM    4  C   UNK A   0     -11.812  12.806  68.192  1.00  0.00    -0.324 C  
HETATM    5  C   UNK A   0     -10.682  12.484  67.187  1.00  0.00    -0.237 C  
HETATM    6  C   UNK A   0      -9.697  17.111  66.771  1.00  0.00    -0.271 C  
HETATM    7  H   UNK A   0      -9.819  18.281  68.451  1.00  0.00     0.000 HD 
HETATM    8  N   UNK A   0     -10.420  13.678  66.401  1.00  0.00    -0.284 NA 
HETATM    9  H   UNK A   0     -10.262  13.592  65.397  1.00  0.00     0.000 HD 
HETATM   10  H2  UNK A   0      -9.072  19.068  66.460  1.00  0.00     0.000 HD 
HETATM   11  C   UNK A   0     -10.382  14.930  66.992  1.00  0.00    -0.264 C  
HETATM   12  O   UNK A   0     -11.345  16.869  69.809  1.00  0.00     0.089 OA 
HETATM   13  C   UNK A   0     -10.862  15.095  68.255  1.00  0.00    -0.262 C  
HETATM   14  H1  UNK A   0      -8.892  17.932  65.101  1.00  0.00     0.000 HD 
HETATM   15  C   UNK A   0     -10.778  16.490  68.788  1.00  0.00    -0.339 C  
HETATM   16  N   UNK A   0      -9.826  15.940  66.246  1.00  0.00    -0.280 NA 
HETATM   17  N   UNK A   0      -9.176  18.137  66.059  1.00  0.00    -0.517 NA 
HETATM   18  N   UNK A   0     -10.073  17.382  68.041  1.00  0.00    -0.308 N  
ENDROOT
BRANCH   4  19
HETATM   19  C   UNK A   0     -12.186  11.536  68.988  1.00  0.00    -0.121 C  
BRANCH  19  20
HETATM   20  N   UNK A   0     -11.475  11.465  70.276  1.00  0.00    -0.503 NA 
HETATM   21  H   UNK A   0     -11.738  12.061  71.061  1.00  0.00     0.000 HD 
BRANCH  20  22
HETATM   22  C   UNK A   0     -10.425  10.546  70.376  1.00  0.00     0.198 A  
HETATM   23  C   UNK A   0      -9.573   8.500  71.389  1.00  0.00    -0.282 A  
HETATM   24  C   UNK A   0      -8.517   8.484  70.472  1.00  0.00    -0.143 A  
HETATM   25  C   UNK A   0      -9.293  10.577  69.552  1.00  0.00    -0.089 A  
HETATM   26  C   UNK A   0     -10.515   9.536  71.342  1.00  0.00    -0.258 A  
HETATM   27  C   UNK A   0      -8.349   9.553  69.589  1.00  0.00    -0.155 A  
BRANCH  24  28
HETATM   28  C   UNK A   0      -7.583   7.334  70.439  1.00  0.00    -0.088 C  
ATOM     29  H   GLU A   1      -7.107   7.730  68.436  1.00  0.00     0.000 HD 
ATOM     30  N   GLU A   1      -6.974   7.086  69.216  1.00  0.00    -0.071 N  
HETATM   31  O   UNK A   0      -7.401   6.641  71.432  1.00  0.00    -0.080 OA 
BRANCH  30  32
ATOM     32  CA  GLU A   1      -6.134   5.884  69.051  1.00  0.00    -0.031 C  
ATOM     33  C   GLU A   1      -6.547   5.145  67.764  1.00  0.00    -0.050 C  
ATOM     34  O   GLU A   1      -7.825   5.401  67.390  1.00  0.00    -0.099 OA 
ATOM     35  OXT GLU A   1      -5.867   4.290  67.213  1.00  0.00    -0.021 OA 
BRANCH  32  36
ATOM     36  CB  GLU A   1      -6.293   4.955  70.264  1.00  0.00    -0.026 C  
BRANCH  36  37
ATOM     37  CG  GLU A   1      -6.340   3.472  69.880  1.00  0.00    -0.028 C  
ATOM     38  CD  GLU A   1      -7.656   2.826  70.232  1.00  0.00    -0.043 C  
ATOM     39  OE2 GLU A   1      -8.592   3.389  70.776  1.00  0.00    -0.067 OA 
ATOM     40  OE1 GLU A   1      -7.699   1.525  69.865  1.00  0.00    -0.042 OA 
ENDBRANCH  36  37
ENDBRANCH  32  36
ENDBRANCH  30  32
ENDBRANCH  24  28
ENDBRANCH  20  22
ENDBRANCH  19  20
ENDBRANCH   4  19
TORSDOF 7
ENDMDL
MODEL      238
REMARK 921   NORMALIZED FREE ENERGY PREDICTED BY IDOCK:   -0.49 KCAL/MOL
REMARK 922        TOTAL FREE ENERGY PREDICTED BY IDOCK:   -1.96 KCAL/MOL
REMARK 923 INTER-LIGAND FREE ENERGY PREDICTED BY IDOCK:   -7.20 KCAL/MOL
REMARK 924 INTRA-LIGAND FREE ENERGY PREDICTED BY IDOCK:    5.24 KCAL/MOL
REMARK 927      BINDING AFFINITY PREDICTED BY RF-SCORE:    0.00 PKD
ROOT
HETATM    1  C   UNK A   0     -11.575  14.373  70.572  1.00  0.00    -0.209 C  
HETATM    2  N   UNK A   0     -11.459  14.480  69.193  1.00  0.00    -0.276 N  
HETATM    3  O   UNK A   0     -12.060  13.433  71.195  1.00  0.00    -0.247 OA 
HETATM    4  C   UNK A   0     -11.945  13.385  68.274  1.00  0.00    -0.317 C  
HETATM    5  C   UNK A   0     -10.891  13.159  67.166  1.00  0.00    -0.257 C  
HETATM    6  C   UNK A   0      -9.761  17.770  67.257  1.00  0.00    -0.285 C  
HETATM    7  H   UNK A   0      -9.738  18.725  69.072  1.00  0.00     0.000 HD 
HETATM    8  N   UNK A   0     -10.633  14.432  66.517  1.00  0.00    -0.292 NA 
HETATM    9  H   UNK A   0     -10.539  14.468  65.502  1.00  0.00     0.000 HD 
HETATM   10  H2  UNK A   0      -9.084  19.732  67.148  1.00  0.00     0.000 HD 
HETATM   11  C   UNK A   0     -10.512  15.600  67.253  1.00  0.00    -0.292 C  
HETATM   12  O   UNK A   0     -11.230  17.200  70.343  1.00  0.00     0.321 OA 
HETATM   13  C   UNK A   0     -10.909  15.621  68.555  1.00  0.00    -0.282 C  
HETATM   14  H1  UNK A   0      -9.029  18.769  65.651  1.00  0.00     0.000 HD 
HETATM   15  C   UNK A   0     -10.741  16.935  69.249  1.00  0.00    -0.288 C  
HETATM   16  N   UNK A   0      -9.966  16.678  66.602  1.00  0.00    -0.270 NA 
HETATM   17  N   UNK A   0      -9.247  18.861  66.644  1.00  0.00    -0.320 NA 
HETATM   18  N   UNK A   0     -10.049  17.891  68.572  1.00  0.00    -0.373 N  
ENDROOT
BRANCH   4  19
HETATM   19  C   UNK A   0     -12.317  12.038  68.931  1.00  0.00     0.241 C  
BRANCH  19  20
HETATM   20  N   UNK A   0     -11.917  11.988  70.347  1.00  0.00    -0.476 NA 
HETATM   21  H   UNK A   0     -11.867  12.833  70.916  1.00  0.00     0.000 HD 
BRANCH  20  22
HETATM   22  C   UNK A   0     -11.608  10.731  70.879  1.00  0.00    -0.137 A  
HETATM   23  C   UNK A   0     -12.297   8.871  72.295  1.00  0.00    -0.430 A  
HETATM   24  C   UNK A   0     -11.241   8.100  71.799  1.00  0.00    -0.329 A  
HETATM   25  C   UNK A   0     -10.487   9.985  70.492  1.00  0.00    -0.265 A  
HETATM   26  C   UNK A   0     -12.468  10.185  71.840  1.00  0.00    -0.374 A  
HETATM   27  C   UNK A   0     -10.305   8.678  70.938  1.00  0.00    -0.262 A  
BRANCH  24  28
HETATM   28  C   UNK A   0     -11.119   6.675  72.187  1.00  0.00    -0.254 C  
ATOM     29  H   GLU A   1     -10.046   7.196  73.911  1.00  0.00     0.000 HD 
ATOM     30  N   GLU A   1     -10.385   6.423  73.338  1.00  0.00    -0.229 N  
HETATM   31  O   UNK A   0     -11.616   5.791  71.501  1.00  0.00    -0.162 OA 
BRANCH  30  32
ATOM     32  CA  GLU A   1     -10.096   5.030  73.727  1.00  0.00    -0.187 C  
ATOM     33  C   GLU A   1      -8.571   4.820  73.785  1.00  0.00    -0.103 C  
ATOM     34  O   GLU A   1      -7.885   5.692  73.004  1.00  0.00    -0.100 OA 
ATOM     35  OXT GLU A   1      -8.026   3.876  74.340  1.00  0.00    -0.086 OA 
BRANCH  32  36
ATOM     36  CB  GLU A   1     -10.722   4.055  72.717  1.00  0.00    -0.179 C  
BRANCH  36  37
ATOM     37  CG  GLU A   1      -9.805   2.877  72.375  1.00  0.00    -0.228 C  
ATOM     38  CD  GLU A   1      -9.052   3.085  71.086  1.00  0.00    -0.112 C  
ATOM     39  OE2 GLU A   1      -9.151   4.065  70.365  1.00  0.00    -0.093 OA 
ATOM     40  OE1 GLU A   1      -8.224   2.052  70.807  1.00  0.00    -0.048 OA 
ENDBRANCH  36  37
ENDBRANCH  32  36
ENDBRANCH  30  32
ENDBRANCH  24  28
ENDBRANCH  20  22
ENDBRANCH  19  20
ENDBRANCH   4  19
TORSDOF 7
ENDMDL
MODEL      239
REMARK 921   NORMALIZED FREE ENERGY PREDICTED BY IDOCK:   -0.41 KCAL/MOL
REMARK 922        TOTAL FREE ENERGY PREDICTED BY IDOCK:   -1.85 KCAL/MOL
REMARK 923 INTER-LIGAND FREE ENERGY PREDICTED BY IDOCK:   -2.83 KCAL/MOL
REMARK 924 INTRA-LIGAND FREE ENERGY PREDICTED BY IDOCK:    0.98 KCAL/MOL
REMARK 927      BINDING AFFINITY PREDICTED BY RF-SCORE:    0.00 PKD
ROOT
HETATM    1  C   UNK A   0     -10.758  13.524  64.150  1.00  0.00    -0.199 C  
HETATM    2  N   UNK A   0      -9.952  14.110  65.116  1.00  0.00    -0.577 N  
HETATM    3  O   UNK A   0     -10.596  12.423  63.631  1.00  0.00    -0.424 OA 
HETATM    4  C   UNK A   0      -8.729  13.408  65.654  1.00  0.00     1.416 C  
HETATM    5  C   UNK A   0      -8.684  13.590  67.189  1.00  0.00    -0.215 C  
HETATM    6  C   UNK A   0     -10.682  17.877  66.769  1.00  0.00    -0.149 C  
HETATM    7  H   UNK A   0     -12.137  18.130  65.347  1.00  0.00     0.000 HD 
HETATM    8  N   UNK A   0      -8.750  15.011  67.480  1.00  0.00    -0.175 NA 
HETATM    9  H   UNK A   0      -8.152  15.403  68.207  1.00  0.00     0.000 HD 
HETATM   10  H2  UNK A   0     -11.573  19.753  66.826  1.00  0.00     0.000 HD 
HETATM   11  C   UNK A   0      -9.612  15.845  66.785  1.00  0.00    -0.236 C  
HETATM   12  O   UNK A   0     -11.549  16.251  63.835  1.00  0.00    -0.987 OA 
HETATM   13  C   UNK A   0     -10.200  15.404  65.640  1.00  0.00    -0.376 C  
HETATM   14  H1  UNK A   0     -10.382  19.380  68.096  1.00  0.00     0.000 HD 
HETATM   15  C   UNK A   0     -11.104  16.390  64.970  1.00  0.00    -0.208 C  
HETATM   16  N   UNK A   0      -9.833  17.085  67.331  1.00  0.00    -0.256 NA 
HETATM   17  N   UNK A   0     -10.909  19.115  67.264  1.00  0.00    -0.480 NA 
HETATM   18  N   UNK A   0     -11.381  17.526  65.666  1.00  0.00     0.731 N  
ENDROOT
BRANCH   4  19
HETATM   19  C   UNK A   0      -8.569  11.914  65.295  1.00  0.00     0.695 C  
BRANCH  19  20
HETATM   20  N   UNK A   0      -7.184  11.450  65.479  1.00  0.00    -0.066 NA 
HETATM   21  H   UNK A   0      -6.388  12.041  65.238  1.00  0.00     0.000 HD 
BRANCH  20  22
HETATM   22  C   UNK A   0      -7.006  10.162  65.997  1.00  0.00    -0.117 A  
HETATM   23  C   UNK A   0      -7.501   8.577  67.782  1.00  0.00    -0.097 A  
HETATM   24  C   UNK A   0      -6.958   7.542  67.014  1.00  0.00    -0.083 A  
HETATM   25  C   UNK A   0      -6.357   9.134  65.302  1.00  0.00    -0.064 A  
HETATM   26  C   UNK A   0      -7.512   9.883  67.273  1.00  0.00    -0.087 A  
HETATM   27  C   UNK A   0      -6.338   7.832  65.797  1.00  0.00    -0.042 A  
BRANCH  24  28
HETATM   28  C   UNK A   0      -7.046   6.142  67.493  1.00  0.00    -0.074 C  
ATOM     29  H   GLU A   1      -6.132   5.446  65.739  1.00  0.00     0.000 HD 
ATOM     30  N   GLU A   1      -6.585   5.173  66.611  1.00  0.00    -0.048 N  
HETATM   31  O   UNK A   0      -7.528   5.879  68.587  1.00  0.00    -0.082 OA 
BRANCH  30  32
ATOM     32  CA  GLU A   1      -6.755   3.746  66.945  1.00  0.00    -0.046 C  
ATOM     33  C   GLU A   1      -7.952   3.177  66.160  1.00  0.00    -0.085 C  
ATOM     34  O   GLU A   1      -8.852   4.126  65.802  1.00  0.00    -0.117 OA 
ATOM     35  OXT GLU A   1      -8.168   1.983  66.004  1.00  0.00    -0.082 OA 
BRANCH  32  36
ATOM     36  CB  GLU A   1      -6.989   3.577  68.454  1.00  0.00    -0.050 C  
BRANCH  36  37
ATOM     37  CG  GLU A   1      -7.835   2.346  68.794  1.00  0.00    -0.058 C  
ATOM     38  CD  GLU A   1      -9.243   2.705  69.195  1.00  0.00    -0.142 C  
ATOM     39  OE2 GLU A   1      -9.685   3.841  69.265  1.00  0.00    -0.176 OA 
ATOM     40  OE1 GLU A   1      -9.990   1.611  69.467  1.00  0.00     0.131 OA 
ENDBRANCH  36  37
ENDBRANCH  32  36
ENDBRANCH  30  32
ENDBRANCH  24  28
ENDBRANCH  20  22
ENDBRANCH  19  20
ENDBRANCH   4  19
TORSDOF 7
ENDMDL
MODEL      240
REMARK 921   NORMALIZED FREE ENERGY PREDICTED BY IDOCK:   -0.39 KCAL/MOL
REMARK 922        TOTAL FREE ENERGY PREDICTED BY IDOCK:   -1.81 KCAL/MOL
REMARK 923 INTER-LIGAND FREE ENERGY PREDICTED BY IDOCK:   -6.88 KCAL/MOL
REMARK 924 INTRA-LIGAND FREE ENERGY PREDICTED BY IDOCK:    5.06 KCAL/MOL
REMARK 927      BINDING AFFINITY PREDICTED BY RF-SCORE:    0.00 PKD
ROOT
HETATM    1  C   UNK A   0     -10.983  14.706  67.122  1.00  0.00    -0.316 C  
HETATM    2  N   UNK A   0     -11.359  13.386  66.917  1.00  0.00    -0.311 N  
HETATM    3  O   UNK A   0     -11.238  15.397  68.104  1.00  0.00    -0.298 OA 
HETATM    4  C   UNK A   0     -12.165  12.628  67.944  1.00  0.00     0.115 C  
HETATM    5  C   UNK A   0     -11.576  11.206  68.090  1.00  0.00    -0.280 C  
HETATM    6  C   UNK A   0     -10.378  11.200  63.495  1.00  0.00    -0.387 C  
HETATM    7  H   UNK A   0      -9.692  12.949  62.672  1.00  0.00     0.000 HD 
HETATM    8  N   UNK A   0     -11.535  10.595  66.773  1.00  0.00    -0.076 NA 
HETATM    9  H   UNK A   0     -11.805   9.617  66.665  1.00  0.00     0.000 HD 
HETATM   10  H2  UNK A   0      -9.737  10.991  61.529  1.00  0.00     0.000 HD 
HETATM   11  C   UNK A   0     -11.134  11.317  65.660  1.00  0.00    -0.072 C  
HETATM   12  O   UNK A   0     -10.674  14.560  64.285  1.00  0.00    -0.120 OA 
HETATM   13  C   UNK A   0     -11.044  12.673  65.733  1.00  0.00    -0.297 C  
HETATM   14  H1  UNK A   0     -10.238   9.510  62.383  1.00  0.00     0.000 HD 
HETATM   15  C   UNK A   0     -10.609  13.349  64.471  1.00  0.00    -0.425 C  
HETATM   16  N   UNK A   0     -10.827  10.588  64.538  1.00  0.00    -0.023 NA 
HETATM   17  N   UNK A   0     -10.088  10.519  62.362  1.00  0.00    -0.746 NA 
HETATM   18  N   UNK A   0     -10.179  12.537  63.468  1.00  0.00    -0.462 N  
ENDROOT
BRANCH   4  19
HETATM   19  C   UNK A   0     -12.312  13.283  69.335  1.00  0.00    -0.037 C  
BRANCH  19  20
HETATM   20  N   UNK A   0     -13.000  12.398  70.290  1.00  0.00     0.377 NA 
HETATM   21  H   UNK A   0     -13.949  12.594  70.608  1.00  0.00     0.000 HD 
BRANCH  20  22
HETATM   22  C   UNK A   0     -12.297  11.276  70.741  1.00  0.00    -0.398 A  
HETATM   23  C   UNK A   0     -12.370   9.127  71.890  1.00  0.00    -0.455 A  
HETATM   24  C   UNK A   0     -11.068   8.851  71.461  1.00  0.00    -0.397 A  
HETATM   25  C   UNK A   0     -10.953  11.031  70.429  1.00  0.00     0.193 A  
HETATM   26  C   UNK A   0     -12.973  10.342  71.537  1.00  0.00    -0.562 A  
HETATM   27  C   UNK A   0     -10.342   9.828  70.776  1.00  0.00    -0.298 A  
BRANCH  24  28
HETATM   28  C   UNK A   0     -10.465   7.525  71.732  1.00  0.00    -0.193 C  
ATOM     29  H   GLU A   1      -8.835   7.971  70.490  1.00  0.00     0.000 HD 
ATOM     30  N   GLU A   1      -9.284   7.250  71.054  1.00  0.00    -0.154 N  
HETATM   31  O   UNK A   0     -11.010   6.727  72.483  1.00  0.00    -0.229 OA 
BRANCH  30  32
ATOM     32  CA  GLU A   1      -8.683   5.906  71.156  1.00  0.00    -0.132 C  
ATOM     33  C   GLU A   1      -9.557   4.896  70.389  1.00  0.00    -0.190 C  
ATOM     34  O   GLU A   1     -10.849   5.292  70.272  1.00  0.00    -0.225 OA 
ATOM     35  OXT GLU A   1      -9.186   3.779  70.054  1.00  0.00    -0.116 OA 
BRANCH  32  36
ATOM     36  CB  GLU A   1      -8.567   5.486  72.630  1.00  0.00    -0.124 C  
BRANCH  36  37
ATOM     37  CG  GLU A   1      -7.727   6.458  73.465  1.00  0.00    -0.093 C  
ATOM     38  CD  GLU A   1      -6.535   6.989  72.709  1.00  0.00    -0.057 C  
ATOM     39  OE2 GLU A   1      -6.237   6.686  71.565  1.00  0.00    -0.040 OA 
ATOM     40  OE1 GLU A   1      -5.816   7.867  73.444  1.00  0.00    -0.051 OA 
ENDBRANCH  36  37
ENDBRANCH  32  36
ENDBRANCH  30  32
ENDBRANCH  24  28
ENDBRANCH  20  22
ENDBRANCH  19  20
ENDBRANCH   4  19
TORSDOF 7
ENDMDL
MODEL      241
REMARK 921   NORMALIZED FREE ENERGY PREDICTED BY IDOCK:   -0.25 KCAL/MOL
REMARK 922        TOTAL FREE ENERGY PREDICTED BY IDOCK:   -1.61 KCAL/MOL
REMARK 923 INTER-LIGAND FREE ENERGY PREDICTED BY IDOCK:   -4.02 KCAL/MOL
REMARK 924 INTRA-LIGAND FREE ENERGY PREDICTED BY IDOCK:    2.40 KCAL/MOL
REMARK 927      BINDING AFFINITY PREDICTED BY RF-SCORE:    0.00 PKD
ROOT
HETATM    1  C   UNK A   0     -10.914  13.844  68.968  1.00  0.00    -0.250 C  
HETATM    2  N   UNK A   0     -11.364  12.882  68.075  1.00  0.00    -0.272 N  
HETATM    3  O   UNK A   0     -10.884  13.750  70.192  1.00  0.00     0.272 OA 
HETATM    4  C   UNK A   0     -11.890  11.549  68.551  1.00  0.00    -0.297 C  
HETATM    5  C   UNK A   0     -11.318  10.435  67.643  1.00  0.00    -0.082 C  
HETATM    6  C   UNK A   0     -11.376  13.393  63.929  1.00  0.00    -0.260 C  
HETATM    7  H   UNK A   0     -10.887  15.359  64.250  1.00  0.00     0.000 HD 
HETATM    8  N   UNK A   0     -11.641  10.763  66.265  1.00  0.00     0.275 NA 
HETATM    9  H   UNK A   0     -11.955  10.025  65.634  1.00  0.00     0.000 HD 
HETATM   10  H2  UNK A   0     -11.281  14.516  62.183  1.00  0.00     0.000 HD 
HETATM   11  C   UNK A   0     -11.530  12.061  65.792  1.00  0.00    -0.320 C  
HETATM   12  O   UNK A   0     -11.368  15.496  66.682  1.00  0.00    -0.197 OA 
HETATM   13  C   UNK A   0     -11.390  13.089  66.673  1.00  0.00    -0.325 C  
HETATM   14  H1  UNK A   0     -11.576  12.768  62.010  1.00  0.00     0.000 HD 
HETATM   15  C   UNK A   0     -11.287  14.446  66.052  1.00  0.00    -0.335 C  
HETATM   16  N   UNK A   0     -11.549  12.217  64.429  1.00  0.00    -0.345 NA 
HETATM   17  N   UNK A   0     -11.412  13.591  62.591  1.00  0.00     0.722 NA 
HETATM   18  N   UNK A   0     -11.157  14.483  64.698  1.00  0.00    -0.550 N  
ENDROOT
BRANCH   4  19
HETATM   19  C   UNK A   0     -11.648  11.195  70.034  1.00  0.00    -0.338 C  
BRANCH  19  20
HETATM   20  N   UNK A   0     -10.248  10.818  70.289  1.00  0.00    -0.189 NA 
HETATM   21  H   UNK A   0      -9.747  11.157  71.111  1.00  0.00     0.000 HD 
BRANCH  20  22
HETATM   22  C   UNK A   0      -9.633   9.977  69.356  1.00  0.00    -0.222 A  
HETATM   23  C   UNK A   0      -7.844   9.670  67.728  1.00  0.00    -0.094 A  
HETATM   24  C   UNK A   0      -8.140   8.305  67.659  1.00  0.00    -0.126 A  
HETATM   25  C   UNK A   0      -9.989   8.634  69.176  1.00  0.00    -0.193 A  
HETATM   26  C   UNK A   0      -8.599  10.500  68.569  1.00  0.00    -0.135 A  
HETATM   27  C   UNK A   0      -9.248   7.799  68.343  1.00  0.00    -0.137 A  
BRANCH  24  28
HETATM   28  C   UNK A   0      -7.276   7.400  66.864  1.00  0.00    -0.088 C  
ATOM     29  H   GLU A   1      -7.304   8.735  65.247  1.00  0.00     0.000 HD 
ATOM     30  N   GLU A   1      -6.999   7.816  65.568  1.00  0.00    -0.052 N  
HETATM   31  O   UNK A   0      -6.873   6.343  67.330  1.00  0.00    -0.065 OA 
BRANCH  30  32
ATOM     32  CA  GLU A   1      -6.261   6.919  64.658  1.00  0.00    -0.036 C  
ATOM     33  C   GLU A   1      -6.101   7.602  63.286  1.00  0.00    -0.055 C  
ATOM     34  O   GLU A   1      -7.053   8.538  63.044  1.00  0.00    -0.090 OA 
ATOM     35  OXT GLU A   1      -5.307   7.243  62.427  1.00  0.00    -0.036 OA 
BRANCH  32  36
ATOM     36  CB  GLU A   1      -7.014   5.589  64.497  1.00  0.00    -0.049 C  
BRANCH  36  37
ATOM     37  CG  GLU A   1      -6.088   4.415  64.163  1.00  0.00    -0.018 C  
ATOM     38  CD  GLU A   1      -6.843   3.205  63.673  1.00  0.00    -0.039 C  
ATOM     39  OE2 GLU A   1      -8.056   3.133  63.558  1.00  0.00    -0.082 OA 
ATOM     40  OE1 GLU A   1      -6.016   2.183  63.354  1.00  0.00    -0.009 OA 
ENDBRANCH  36  37
ENDBRANCH  32  36
ENDBRANCH  30  32
ENDBRANCH  24  28
ENDBRANCH  20  22
ENDBRANCH  19  20
ENDBRANCH   4  19
TORSDOF 7
ENDMDL
MODEL      242
REMARK 921   NORMALIZED FREE ENERGY PREDICTED BY IDOCK:   -0.10 KCAL/MOL
REMARK 922        TOTAL FREE ENERGY PREDICTED BY IDOCK:   -1.40 KCAL/MOL
REMARK 923 INTER-LIGAND FREE ENERGY PREDICTED BY IDOCK:   -3.52 KCAL/MOL
REMARK 924 INTRA-LIGAND FREE ENERGY PREDICTED BY IDOCK:    2.12 KCAL/MOL
REMARK 927      BINDING AFFINITY PREDICTED BY RF-SCORE:    0.00 PKD
ROOT
HETATM    1  C   UNK A   0     -12.396   7.307  70.549  1.00  0.00    -0.013 C  
HETATM    2  N   UNK A   0     -11.119   7.850  70.565  1.00  0.00    -0.257 N  
HETATM    3  O   UNK A   0     -13.377   7.724  71.158  1.00  0.00    -0.215 OA 
HETATM    4  C   UNK A   0     -10.795   9.079  71.381  1.00  0.00    -0.330 C  
HETATM    5  C   UNK A   0      -9.913  10.023  70.532  1.00  0.00     0.029 C  
HETATM    6  C   UNK A   0      -7.905   6.282  68.405  1.00  0.00    -0.105 C  
HETATM    7  H   UNK A   0      -9.090   4.665  67.971  1.00  0.00     0.000 HD 
HETATM    8  N   UNK A   0      -8.757   9.273  70.072  1.00  0.00    -0.176 NA 
HETATM    9  H   UNK A   0      -7.836   9.711  70.085  1.00  0.00     0.000 HD 
HETATM   10  H2  UNK A   0      -6.920   4.804  67.327  1.00  0.00     0.000 HD 
HETATM   11  C   UNK A   0      -8.884   7.971  69.615  1.00  0.00    -0.141 C  
HETATM   12  O   UNK A   0     -10.911   5.053  69.613  1.00  0.00     0.003 OA 
HETATM   13  C   UNK A   0     -10.034   7.282  69.850  1.00  0.00    -0.183 C  
HETATM   14  H1  UNK A   0      -6.022   6.307  67.653  1.00  0.00     0.000 HD 
HETATM   15  C   UNK A   0     -10.057   5.884  69.319  1.00  0.00    -0.194 C  
HETATM   16  N   UNK A   0      -7.816   7.462  68.918  1.00  0.00    -0.115 NA 
HETATM   17  N   UNK A   0      -6.865   5.737  67.733  1.00  0.00    -0.059 NA 
HETATM   18  N   UNK A   0      -9.022   5.527  68.512  1.00  0.00    -0.110 N  
ENDROOT
BRANCH   4  19
HETATM   19  C   UNK A   0     -11.991   9.860  71.967  1.00  0.00     0.068 C  
BRANCH  19  20
HETATM   20  N   UNK A   0     -12.814  10.478  70.913  1.00  0.00    -0.385 NA 
HETATM   21  H   UNK A   0     -13.814  10.629  71.040  1.00  0.00     0.000 HD 
BRANCH  20  22
HETATM   22  C   UNK A   0     -12.163  10.851  69.732  1.00  0.00    -0.311 A  
HETATM   23  C   UNK A   0     -10.700  12.440  68.603  1.00  0.00    -0.260 A  
HETATM   24  C   UNK A   0     -10.589  11.567  67.516  1.00  0.00    -0.243 A  
HETATM   25  C   UNK A   0     -12.137  10.052  68.582  1.00  0.00     0.984 A  
HETATM   26  C   UNK A   0     -11.495  12.081  69.700  1.00  0.00    -0.322 A  
HETATM   27  C   UNK A   0     -11.352  10.398  67.484  1.00  0.00    -0.112 A  
BRANCH  24  28
HETATM   28  C   UNK A   0      -9.662  11.884  66.403  1.00  0.00    -0.221 C  
ATOM     29  H   GLU A   1      -9.522   9.856  65.892  1.00  0.00     0.000 HD 
ATOM     30  N   GLU A   1      -9.172  10.794  65.697  1.00  0.00    -0.191 N  
HETATM   31  O   UNK A   0      -9.338  13.040  66.164  1.00  0.00    -0.198 OA 
BRANCH  30  32
ATOM     32  CA  GLU A   1      -8.141  11.001  64.662  1.00  0.00     0.366 C  
ATOM     33  C   GLU A   1      -8.823  11.307  63.315  1.00  0.00    -0.002 C  
ATOM     34  O   GLU A   1     -10.086  10.817  63.235  1.00  0.00    -0.325 OA 
ATOM     35  OXT GLU A   1      -8.253  11.795  62.349  1.00  0.00    -0.045 OA 
BRANCH  32  36
ATOM     36  CB  GLU A   1      -7.260   9.749  64.531  1.00  0.00    -0.128 C  
BRANCH  36  37
ATOM     37  CG  GLU A   1      -7.910   8.494  65.123  1.00  0.00    -0.116 C  
ATOM     38  CD  GLU A   1      -7.328   7.222  64.561  1.00  0.00    -0.080 C  
ATOM     39  OE2 GLU A   1      -6.448   7.165  63.717  1.00  0.00    -0.043 OA 
ATOM     40  OE1 GLU A   1      -7.889   6.120  65.109  1.00  0.00    -0.094 OA 
ENDBRANCH  36  37
ENDBRANCH  32  36
ENDBRANCH  30  32
ENDBRANCH  24  28
ENDBRANCH  20  22
ENDBRANCH  19  20
ENDBRANCH   4  19
TORSDOF 7
ENDMDL
MODEL      243
REMARK 921   NORMALIZED FREE ENERGY PREDICTED BY IDOCK:    0.02 KCAL/MOL
REMARK 922        TOTAL FREE ENERGY PREDICTED BY IDOCK:   -1.25 KCAL/MOL
REMARK 923 INTER-LIGAND FREE ENERGY PREDICTED BY IDOCK:   -2.63 KCAL/MOL
REMARK 924 INTRA-LIGAND FREE ENERGY PREDICTED BY IDOCK:    1.38 KCAL/MOL
REMARK 927      BINDING AFFINITY PREDICTED BY RF-SCORE:    0.00 PKD
ROOT
HETATM    1  C   UNK A   0     -12.228  16.212  66.867  1.00  0.00     1.798 C  
HETATM    2  N   UNK A   0     -11.283  15.226  66.617  1.00  0.00    -0.282 N  
HETATM    3  O   UNK A   0     -12.143  17.113  67.696  1.00  0.00     1.268 OA 
HETATM    4  C   UNK A   0      -9.985  15.166  67.384  1.00  0.00    -0.226 C  
HETATM    5  C   UNK A   0      -8.834  14.871  66.395  1.00  0.00    -0.161 C  
HETATM    6  C   UNK A   0     -11.756  12.241  63.732  1.00  0.00    -0.478 C  
HETATM    7  H   UNK A   0     -13.696  12.871  63.514  1.00  0.00     0.000 HD 
HETATM    8  N   UNK A   0      -9.166  13.663  65.659  1.00  0.00    -0.306 NA 
HETATM    9  H   UNK A   0      -8.440  12.969  65.482  1.00  0.00     0.000 HD 
HETATM   10  H2  UNK A   0     -12.856  11.081  62.405  1.00  0.00     0.000 HD 
HETATM   11  C   UNK A   0     -10.451  13.439  65.193  1.00  0.00    -0.347 C  
HETATM   12  O   UNK A   0     -13.881  14.298  65.537  1.00  0.00    -0.059 OA 
HETATM   13  C   UNK A   0     -11.479  14.203  65.655  1.00  0.00    -0.325 C  
HETATM   14  H1  UNK A   0     -11.125  10.699  62.577  1.00  0.00     0.000 HD 
HETATM   15  C   UNK A   0     -12.822  13.867  65.090  1.00  0.00    -0.342 C  
HETATM   16  N   UNK A   0     -10.595  12.446  64.256  1.00  0.00    -0.336 NA 
HETATM   17  N   UNK A   0     -11.943  11.256  62.823  1.00  0.00    -0.440 NA 
HETATM   18  N   UNK A   0     -12.840  12.981  64.058  1.00  0.00    -0.635 N  
ENDROOT
BRANCH   4  19
HETATM   19  C   UNK A   0      -9.632  16.393  68.253  1.00  0.00    -0.221 C  
BRANCH  19  20
HETATM   20  N   UNK A   0     -10.514  16.509  69.426  1.00  0.00    -0.312 NA 
HETATM   21  H   UNK A   0     -10.824  17.417  69.771  1.00  0.00     0.000 HD 
BRANCH  20  22
HETATM   22  C   UNK A   0     -10.910  15.319  70.047  1.00  0.00    -0.286 A  
HETATM   23  C   UNK A   0     -12.322  14.242  71.717  1.00  0.00    -0.362 A  
HETATM   24  C   UNK A   0     -11.994  12.990  71.189  1.00  0.00     0.282 A  
HETATM   25  C   UNK A   0     -10.500  14.051  69.616  1.00  0.00     0.245 A  
HETATM   26  C   UNK A   0     -11.770  15.399  71.150  1.00  0.00    -0.418 A  
HETATM   27  C   UNK A   0     -11.040  12.894  70.173  1.00  0.00     0.583 A  
BRANCH  24  28
HETATM   28  C   UNK A   0     -12.660  11.771  71.706  1.00  0.00    -0.069 C  
ATOM     29  H   GLU A   1     -11.111  10.566  70.966  1.00  0.00     0.000 HD 
ATOM     30  N   GLU A   1     -12.025  10.569  71.420  1.00  0.00    -0.292 N  
HETATM   31  O   UNK A   0     -13.719  11.842  72.316  1.00  0.00    -0.221 OA 
BRANCH  30  32
ATOM     32  CA  GLU A   1     -12.681   9.297  71.777  1.00  0.00    -0.381 C  
ATOM     33  C   GLU A   1     -11.727   8.457  72.647  1.00  0.00    -0.294 C  
ATOM     34  O   GLU A   1     -10.421   8.767  72.457  1.00  0.00    -0.255 OA 
ATOM     35  OXT GLU A   1     -12.077   7.499  73.324  1.00  0.00     0.280 OA 
BRANCH  32  36
ATOM     36  CB  GLU A   1     -13.055   8.517  70.507  1.00  0.00     0.816 C  
BRANCH  36  37
ATOM     37  CG  GLU A   1     -12.524   7.080  70.508  1.00  0.00    -0.085 C  
ATOM     38  CD  GLU A   1     -11.268   6.927  69.689  1.00  0.00    -0.242 C  
ATOM     39  OE2 GLU A   1     -10.718   7.825  69.071  1.00  0.00    -0.195 OA 
ATOM     40  OE1 GLU A   1     -10.792   5.661  69.719  1.00  0.00    -0.336 OA 
ENDBRANCH  36  37
ENDBRANCH  32  36
ENDBRANCH  30  32
ENDBRANCH  24  28
ENDBRANCH  20  22
ENDBRANCH  19  20
ENDBRANCH   4  19
TORSDOF 7
ENDMDL
MODEL      244
REMARK 921   NORMALIZED FREE ENERGY PREDICTED BY IDOCK:    0.30 KCAL/MOL
REMARK 922        TOTAL FREE ENERGY PREDICTED BY IDOCK:   -0.84 KCAL/MOL
REMARK 923 INTER-LIGAND FREE ENERGY PREDICTED BY IDOCK:   -3.86 KCAL/MOL
REMARK 924 INTRA-LIGAND FREE ENERGY PREDICTED BY IDOCK:    3.01 KCAL/MOL
REMARK 927      BINDING AFFINITY PREDICTED BY RF-SCORE:    0.00 PKD
ROOT
HETATM    1  C   UNK A   0      -8.073  19.207  69.254  1.00  0.00    -0.026 C  
HETATM    2  N   UNK A   0      -7.688  18.401  68.192  1.00  0.00    -0.281 N  
HETATM    3  O   UNK A   0      -8.621  20.303  69.181  1.00  0.00     0.311 OA 
HETATM    4  C   UNK A   0      -7.922  18.819  66.760  1.00  0.00    -0.255 C  
HETATM    5  C   UNK A   0      -8.446  17.602  65.964  1.00  0.00    -0.043 C  
HETATM    6  C   UNK A   0      -5.837  14.684  68.652  1.00  0.00    -0.090 C  
HETATM    7  H   UNK A   0      -5.659  15.110  70.651  1.00  0.00     0.000 HD 
HETATM    8  N   UNK A   0      -7.505  16.509  66.135  1.00  0.00    -0.055 NA 
HETATM    9  H   UNK A   0      -7.259  15.929  65.333  1.00  0.00     0.000 HD 
HETATM   10  H2  UNK A   0      -4.810  13.225  69.719  1.00  0.00     0.000 HD 
HETATM   11  C   UNK A   0      -6.937  16.239  67.370  1.00  0.00    -0.174 C  
HETATM   12  O   UNK A   0      -6.176  17.538  70.588  1.00  0.00     0.342 OA 
HETATM   13  C   UNK A   0      -7.031  17.157  68.370  1.00  0.00    -0.195 C  
HETATM   14  H1  UNK A   0      -5.131  12.900  67.997  1.00  0.00     0.000 HD 
HETATM   15  C   UNK A   0      -6.375  16.765  69.656  1.00  0.00    -0.217 C  
HETATM   16  N   UNK A   0      -6.320  15.020  67.505  1.00  0.00    -0.306 NA 
HETATM   17  N   UNK A   0      -5.201  13.502  68.818  1.00  0.00    -0.071 NA 
HETATM   18  N   UNK A   0      -5.930  15.482  69.741  1.00  0.00    -0.137 N  
ENDROOT
BRANCH   4  19
HETATM   19  C   UNK A   0      -8.847  20.035  66.533  1.00  0.00    -0.337 C  
BRANCH  19  20
HETATM   20  N   UNK A   0     -10.262  19.641  66.442  1.00  0.00    -0.447 NA 
HETATM   21  H   UNK A   0     -10.975  20.290  66.109  1.00  0.00     0.000 HD 
BRANCH  20  22
HETATM   22  C   UNK A   0     -10.588  18.337  66.831  1.00  0.00    -0.329 A  
HETATM   23  C   UNK A   0     -11.117  16.058  66.146  1.00  0.00     0.027 A  
HETATM   24  C   UNK A   0     -10.979  15.627  67.469  1.00  0.00    -0.309 A  
HETATM   25  C   UNK A   0     -10.577  17.904  68.163  1.00  0.00    -0.351 A  
HETATM   26  C   UNK A   0     -10.932  17.412  65.836  1.00  0.00     0.184 A  
HETATM   27  C   UNK A   0     -10.762  16.561  68.484  1.00  0.00    -0.336 A  
BRANCH  24  28
HETATM   28  C   UNK A   0     -11.060  14.182  67.789  1.00  0.00    -0.276 C  
ATOM     29  H   GLU A   1      -9.453  13.770  66.505  1.00  0.00     0.000 HD 
ATOM     30  N   GLU A   1     -10.169  13.362  67.107  1.00  0.00    -0.245 N  
HETATM   31  O   UNK A   0     -11.890  13.758  68.582  1.00  0.00    -0.337 OA 
BRANCH  30  32
ATOM     32  CA  GLU A   1     -10.266  11.898  67.258  1.00  0.00    -0.200 C  
ATOM     33  C   GLU A   1      -8.894  11.335  67.673  1.00  0.00    -0.138 C  
ATOM     34  O   GLU A   1      -7.859  12.130  67.302  1.00  0.00    -0.160 OA 
ATOM     35  OXT GLU A   1      -8.721  10.219  68.143  1.00  0.00    -0.121 OA 
BRANCH  32  36
ATOM     36  CB  GLU A   1     -10.719  11.256  65.938  1.00  0.00    -0.291 C  
BRANCH  36  37
ATOM     37  CG  GLU A   1     -12.226  11.386  65.695  1.00  0.00     1.472 C  
ATOM     38  CD  GLU A   1     -12.555  12.420  64.648  1.00  0.00    -0.375 C  
ATOM     39  OE2 GLU A   1     -11.737  13.103  64.053  1.00  0.00    -0.390 OA 
ATOM     40  OE1 GLU A   1     -13.886  12.508  64.420  1.00  0.00     0.296 OA 
ENDBRANCH  36  37
ENDBRANCH  32  36
ENDBRANCH  30  32
ENDBRANCH  24  28
ENDBRANCH  20  22
ENDBRANCH  19  20
ENDBRANCH   4  19
TORSDOF 7
ENDMDL
MODEL      245
REMARK 921   NORMALIZED FREE ENERGY PREDICTED BY IDOCK:    1.79 KCAL/MOL
REMARK 922        TOTAL FREE ENERGY PREDICTED BY IDOCK:    1.25 KCAL/MOL
REMARK 923 INTER-LIGAND FREE ENERGY PREDICTED BY IDOCK:    0.78 KCAL/MOL
REMARK 924 INTRA-LIGAND FREE ENERGY PREDICTED BY IDOCK:    0.47 KCAL/MOL
REMARK 927      BINDING AFFINITY PREDICTED BY RF-SCORE:    0.00 PKD
ROOT
HETATM    1  C   UNK A   0      -7.013   7.699  66.903  1.00  0.00    -0.079 C  
HETATM    2  N   UNK A   0      -7.074   8.369  68.117  1.00  0.00    -0.084 N  
HETATM    3  O   UNK A   0      -7.258   8.167  65.795  1.00  0.00    -0.066 OA 
HETATM    4  C   UNK A   0      -7.470   9.824  68.194  1.00  0.00    -0.081 C  
HETATM    5  C   UNK A   0      -6.525  10.545  69.183  1.00  0.00    -0.054 C  
HETATM    6  C   UNK A   0      -6.190   6.593  71.793  1.00  0.00    -0.042 C  
HETATM    7  H   UNK A   0      -6.122   4.791  70.816  1.00  0.00     0.000 HD 
HETATM    8  N   UNK A   0      -6.563   9.833  70.448  1.00  0.00    -0.100 NA 
HETATM    9  H   UNK A   0      -6.593  10.362  71.320  1.00  0.00     0.000 HD 
HETATM   10  H2  UNK A   0      -5.872   4.978  73.062  1.00  0.00     0.000 HD 
HETATM   11  C   UNK A   0      -6.558   8.448  70.492  1.00  0.00    -0.036 C  
HETATM   12  O   UNK A   0      -7.180   5.461  68.672  1.00  0.00    -0.064 OA 
HETATM   13  C   UNK A   0      -6.802   7.738  69.357  1.00  0.00    -0.044 C  
HETATM   14  H1  UNK A   0      -5.825   6.604  73.788  1.00  0.00     0.000 HD 
HETATM   15  C   UNK A   0      -6.780   6.251  69.522  1.00  0.00    -0.056 C  
HETATM   16  N   UNK A   0      -6.280   7.877  71.708  1.00  0.00    -0.039 NA 
HETATM   17  N   UNK A   0      -5.941   5.992  72.980  1.00  0.00    -0.044 NA 
HETATM   18  N   UNK A   0      -6.342   5.783  70.722  1.00  0.00    -0.034 N  
ENDROOT
BRANCH   4  19
HETATM   19  C   UNK A   0      -7.531  10.601  66.861  1.00  0.00    -0.115 C  
BRANCH  19  20
HETATM   20  N   UNK A   0      -8.916  10.893  66.457  1.00  0.00    -0.163 NA 
HETATM   21  H   UNK A   0      -9.510  10.177  66.038  1.00  0.00     0.000 HD 
BRANCH  20  22
HETATM   22  C   UNK A   0      -9.383  12.194  66.672  1.00  0.00    -0.226 A  
HETATM   23  C   UNK A   0     -10.666  13.711  68.084  1.00  0.00    -0.260 A  
HETATM   24  C   UNK A   0     -10.160  14.804  67.372  1.00  0.00    -0.231 A  
HETATM   25  C   UNK A   0      -8.990  13.292  65.897  1.00  0.00     0.474 A  
HETATM   26  C   UNK A   0     -10.282  12.413  67.723  1.00  0.00    -0.212 A  
HETATM   27  C   UNK A   0      -9.365  14.588  66.245  1.00  0.00    -0.277 A  
BRANCH  24  28
HETATM   28  C   UNK A   0     -10.467  16.184  67.817  1.00  0.00    -0.295 C  
ATOM     29  H   GLU A   1     -11.657  16.505  66.120  1.00  0.00     0.000 HD 
ATOM     30  N   GLU A   1     -11.252  16.935  66.953  1.00  0.00     0.270 N  
HETATM   31  O   UNK A   0     -10.018  16.621  68.869  1.00  0.00    -0.246 OA 
BRANCH  30  32
ATOM     32  CA  GLU A   1     -11.498  18.360  67.246  1.00  0.00     1.022 C  
ATOM     33  C   GLU A   1     -11.634  19.138  65.923  1.00  0.00     1.836 C  
ATOM     34  O   GLU A   1     -11.006  18.534  64.884  1.00  0.00    -0.547 OA 
ATOM     35  OXT GLU A   1     -12.113  20.260  65.830  1.00  0.00     1.929 OA 
BRANCH  32  36
ATOM     36  CB  GLU A   1     -10.343  18.938  68.078  1.00  0.00    -0.457 C  
BRANCH  36  37
ATOM     37  CG  GLU A   1      -9.051  19.110  67.273  1.00  0.00    -0.334 C  
ATOM     38  CD  GLU A   1      -7.935  19.707  68.091  1.00  0.00    -0.318 C  
ATOM     39  OE2 GLU A   1      -8.023  20.040  69.262  1.00  0.00    -0.039 OA 
ATOM     40  OE1 GLU A   1      -6.791  19.828  67.380  1.00  0.00    -0.207 OA 
ENDBRANCH  36  37
ENDBRANCH  32  36
ENDBRANCH  30  32
ENDBRANCH  24  28
ENDBRANCH  20  22
ENDBRANCH  19  20
ENDBRANCH   4  19
TORSDOF 7
ENDMDL
MODEL      246
REMARK 921   NORMALIZED FREE ENERGY PREDICTED BY IDOCK:    2.52 KCAL/MOL
REMARK 922        TOTAL FREE ENERGY PREDICTED BY IDOCK:    2.28 KCAL/MOL
REMARK 923 INTER-LIGAND FREE ENERGY PREDICTED BY IDOCK:   -2.94 KCAL/MOL
REMARK 924 INTRA-LIGAND FREE ENERGY PREDICTED BY IDOCK:    5.23 KCAL/MOL
REMARK 927      BINDING AFFINITY PREDICTED BY RF-SCORE:    0.00 PKD
ROOT
HETATM    1  C   UNK A   0      -9.055  19.795  66.971  1.00  0.00    -0.340 C  
HETATM    2  N   UNK A   0      -9.247  18.437  67.181  1.00  0.00    -0.260 N  
HETATM    3  O   UNK A   0      -8.335  20.542  67.627  1.00  0.00    -0.277 OA 
HETATM    4  C   UNK A   0      -8.549  17.706  68.301  1.00  0.00    -0.268 C  
HETATM    5  C   UNK A   0      -8.028  16.352  67.765  1.00  0.00    -0.149 C  
HETATM    6  C   UNK A   0     -11.740  16.057  64.819  1.00  0.00     0.012 C  
HETATM    7  H   UNK A   0     -12.408  17.780  63.929  1.00  0.00     0.000 HD 
HETATM    8  N   UNK A   0      -9.146  15.638  67.172  1.00  0.00    -0.203 NA 
HETATM    9  H   UNK A   0      -9.245  14.636  67.338  1.00  0.00     0.000 HD 
HETATM   10  H2  UNK A   0     -13.255  15.736  63.432  1.00  0.00     0.000 HD 
HETATM   11  C   UNK A   0     -10.079  16.294  66.386  1.00  0.00    -0.305 C  
HETATM   12  O   UNK A   0     -11.502  19.438  65.540  1.00  0.00     0.212 OA 
HETATM   13  C   UNK A   0     -10.124  17.655  66.387  1.00  0.00    -0.356 C  
HETATM   14  H1  UNK A   0     -12.515  14.297  64.176  1.00  0.00     0.000 HD 
HETATM   15  C   UNK A   0     -11.175  18.255  65.508  1.00  0.00     0.932 C  
HETATM   16  N   UNK A   0     -10.901  15.501  65.625  1.00  0.00    -0.346 NA 
HETATM   17  N   UNK A   0     -12.584  15.309  64.071  1.00  0.00    -0.831 NA 
HETATM   18  N   UNK A   0     -11.831  17.399  64.679  1.00  0.00     2.034 N  
ENDROOT
BRANCH   4  19
HETATM   19  C   UNK A   0      -7.410  18.460  69.022  1.00  0.00    -0.208 C  
BRANCH  19  20
HETATM   20  N   UNK A   0      -6.091  17.876  68.728  1.00  0.00    -0.190 NA 
HETATM   21  H   UNK A   0      -5.307  18.457  68.430  1.00  0.00     0.000 HD 
BRANCH  20  22
HETATM   22  C   UNK A   0      -5.959  16.491  68.874  1.00  0.00    -0.143 A  
HETATM   23  C   UNK A   0      -5.948  14.574  70.380  1.00  0.00    -0.165 A  
HETATM   24  C   UNK A   0      -5.986  13.709  69.281  1.00  0.00    -0.090 A  
HETATM   25  C   UNK A   0      -5.871  15.606  67.792  1.00  0.00    -0.163 A  
HETATM   26  C   UNK A   0      -5.924  15.959  70.169  1.00  0.00    -0.134 A  
HETATM   27  C   UNK A   0      -5.892  14.227  67.988  1.00  0.00    -0.138 A  
BRANCH  24  28
HETATM   28  C   UNK A   0      -6.127  12.249  69.493  1.00  0.00    -0.118 C  
ATOM     29  H   GLU A   1      -8.097  12.298  68.777  1.00  0.00     0.000 HD 
ATOM     30  N   GLU A   1      -7.375  11.715  69.201  1.00  0.00    -0.075 N  
HETATM   31  O   UNK A   0      -5.198  11.584  69.931  1.00  0.00    -0.057 OA 
BRANCH  30  32
ATOM     32  CA  GLU A   1      -7.650  10.298  69.508  1.00  0.00    -0.150 C  
ATOM     33  C   GLU A   1      -6.537   9.420  68.906  1.00  0.00    -0.047 C  
ATOM     34  O   GLU A   1      -5.910  10.002  67.854  1.00  0.00    -0.039 OA 
ATOM     35  OXT GLU A   1      -6.331   8.256  69.223  1.00  0.00    -0.037 OA 
BRANCH  32  36
ATOM     36  CB  GLU A   1      -9.013   9.885  68.932  1.00  0.00    -0.153 C  
BRANCH  36  37
ATOM     37  CG  GLU A   1      -9.451   8.485  69.376  1.00  0.00    -0.161 C  
ATOM     38  CD  GLU A   1     -10.533   8.523  70.425  1.00  0.00    -0.207 C  
ATOM     39  OE2 GLU A   1     -11.017   9.539  70.898  1.00  0.00    -0.281 OA 
ATOM     40  OE1 GLU A   1     -10.933   7.284  70.790  1.00  0.00    -0.240 OA 
ENDBRANCH  36  37
ENDBRANCH  32  36
ENDBRANCH  30  32
ENDBRANCH  24  28
ENDBRANCH  20  22
ENDBRANCH  19  20
ENDBRANCH   4  19
TORSDOF 7
ENDMDL
MODEL      247
REMARK 921   NORMALIZED FREE ENERGY PREDICTED BY IDOCK:    3.04 KCAL/MOL
REMARK 922        TOTAL FREE ENERGY PREDICTED BY IDOCK:    3.02 KCAL/MOL
REMARK 923 INTER-LIGAND FREE ENERGY PREDICTED BY IDOCK:   -1.72 KCAL/MOL
REMARK 924 INTRA-LIGAND FREE ENERGY PREDICTED BY IDOCK:    4.74 KCAL/MOL
REMARK 927      BINDING AFFINITY PREDICTED BY RF-SCORE:    0.00 PKD
ROOT
HETATM    1  C   UNK A   0     -10.313   7.710  67.987  1.00  0.00    -0.205 C  
HETATM    2  N   UNK A   0      -8.950   7.459  67.926  1.00  0.00    -0.132 N  
HETATM    3  O   UNK A   0     -11.102   7.270  68.819  1.00  0.00    -0.060 OA 
HETATM    4  C   UNK A   0      -8.266   6.569  68.935  1.00  0.00    -0.119 C  
HETATM    5  C   UNK A   0      -6.933   7.228  69.359  1.00  0.00    -0.062 C  
HETATM    6  C   UNK A   0      -6.426   9.069  65.011  1.00  0.00    -0.065 C  
HETATM    7  H   UNK A   0      -8.104   9.743  64.044  1.00  0.00     0.000 HD 
HETATM    8  N   UNK A   0      -6.159   7.500  68.160  1.00  0.00    -0.035 NA 
HETATM    9  H   UNK A   0      -5.156   7.316  68.158  1.00  0.00     0.000 HD 
HETATM   10  H2  UNK A   0      -6.016   9.997  63.198  1.00  0.00     0.000 HD 
HETATM   11  C   UNK A   0      -6.761   8.005  67.018  1.00  0.00    -0.065 C  
HETATM   12  O   UNK A   0      -9.822   8.431  65.267  1.00  0.00     0.571 OA 
HETATM   13  C   UNK A   0      -8.117   7.990  66.908  1.00  0.00    -0.108 C  
HETATM   14  H1  UNK A   0      -4.623   9.483  64.181  1.00  0.00     0.000 HD 
HETATM   15  C   UNK A   0      -8.656   8.552  65.631  1.00  0.00    -0.177 C  
HETATM   16  N   UNK A   0      -5.920   8.519  66.062  1.00  0.00    -0.047 NA 
HETATM   17  N   UNK A   0      -5.630   9.564  64.036  1.00  0.00    -0.070 NA 
HETATM   18  N   UNK A   0      -7.760   9.177  64.820  1.00  0.00    -0.107 N  
ENDROOT
BRANCH   4  19
HETATM   19  C   UNK A   0      -9.083   6.180  70.186  1.00  0.00    -0.152 C  
BRANCH  19  20
HETATM   20  N   UNK A   0      -9.083   7.249  71.198  1.00  0.00    -0.151 NA 
HETATM   21  H   UNK A   0      -9.039   7.038  72.195  1.00  0.00     0.000 HD 
BRANCH  20  22
HETATM   22  C   UNK A   0      -9.145   8.568  70.734  1.00  0.00    -0.165 A  
HETATM   23  C   UNK A   0      -7.996  10.695  70.424  1.00  0.00     1.145 A  
HETATM   24  C   UNK A   0      -9.038  11.140  69.604  1.00  0.00     0.683 A  
HETATM   25  C   UNK A   0     -10.231   9.081  70.013  1.00  0.00    -0.222 A  
HETATM   26  C   UNK A   0      -8.060   9.416  70.992  1.00  0.00    -0.020 A  
HETATM   27  C   UNK A   0     -10.180  10.351  69.444  1.00  0.00    -0.257 A  
BRANCH  24  28
HETATM   28  C   UNK A   0      -8.926  12.443  68.907  1.00  0.00     0.304 C  
ATOM     29  H   GLU A   1     -10.776  13.057  69.681  1.00  0.00     0.000 HD 
ATOM     30  N   GLU A   1     -10.011  13.299  69.050  1.00  0.00     0.089 N  
HETATM   31  O   UNK A   0      -7.945  12.711  68.226  1.00  0.00    -0.142 OA 
BRANCH  30  32
ATOM     32  CA  GLU A   1     -10.049  14.559  68.285  1.00  0.00    -0.232 C  
ATOM     33  C   GLU A   1      -9.732  15.738  69.226  1.00  0.00    -0.263 C  
ATOM     34  O   GLU A   1     -10.012  15.471  70.525  1.00  0.00    -0.030 OA 
ATOM     35  OXT GLU A   1      -9.413  16.856  68.845  1.00  0.00    -0.259 OA 
BRANCH  32  36
ATOM     36  CB  GLU A   1     -11.434  14.754  67.650  1.00  0.00    -0.363 C  
BRANCH  36  37
ATOM     37  CG  GLU A   1     -11.430  15.771  66.504  1.00  0.00     0.252 C  
ATOM     38  CD  GLU A   1     -11.139  15.135  65.168  1.00  0.00    -0.403 C  
ATOM     39  OE2 GLU A   1     -10.914  13.949  64.989  1.00  0.00    -0.330 OA 
ATOM     40  OE1 GLU A   1     -11.165  16.035  64.159  1.00  0.00    -0.529 OA 
ENDBRANCH  36  37
ENDBRANCH  32  36
ENDBRANCH  30  32
ENDBRANCH  24  28
ENDBRANCH  20  22
ENDBRANCH  19  20
ENDBRANCH   4  19
TORSDOF 7
ENDMDL
MODEL      248
REMARK 921   NORMALIZED FREE ENERGY PREDICTED BY IDOCK:    3.12 KCAL/MOL
REMARK 922        TOTAL FREE ENERGY PREDICTED BY IDOCK:    3.12 KCAL/MOL
REMARK 923 INTER-LIGAND FREE ENERGY PREDICTED BY IDOCK:   -3.21 KCAL/MOL
REMARK 924 INTRA-LIGAND FREE ENERGY PREDICTED BY IDOCK:    6.33 KCAL/MOL
REMARK 927      BINDING AFFINITY PREDICTED BY RF-SCORE:    0.00 PKD
ROOT
HETATM    1  C   UNK A   0      -9.215   3.183  68.023  1.00  0.00    -0.198 C  
HETATM    2  N   UNK A   0      -9.995   4.287  68.340  1.00  0.00    -0.030 N  
HETATM    3  O   UNK A   0      -9.153   2.621  66.933  1.00  0.00    -0.152 OA 
HETATM    4  C   UNK A   0     -10.892   4.939  67.317  1.00  0.00     0.506 C  
HETATM    5  C   UNK A   0     -10.755   6.474  67.440  1.00  0.00    -0.340 C  
HETATM    6  C   UNK A   0     -10.058   6.068  72.119  1.00  0.00    -0.181 C  
HETATM    7  H   UNK A   0      -8.952   4.480  72.798  1.00  0.00     0.000 HD 
HETATM    8  N   UNK A   0     -11.027   6.846  68.817  1.00  0.00    -0.434 NA 
HETATM    9  H   UNK A   0     -11.592   7.673  69.011  1.00  0.00     0.000 HD 
HETATM   10  H2  UNK A   0      -9.701   6.126  74.166  1.00  0.00     0.000 HD 
HETATM   11  C   UNK A   0     -10.532   6.097  69.873  1.00  0.00    -0.233 C  
HETATM   12  O   UNK A   0      -9.237   2.943  70.869  1.00  0.00    -0.110 OA 
HETATM   13  C   UNK A   0     -10.026   4.855  69.639  1.00  0.00    -0.231 C  
HETATM   14  H1  UNK A   0     -10.547   7.519  73.448  1.00  0.00     0.000 HD 
HETATM   15  C   UNK A   0      -9.528   4.135  70.852  1.00  0.00    -0.162 C  
HETATM   16  N   UNK A   0     -10.571   6.688  71.111  1.00  0.00    -0.224 NA 
HETATM   17  N   UNK A   0     -10.099   6.607  73.359  1.00  0.00    -0.204 NA 
HETATM   18  N   UNK A   0      -9.464   4.859  72.002  1.00  0.00    -0.140 N  
ENDROOT
BRANCH   4  19
HETATM   19  C   UNK A   0     -10.700   4.509  65.847  1.00  0.00    -0.029 C  
BRANCH  19  20
HETATM   20  N   UNK A   0      -9.819   5.433  65.114  1.00  0.00    -0.261 NA 
HETATM   21  H   UNK A   0      -9.644   5.321  64.115  1.00  0.00     0.000 HD 
BRANCH  20  22
HETATM   22  C   UNK A   0      -9.233   6.472  65.845  1.00  0.00     0.012 A  
HETATM   23  C   UNK A   0      -9.185   8.855  66.355  1.00  0.00    -0.240 A  
HETATM   24  C   UNK A   0      -8.339   8.607  67.441  1.00  0.00    -0.116 A  
HETATM   25  C   UNK A   0      -8.289   6.264  66.859  1.00  0.00    -0.109 A  
HETATM   26  C   UNK A   0      -9.618   7.788  65.558  1.00  0.00     0.620 A  
HETATM   27  C   UNK A   0      -7.849   7.317  67.658  1.00  0.00    -0.113 A  
BRANCH  24  28
HETATM   28  C   UNK A   0      -7.968   9.711  68.358  1.00  0.00    -0.096 C  
ATOM     29  H   GLU A   1      -8.987  11.098  67.160  1.00  0.00     0.000 HD 
ATOM     30  N   GLU A   1      -8.384  10.979  67.973  1.00  0.00    -0.120 N  
HETATM   31  O   UNK A   0      -7.307   9.498  69.366  1.00  0.00    -0.075 OA 
BRANCH  30  32
ATOM     32  CA  GLU A   1      -7.946  12.155  68.751  1.00  0.00     0.007 C  
ATOM     33  C   GLU A   1      -9.002  13.269  68.629  1.00  0.00     0.032 C  
ATOM     34  O   GLU A   1      -9.754  13.169  67.505  1.00  0.00    -0.205 OA 
ATOM     35  OXT GLU A   1      -9.067  14.240  69.371  1.00  0.00     0.180 OA 
BRANCH  32  36
ATOM     36  CB  GLU A   1      -6.590  12.659  68.234  1.00  0.00    -0.079 C  
BRANCH  36  37
ATOM     37  CG  GLU A   1      -6.580  14.164  67.948  1.00  0.00    -0.174 C  
ATOM     38  CD  GLU A   1      -5.982  14.963  69.078  1.00  0.00    -0.096 C  
ATOM     39  OE2 GLU A   1      -5.558  14.494  70.123  1.00  0.00    -0.104 OA 
ATOM     40  OE1 GLU A   1      -5.952  16.287  68.806  1.00  0.00    -0.111 OA 
ENDBRANCH  36  37
ENDBRANCH  32  36
ENDBRANCH  30  32
ENDBRANCH  24  28
ENDBRANCH  20  22
ENDBRANCH  19  20
ENDBRANCH   4  19
TORSDOF 7
ENDMDL
MODEL      249
REMARK 921   NORMALIZED FREE ENERGY PREDICTED BY IDOCK:    3.34 KCAL/MOL
REMARK 922        TOTAL FREE ENERGY PREDICTED BY IDOCK:    3.44 KCAL/MOL
REMARK 923 INTER-LIGAND FREE ENERGY PREDICTED BY IDOCK:    2.03 KCAL/MOL
REMARK 924 INTRA-LIGAND FREE ENERGY PREDICTED BY IDOCK:    1.41 KCAL/MOL
REMARK 927      BINDING AFFINITY PREDICTED BY RF-SCORE:    0.00 PKD
ROOT
HETATM    1  C   UNK A   0      -9.561  11.374  65.274  1.00  0.00    -0.228 C  
HETATM    2  N   UNK A   0     -10.385  11.042  66.340  1.00  0.00    -0.243 N  
HETATM    3  O   UNK A   0      -9.910  11.859  64.202  1.00  0.00    -0.259 OA 
HETATM    4  C   UNK A   0     -11.878  11.260  66.279  1.00  0.00     0.839 C  
HETATM    5  C   UNK A   0     -12.349  11.857  67.625  1.00  0.00     0.855 C  
HETATM    6  C   UNK A   0      -8.996   9.404  69.923  1.00  0.00    -0.200 C  
HETATM    7  H   UNK A   0      -7.165   9.191  69.023  1.00  0.00     0.000 HD 
HETATM    8  N   UNK A   0     -11.903  10.979  68.693  1.00  0.00    -0.561 NA 
HETATM    9  H   UNK A   0     -12.533  10.770  69.467  1.00  0.00     0.000 HD 
HETATM   10  H2  UNK A   0      -7.590   8.456  71.125  1.00  0.00     0.000 HD 
HETATM   11  C   UNK A   0     -10.635  10.420  68.677  1.00  0.00    -0.209 C  
HETATM   12  O   UNK A   0      -7.836   9.568  66.662  1.00  0.00    -0.100 OA 
HETATM   13  C   UNK A   0      -9.896  10.456  67.535  1.00  0.00    -0.172 C  
HETATM   14  H1  UNK A   0      -9.179   8.804  71.851  1.00  0.00     0.000 HD 
HETATM   15  C   UNK A   0      -8.548   9.816  67.631  1.00  0.00    -0.125 C  
HETATM   16  N   UNK A   0     -10.195   9.873  69.857  1.00  0.00    -0.243 NA 
HETATM   17  N   UNK A   0      -8.535   8.835  71.061  1.00  0.00    -0.162 NA 
HETATM   18  N   UNK A   0      -8.142   9.445  68.875  1.00  0.00    -0.101 N  
ENDROOT
BRANCH   4  19
HETATM   19  C   UNK A   0     -12.410  12.114  65.108  1.00  0.00    -0.057 C  
BRANCH  19  20
HETATM   20  N   UNK A   0     -12.981  13.389  65.573  1.00  0.00    -0.555 NA 
HETATM   21  H   UNK A   0     -13.989  13.540  65.605  1.00  0.00     0.000 HD 
BRANCH  20  22
HETATM   22  C   UNK A   0     -12.082  14.385  65.969  1.00  0.00    -0.357 A  
HETATM   23  C   UNK A   0      -9.942  14.932  67.001  1.00  0.00    -0.240 A  
HETATM   24  C   UNK A   0     -10.070  16.256  66.568  1.00  0.00    -0.301 A  
HETATM   25  C   UNK A   0     -12.245  15.740  65.656  1.00  0.00     1.169 A  
HETATM   26  C   UNK A   0     -10.954  14.007  66.708  1.00  0.00    -0.298 A  
HETATM   27  C   UNK A   0     -11.248  16.670  65.943  1.00  0.00     0.387 A  
BRANCH  24  28
HETATM   28  C   UNK A   0      -8.956  17.212  66.772  1.00  0.00    -0.241 C  
ATOM     29  H   GLU A   1      -9.951  18.080  68.402  1.00  0.00     0.000 HD 
ATOM     30  N   GLU A   1      -9.137  18.140  67.789  1.00  0.00    -0.260 N  
HETATM   31  O   UNK A   0      -7.965  17.186  66.055  1.00  0.00    -0.451 OA 
BRANCH  30  32
ATOM     32  CA  GLU A   1      -8.144  19.215  67.979  1.00  0.00    -0.298 C  
ATOM     33  C   GLU A   1      -8.306  19.818  69.387  1.00  0.00     0.252 C  
ATOM     34  O   GLU A   1      -9.551  19.649  69.898  1.00  0.00     0.066 OA 
ATOM     35  OXT GLU A   1      -7.465  20.516  69.937  1.00  0.00     0.451 OA 
BRANCH  32  36
ATOM     36  CB  GLU A   1      -8.335  20.308  66.916  1.00  0.00    -0.348 C  
BRANCH  36  37
ATOM     37  CG  GLU A   1      -9.759  20.352  66.351  1.00  0.00    -0.400 C  
ATOM     38  CD  GLU A   1      -9.789  20.710  64.887  1.00  0.00     1.597 C  
ATOM     39  OE2 GLU A   1      -8.808  20.958  64.204  1.00  0.00     1.812 OA 
ATOM     40  OE1 GLU A   1     -11.047  20.720  64.391  1.00  0.00     1.005 OA 
ENDBRANCH  36  37
ENDBRANCH  32  36
ENDBRANCH  30  32
ENDBRANCH  24  28
ENDBRANCH  20  22
ENDBRANCH  19  20
ENDBRANCH   4  19
TORSDOF 7
ENDMDL
MODEL      250
REMARK 921   NORMALIZED FREE ENERGY PREDICTED BY IDOCK:    4.20 KCAL/MOL
REMARK 922        TOTAL FREE ENERGY PREDICTED BY IDOCK:    4.65 KCAL/MOL
REMARK 923 INTER-LIGAND FREE ENERGY PREDICTED BY IDOCK:   -3.41 KCAL/MOL
REMARK 924 INTRA-LIGAND FREE ENERGY PREDICTED BY IDOCK:    8.06 KCAL/MOL
REMARK 927      BINDING AFFINITY PREDICTED BY RF-SCORE:    0.00 PKD
ROOT
HETATM    1  C   UNK A   0     -10.320   7.813  68.090  1.00  0.00    -0.200 C  
HETATM    2  N   UNK A   0      -8.939   7.703  68.165  1.00  0.00    -0.127 N  
HETATM    3  O   UNK A   0     -11.139   7.262  68.820  1.00  0.00    -0.060 OA 
HETATM    4  C   UNK A   0      -8.272   6.846  69.213  1.00  0.00    -0.125 C  
HETATM    5  C   UNK A   0      -7.065   7.618  69.795  1.00  0.00    -0.067 C  
HETATM    6  C   UNK A   0      -6.313   9.676  65.583  1.00  0.00    -0.069 C  
HETATM    7  H   UNK A   0      -7.946  10.217  64.465  1.00  0.00     0.000 HD 
HETATM    8  N   UNK A   0      -6.206   8.015  68.693  1.00  0.00    -0.043 NA 
HETATM    9  H   UNK A   0      -5.194   7.933  68.792  1.00  0.00     0.000 HD 
HETATM   10  H2  UNK A   0      -5.821  10.715  63.851  1.00  0.00     0.000 HD 
HETATM   11  C   UNK A   0      -6.738   8.503  67.510  1.00  0.00    -0.063 C  
HETATM   12  O   UNK A   0      -9.632   8.690  65.460  1.00  0.00    -0.085 OA 
HETATM   13  C   UNK A   0      -8.067   8.356  67.257  1.00  0.00    -0.105 C  
HETATM   14  H1  UNK A   0      -4.488  10.303  64.960  1.00  0.00     0.000 HD 
HETATM   15  C   UNK A   0      -8.529   8.913  65.948  1.00  0.00    -0.136 C  
HETATM   16  N   UNK A   0      -5.862   9.137  66.664  1.00  0.00    -0.057 NA 
HETATM   17  N   UNK A   0      -5.478  10.288  64.712  1.00  0.00    -0.109 NA 
HETATM   18  N   UNK A   0      -7.625   9.657  65.255  1.00  0.00    -0.108 N  
ENDROOT
BRANCH   4  19
HETATM   19  C   UNK A   0      -9.167   6.325  70.359  1.00  0.00    -0.154 C  
BRANCH  19  20
HETATM   20  N   UNK A   0      -9.626   7.414  71.237  1.00  0.00    -0.162 NA 
HETATM   21  H   UNK A   0      -9.700   7.289  72.246  1.00  0.00     0.000 HD 
BRANCH  20  22
HETATM   22  C   UNK A   0      -9.958   8.629  70.626  1.00  0.00    -0.192 A  
HETATM   23  C   UNK A   0     -11.618  10.385  70.309  1.00  0.00    -0.410 A  
HETATM   24  C   UNK A   0     -10.654  11.187  69.689  1.00  0.00    -0.076 A  
HETATM   25  C   UNK A   0      -9.045   9.398  69.893  1.00  0.00    -0.221 A  
HETATM   26  C   UNK A   0     -11.267   9.108  70.765  1.00  0.00    -0.336 A  
HETATM   27  C   UNK A   0      -9.382  10.669  69.434  1.00  0.00    -0.082 A  
BRANCH  24  28
HETATM   28  C   UNK A   0     -10.984  12.580  69.308  1.00  0.00    -0.080 C  
ATOM     29  H   GLU A   1     -10.503  12.186  67.305  1.00  0.00     0.000 HD 
ATOM     30  N   GLU A   1     -10.774  12.907  67.974  1.00  0.00    -0.222 N  
HETATM   31  O   UNK A   0     -11.383  13.384  70.141  1.00  0.00    -0.059 OA 
BRANCH  30  32
ATOM     32  CA  GLU A   1     -10.945  14.303  67.531  1.00  0.00    -0.289 C  
ATOM     33  C   GLU A   1     -12.332  14.466  66.880  1.00  0.00    -0.130 C  
ATOM     34  O   GLU A   1     -12.828  13.304  66.388  1.00  0.00    -0.139 OA 
ATOM     35  OXT GLU A   1     -12.874  15.544  66.675  1.00  0.00     1.647 OA 
BRANCH  32  36
ATOM     36  CB  GLU A   1      -9.847  14.681  66.526  1.00  0.00    -0.288 C  
BRANCH  36  37
ATOM     37  CG  GLU A   1      -9.637  16.194  66.409  1.00  0.00    -0.312 C  
ATOM     38  CD  GLU A   1      -8.587  16.708  67.361  1.00  0.00    -0.189 C  
ATOM     39  OE2 GLU A   1      -7.967  16.023  68.159  1.00  0.00    -0.138 OA 
ATOM     40  OE1 GLU A   1      -8.389  18.040  67.231  1.00  0.00    -0.224 OA 
ENDBRANCH  36  37
ENDBRANCH  32  36
ENDBRANCH  30  32
ENDBRANCH  24  28
ENDBRANCH  20  22
ENDBRANCH  19  20
ENDBRANCH   4  19
TORSDOF 7
ENDMDL
MODEL      251
REMARK 921   NORMALIZED FREE ENERGY PREDICTED BY IDOCK:    4.28 KCAL/MOL
REMARK 922        TOTAL FREE ENERGY PREDICTED BY IDOCK:    4.76 KCAL/MOL
REMARK 923 INTER-LIGAND FREE ENERGY PREDICTED BY IDOCK:   -5.42 KCAL/MOL
REMARK 924 INTRA-LIGAND FREE ENERGY PREDICTED BY IDOCK:   10.18 KCAL/MOL
REMARK 927      BINDING AFFINITY PREDICTED BY RF-SCORE:    0.00 PKD
ROOT
HETATM    1  C   UNK A   0      -8.438  10.870  66.607  1.00  0.00    -0.151 C  
HETATM    2  N   UNK A   0      -8.826   9.537  66.616  1.00  0.00    -0.133 N  
HETATM    3  O   UNK A   0      -9.179  11.847  66.554  1.00  0.00    -0.205 OA 
HETATM    4  C   UNK A   0     -10.281   9.139  66.559  1.00  0.00    -0.252 C  
HETATM    5  C   UNK A   0     -10.525   7.997  67.573  1.00  0.00    -0.260 C  
HETATM    6  C   UNK A   0      -6.140   6.344  66.811  1.00  0.00    -0.029 C  
HETATM    7  H   UNK A   0      -4.628   7.702  66.533  1.00  0.00     0.000 HD 
HETATM    8  N   UNK A   0      -9.587   6.927  67.285  1.00  0.00    -0.137 NA 
HETATM    9  H   UNK A   0      -9.906   5.958  67.316  1.00  0.00     0.000 HD 
HETATM   10  H2  UNK A   0      -4.260   5.468  66.661  1.00  0.00     0.000 HD 
HETATM   11  C   UNK A   0      -8.265   7.198  66.969  1.00  0.00    -0.117 C  
HETATM   12  O   UNK A   0      -5.978   9.656  65.809  1.00  0.00    -0.057 OA 
HETATM   13  C   UNK A   0      -7.895   8.468  66.649  1.00  0.00    -0.090 C  
HETATM   14  H1  UNK A   0      -5.632   4.392  67.028  1.00  0.00     0.000 HD 
HETATM   15  C   UNK A   0      -6.447   8.643  66.318  1.00  0.00    -0.061 C  
HETATM   16  N   UNK A   0      -7.395   6.137  67.023  1.00  0.00    -0.081 NA 
HETATM   17  N   UNK A   0      -5.255   5.320  66.832  1.00  0.00    -0.008 NA 
HETATM   18  N   UNK A   0      -5.640   7.573  66.552  1.00  0.00    -0.024 N  
ENDROOT
BRANCH   4  19
HETATM   19  C   UNK A   0     -11.319  10.263  66.771  1.00  0.00     0.536 C  
BRANCH  19  20
HETATM   20  N   UNK A   0     -11.431  11.138  65.592  1.00  0.00     0.077 NA 
HETATM   21  H   UNK A   0     -11.593  10.756  64.660  1.00  0.00     0.000 HD 
BRANCH  20  22
HETATM   22  C   UNK A   0     -11.307  12.515  65.806  1.00  0.00    -0.336 A  
HETATM   23  C   UNK A   0     -11.532  14.385  67.353  1.00  0.00    -0.377 A  
HETATM   24  C   UNK A   0     -10.849  15.212  66.455  1.00  0.00    -0.317 A  
HETATM   25  C   UNK A   0     -10.737  13.391  64.873  1.00  0.00    -0.381 A  
HETATM   26  C   UNK A   0     -11.767  13.045  67.018  1.00  0.00    -0.441 A  
HETATM   27  C   UNK A   0     -10.500  14.726  65.193  1.00  0.00    -0.443 A  
BRANCH  24  28
HETATM   28  C   UNK A   0     -10.496  16.597  66.847  1.00  0.00    -0.271 C  
ATOM     29  H   GLU A   1      -8.541  16.003  67.324  1.00  0.00     0.000 HD 
ATOM     30  N   GLU A   1      -9.208  16.776  67.337  1.00  0.00    -0.217 N  
HETATM   31  O   UNK A   0     -11.315  17.503  66.766  1.00  0.00     0.445 OA 
BRANCH  30  32
ATOM     32  CA  GLU A   1      -8.811  18.090  67.876  1.00  0.00    -0.268 C  
ATOM     33  C   GLU A   1     -10.033  19.028  67.888  1.00  0.00    -0.358 C  
ATOM     34  O   GLU A   1     -10.977  18.682  66.978  1.00  0.00    -0.320 OA 
ATOM     35  OXT GLU A   1     -10.095  20.069  68.527  1.00  0.00    -0.425 OA 
BRANCH  32  36
ATOM     36  CB  GLU A   1      -7.690  18.699  67.020  1.00  0.00    -0.237 C  
BRANCH  36  37
ATOM     37  CG  GLU A   1      -6.405  18.960  67.813  1.00  0.00    -0.216 C  
ATOM     38  CD  GLU A   1      -6.630  19.869  68.995  1.00  0.00    -0.328 C  
ATOM     39  OE2 GLU A   1      -7.700  20.369  69.304  1.00  0.00     0.278 OA 
ATOM     40  OE1 GLU A   1      -5.496  20.071  69.705  1.00  0.00    -0.215 OA 
ENDBRANCH  36  37
ENDBRANCH  32  36
ENDBRANCH  30  32
ENDBRANCH  24  28
ENDBRANCH  20  22
ENDBRANCH  19  20
ENDBRANCH   4  19
TORSDOF 7
ENDMDL
MODEL      252
REMARK 921   NORMALIZED FREE ENERGY PREDICTED BY IDOCK:    5.76 KCAL/MOL
REMARK 922        TOTAL FREE ENERGY PREDICTED BY IDOCK:    6.85 KCAL/MOL
REMARK 923 INTER-LIGAND FREE ENERGY PREDICTED BY IDOCK:   -0.79 KCAL/MOL
REMARK 924 INTRA-LIGAND FREE ENERGY PREDICTED BY IDOCK:    7.64 KCAL/MOL
REMARK 927      BINDING AFFINITY PREDICTED BY RF-SCORE:    0.00 PKD
ROOT
HETATM    1  C   UNK A   0      -9.288  12.227  64.555  1.00  0.00     0.407 C  
HETATM    2  N   UNK A   0     -10.003  12.218  65.745  1.00  0.00    -0.252 N  
HETATM    3  O   UNK A   0      -9.653  12.707  63.485  1.00  0.00    -0.088 OA 
HETATM    4  C   UNK A   0     -11.377  12.834  65.843  1.00  0.00    -0.324 C  
HETATM    5  C   UNK A   0     -11.469  13.639  67.160  1.00  0.00    -0.342 C  
HETATM    6  C   UNK A   0      -8.574  10.538  69.293  1.00  0.00    -0.126 C  
HETATM    7  H   UNK A   0      -7.019   9.760  68.205  1.00  0.00     0.000 HD 
HETATM    8  N   UNK A   0     -11.115  12.756  68.258  1.00  0.00    -0.242 NA 
HETATM    9  H   UNK A   0     -11.655  12.789  69.123  1.00  0.00     0.000 HD 
HETATM   10  H2  UNK A   0      -7.304   9.334  70.414  1.00  0.00     0.000 HD 
HETATM   11  C   UNK A   0     -10.055  11.869  68.151  1.00  0.00    -0.198 C  
HETATM   12  O   UNK A   0      -7.912  10.127  65.917  1.00  0.00    -0.123 OA 
HETATM   13  C   UNK A   0      -9.512  11.613  66.930  1.00  0.00    -0.185 C  
HETATM   14  H1  UNK A   0      -8.619  10.161  71.285  1.00  0.00     0.000 HD 
HETATM   15  C   UNK A   0      -8.380  10.635  66.932  1.00  0.00    -0.125 C  
HETATM   16  N   UNK A   0      -9.604  11.314  69.322  1.00  0.00    -0.409 NA 
HETATM   17  N   UNK A   0      -8.115   9.953  70.423  1.00  0.00    -0.366 NA 
HETATM   18  N   UNK A   0      -7.905  10.262  68.151  1.00  0.00    -0.102 N  
ENDROOT
BRANCH   4  19
HETATM   19  C   UNK A   0     -11.834  13.711  64.657  1.00  0.00    -0.397 C  
BRANCH  19  20
HETATM   20  N   UNK A   0     -11.870  15.140  65.010  1.00  0.00    -0.240 NA 
HETATM   21  H   UNK A   0     -12.646  15.738  64.729  1.00  0.00     0.000 HD 
BRANCH  20  22
HETATM   22  C   UNK A   0     -10.792  15.642  65.748  1.00  0.00    -0.306 A  
HETATM   23  C   UNK A   0      -8.982  15.185  67.315  1.00  0.00    -0.213 A  
HETATM   24  C   UNK A   0      -8.447  16.454  67.069  1.00  0.00    -0.226 A  
HETATM   25  C   UNK A   0     -10.309  16.950  65.614  1.00  0.00    -0.254 A  
HETATM   26  C   UNK A   0     -10.157  14.791  66.661  1.00  0.00    -0.269 A  
HETATM   27  C   UNK A   0      -9.142  17.355  66.259  1.00  0.00    -0.232 A  
BRANCH  24  28
HETATM   28  C   UNK A   0      -7.145  16.837  67.666  1.00  0.00    -0.134 C  
ATOM     29  H   GLU A   1      -8.108  17.609  69.362  1.00  0.00     0.000 HD 
ATOM     30  N   GLU A   1      -7.212  17.497  68.886  1.00  0.00    -0.256 N  
HETATM   31  O   UNK A   0      -6.093  16.605  67.085  1.00  0.00    -0.144 OA 
BRANCH  30  32
ATOM     32  CA  GLU A   1      -5.979  18.035  69.491  1.00  0.00    -0.246 C  
ATOM     33  C   GLU A   1      -6.185  18.205  71.008  1.00  0.00     1.190 C  
ATOM     34  O   GLU A   1      -7.488  18.349  71.354  1.00  0.00     4.623 OA 
ATOM     35  OXT GLU A   1      -5.277  18.357  71.813  1.00  0.00    -0.551 OA 
BRANCH  32  36
ATOM     36  CB  GLU A   1      -5.622  19.388  68.855  1.00  0.00    -0.226 C  
BRANCH  36  37
ATOM     37  CG  GLU A   1      -6.815  20.059  68.167  1.00  0.00    -0.329 C  
ATOM     38  CD  GLU A   1      -6.418  20.801  66.916  1.00  0.00    -0.279 C  
ATOM     39  OE2 GLU A   1      -5.280  20.888  66.482  1.00  0.00    -0.168 OA 
ATOM     40  OE1 GLU A   1      -7.481  21.367  66.301  1.00  0.00     0.339 OA 
ENDBRANCH  36  37
ENDBRANCH  32  36
ENDBRANCH  30  32
ENDBRANCH  24  28
ENDBRANCH  20  22
ENDBRANCH  19  20
ENDBRANCH   4  19
TORSDOF 7
ENDMDL
MODEL      253
REMARK 921   NORMALIZED FREE ENERGY PREDICTED BY IDOCK:    5.88 KCAL/MOL
REMARK 922        TOTAL FREE ENERGY PREDICTED BY IDOCK:    7.01 KCAL/MOL
REMARK 923 INTER-LIGAND FREE ENERGY PREDICTED BY IDOCK:    2.62 KCAL/MOL
REMARK 924 INTRA-LIGAND FREE ENERGY PREDICTED BY IDOCK:    4.39 KCAL/MOL
REMARK 927      BINDING AFFINITY PREDICTED BY RF-SCORE:    0.00 PKD
ROOT
HETATM    1  C   UNK A   0     -10.879  10.603  64.422  1.00  0.00     0.299 C  
HETATM    2  N   UNK A   0     -10.266   9.702  65.282  1.00  0.00    -0.231 N  
HETATM    3  O   UNK A   0     -11.991  11.106  64.559  1.00  0.00     0.325 OA 
HETATM    4  C   UNK A   0     -10.947   9.228  66.542  1.00  0.00     0.495 C  
HETATM    5  C   UNK A   0      -9.917   9.225  67.695  1.00  0.00    -0.196 C  
HETATM    6  C   UNK A   0      -6.458   8.108  64.639  1.00  0.00    -0.064 C  
HETATM    7  H   UNK A   0      -6.505   8.957  62.773  1.00  0.00     0.000 HD 
HETATM    8  N   UNK A   0      -8.775   8.429  67.281  1.00  0.00    -0.126 NA 
HETATM    9  H   UNK A   0      -8.342   7.788  67.946  1.00  0.00     0.000 HD 
HETATM   10  H2  UNK A   0      -4.790   7.656  63.484  1.00  0.00     0.000 HD 
HETATM   11  C   UNK A   0      -8.263   8.524  65.997  1.00  0.00    -0.118 C  
HETATM   12  O   UNK A   0      -8.922   9.512  62.648  1.00  0.00    -0.241 OA 
HETATM   13  C   UNK A   0      -8.986   9.148  65.027  1.00  0.00    -0.171 C  
HETATM   14  H1  UNK A   0      -4.797   7.072  65.167  1.00  0.00     0.000 HD 
HETATM   15  C   UNK A   0      -8.340   9.185  63.679  1.00  0.00    -0.187 C  
HETATM   16  N   UNK A   0      -7.016   7.985  65.795  1.00  0.00    -0.059 NA 
HETATM   17  N   UNK A   0      -5.241   7.569  64.395  1.00  0.00    -0.029 NA 
HETATM   18  N   UNK A   0      -7.047   8.768  63.616  1.00  0.00    -0.088 N  
ENDROOT
BRANCH   4  19
HETATM   19  C   UNK A   0     -12.219   9.989  66.975  1.00  0.00     4.939 C  
BRANCH  19  20
HETATM   20  N   UNK A   0     -12.194  11.395  66.540  1.00  0.00     0.609 NA 
HETATM   21  H   UNK A   0     -12.837  11.744  65.830  1.00  0.00     0.000 HD 
BRANCH  20  22
HETATM   22  C   UNK A   0     -11.250  12.233  67.144  1.00  0.00    -0.307 A  
HETATM   23  C   UNK A   0      -9.462  13.864  66.852  1.00  0.00    -0.263 A  
HETATM   24  C   UNK A   0      -9.502  14.155  68.220  1.00  0.00    -0.211 A  
HETATM   25  C   UNK A   0     -11.185  12.451  68.526  1.00  0.00    -0.321 A  
HETATM   26  C   UNK A   0     -10.329  12.898  66.325  1.00  0.00    -0.278 A  
HETATM   27  C   UNK A   0     -10.327  13.408  69.064  1.00  0.00    -0.004 A  
BRANCH  24  28
HETATM   28  C   UNK A   0      -8.672  15.254  68.767  1.00  0.00    -0.195 C  
ATOM     29  H   GLU A   1      -6.952  14.446  67.881  1.00  0.00     0.000 HD 
ATOM     30  N   GLU A   1      -7.311  15.173  68.499  1.00  0.00    -0.115 N  
HETATM   31  O   UNK A   0      -9.172  16.147  69.437  1.00  0.00    -0.248 OA 
BRANCH  30  32
ATOM     32  CA  GLU A   1      -6.390  16.147  69.115  1.00  0.00    -0.159 C  
ATOM     33  C   GLU A   1      -6.127  15.746  70.579  1.00  0.00     0.105 C  
ATOM     34  O   GLU A   1      -7.123  14.995  71.112  1.00  0.00     0.827 OA 
ATOM     35  OXT GLU A   1      -5.205  16.180  71.256  1.00  0.00    -0.145 OA 
BRANCH  32  36
ATOM     36  CB  GLU A   1      -6.993  17.559  69.058  1.00  0.00    -0.237 C  
BRANCH  36  37
ATOM     37  CG  GLU A   1      -6.540  18.354  67.829  1.00  0.00    -0.213 C  
ATOM     38  CD  GLU A   1      -7.700  18.845  67.000  1.00  0.00    -0.230 C  
ATOM     39  OE2 GLU A   1      -8.877  18.636  67.245  1.00  0.00    -0.269 OA 
ATOM     40  OE1 GLU A   1      -7.291  19.569  65.933  1.00  0.00    -0.279 OA 
ENDBRANCH  36  37
ENDBRANCH  32  36
ENDBRANCH  30  32
ENDBRANCH  24  28
ENDBRANCH  20  22
ENDBRANCH  19  20
ENDBRANCH   4  19
TORSDOF 7
ENDMDL
MODEL      254
REMARK 921   NORMALIZED FREE ENERGY PREDICTED BY IDOCK:    5.93 KCAL/MOL
REMARK 922        TOTAL FREE ENERGY PREDICTED BY IDOCK:    7.08 KCAL/MOL
REMARK 923 INTER-LIGAND FREE ENERGY PREDICTED BY IDOCK:   -2.03 KCAL/MOL
REMARK 924 INTRA-LIGAND FREE ENERGY PREDICTED BY IDOCK:    9.11 KCAL/MOL
REMARK 927      BINDING AFFINITY PREDICTED BY RF-SCORE:    0.00 PKD
ROOT
HETATM    1  C   UNK A   0      -8.147  20.277  66.423  1.00  0.00    -0.190 C  
HETATM    2  N   UNK A   0      -8.471  18.960  66.717  1.00  0.00    -0.287 N  
HETATM    3  O   UNK A   0      -7.325  20.977  67.009  1.00  0.00    -0.305 OA 
HETATM    4  C   UNK A   0      -7.806  18.219  67.851  1.00  0.00    -0.249 C  
HETATM    5  C   UNK A   0      -7.453  16.791  67.374  1.00  0.00    -0.161 C  
HETATM    6  C   UNK A   0     -11.298  16.739  64.589  1.00  0.00     0.187 C  
HETATM    7  H   UNK A   0     -11.819  18.474  63.627  1.00  0.00     0.000 HD 
HETATM    8  N   UNK A   0      -8.664  16.170  66.865  1.00  0.00    -0.203 NA 
HETATM    9  H   UNK A   0      -8.860  15.195  67.091  1.00  0.00     0.000 HD 
HETATM   10  H2  UNK A   0     -12.895  16.509  63.279  1.00  0.00     0.000 HD 
HETATM   11  C   UNK A   0      -9.556  16.880  66.078  1.00  0.00    -0.209 C  
HETATM   12  O   UNK A   0     -10.676  20.108  65.106  1.00  0.00    -0.186 OA 
HETATM   13  C   UNK A   0      -9.458  18.235  66.002  1.00  0.00    -0.026 C  
HETATM   14  H1  UNK A   0     -12.279  15.040  64.076  1.00  0.00     0.000 HD 
HETATM   15  C   UNK A   0     -10.477  18.897  65.130  1.00  0.00     0.992 C  
HETATM   16  N   UNK A   0     -10.488  16.140  65.394  1.00  0.00    -0.515 NA 
HETATM   17  N   UNK A   0     -12.246  16.047  63.916  1.00  0.00    -1.180 NA 
HETATM   18  N   UNK A   0     -11.254  18.073  64.375  1.00  0.00     2.508 N  
ENDROOT
BRANCH   4  19
HETATM   19  C   UNK A   0      -6.565  18.884  68.485  1.00  0.00    -0.246 C  
BRANCH  19  20
HETATM   20  N   UNK A   0      -5.334  18.123  68.215  1.00  0.00    -0.163 NA 
HETATM   21  H   UNK A   0      -4.492  18.581  67.865  1.00  0.00     0.000 HD 
BRANCH  20  22
HETATM   22  C   UNK A   0      -5.368  16.746  68.458  1.00  0.00    -0.122 A  
HETATM   23  C   UNK A   0      -5.535  14.951  70.098  1.00  0.00    -0.119 A  
HETATM   24  C   UNK A   0      -5.722  14.024  69.067  1.00  0.00    -0.088 A  
HETATM   25  C   UNK A   0      -5.433  15.785  67.441  1.00  0.00    -0.006 A  
HETATM   26  C   UNK A   0      -5.349  16.304  69.787  1.00  0.00    -0.140 A  
HETATM   27  C   UNK A   0      -5.616  14.436  67.737  1.00  0.00    -0.049 A  
BRANCH  24  28
HETATM   28  C   UNK A   0      -6.034  12.611  69.390  1.00  0.00    -0.101 C  
ATOM     29  H   GLU A   1      -7.952  12.807  68.563  1.00  0.00     0.000 HD 
ATOM     30  N   GLU A   1      -7.319  12.190  69.073  1.00  0.00    -0.052 N  
HETATM   31  O   UNK A   0      -5.206  11.891  69.931  1.00  0.00    -0.070 OA 
BRANCH  30  32
ATOM     32  CA  GLU A   1      -7.764  10.843  69.478  1.00  0.00    -0.013 C  
ATOM     33  C   GLU A   1      -6.547  10.023  69.947  1.00  0.00    -0.089 C  
ATOM     34  O   GLU A   1      -5.377  10.457  69.416  1.00  0.00    -0.038 OA 
ATOM     35  OXT GLU A   1      -6.622   8.990  70.598  1.00  0.00    -0.046 OA 
BRANCH  32  36
ATOM     36  CB  GLU A   1      -8.453  10.134  68.302  1.00  0.00    -0.115 C  
BRANCH  36  37
ATOM     37  CG  GLU A   1      -8.312  10.894  66.979  1.00  0.00    -0.132 C  
ATOM     38  CD  GLU A   1      -9.644  11.303  66.404  1.00  0.00    -0.198 C  
ATOM     39  OE2 GLU A   1     -10.731  11.059  66.903  1.00  0.00    -0.253 OA 
ATOM     40  OE1 GLU A   1      -9.509  11.998  65.251  1.00  0.00    -0.160 OA 
ENDBRANCH  36  37
ENDBRANCH  32  36
ENDBRANCH  30  32
ENDBRANCH  24  28
ENDBRANCH  20  22
ENDBRANCH  19  20
ENDBRANCH   4  19
TORSDOF 7
ENDMDL
MODEL      255
REMARK 921   NORMALIZED FREE ENERGY PREDICTED BY IDOCK:    5.98 KCAL/MOL
REMARK 922        TOTAL FREE ENERGY PREDICTED BY IDOCK:    7.16 KCAL/MOL
REMARK 923 INTER-LIGAND FREE ENERGY PREDICTED BY IDOCK:    6.08 KCAL/MOL
REMARK 924 INTRA-LIGAND FREE ENERGY PREDICTED BY IDOCK:    1.08 KCAL/MOL
REMARK 927      BINDING AFFINITY PREDICTED BY RF-SCORE:    0.00 PKD
ROOT
HETATM    1  C   UNK A   0     -10.850  13.645  64.525  1.00  0.00    -0.406 C  
HETATM    2  N   UNK A   0      -9.985  14.265  65.415  1.00  0.00    -0.513 N  
HETATM    3  O   UNK A   0     -10.610  12.653  63.841  1.00  0.00    -0.404 OA 
HETATM    4  C   UNK A   0      -8.585  13.749  65.644  1.00  0.00     1.848 C  
HETATM    5  C   UNK A   0      -8.285  13.773  67.160  1.00  0.00    -0.108 C  
HETATM    6  C   UNK A   0     -10.999  17.637  67.664  1.00  0.00    -0.095 C  
HETATM    7  H   UNK A   0     -12.716  17.765  66.548  1.00  0.00     0.000 HD 
HETATM    8  N   UNK A   0      -8.528  15.120  67.649  1.00  0.00    -0.153 NA 
HETATM    9  H   UNK A   0      -7.877  15.536  68.315  1.00  0.00     0.000 HD 
HETATM   10  H2  UNK A   0     -12.159  19.299  68.122  1.00  0.00     0.000 HD 
HETATM   11  C   UNK A   0      -9.628  15.848  67.226  1.00  0.00    -0.217 C  
HETATM   12  O   UNK A   0     -12.120  16.196  64.719  1.00  0.00     0.173 OA 
HETATM   13  C   UNK A   0     -10.339  15.429  66.144  1.00  0.00    -0.313 C  
HETATM   14  H1  UNK A   0     -10.707  19.022  69.116  1.00  0.00     0.000 HD 
HETATM   15  C   UNK A   0     -11.500  16.295  65.773  1.00  0.00     0.544 C  
HETATM   16  N   UNK A   0      -9.943  16.961  67.965  1.00  0.00    -0.269 NA 
HETATM   17  N   UNK A   0     -11.329  18.753  68.353  1.00  0.00     0.430 NA 
HETATM   18  N   UNK A   0     -11.825  17.281  66.653  1.00  0.00     1.993 N  
ENDROOT
BRANCH   4  19
HETATM   19  C   UNK A   0      -8.253  12.357  65.064  1.00  0.00     2.622 C  
BRANCH  19  20
HETATM   20  N   UNK A   0      -7.518  11.520  66.027  1.00  0.00    -0.355 NA 
HETATM   21  H   UNK A   0      -6.834  11.922  66.667  1.00  0.00     0.000 HD 
BRANCH  20  22
HETATM   22  C   UNK A   0      -7.800  10.150  66.027  1.00  0.00    -0.122 A  
HETATM   23  C   UNK A   0      -9.488   8.397  66.167  1.00  0.00    -0.263 A  
HETATM   24  C   UNK A   0      -8.539   7.449  65.771  1.00  0.00    -0.150 A  
HETATM   25  C   UNK A   0      -6.841   9.166  65.754  1.00  0.00    -0.077 A  
HETATM   26  C   UNK A   0      -9.110   9.740  66.303  1.00  0.00    -0.192 A  
HETATM   27  C   UNK A   0      -7.204   7.827  65.618  1.00  0.00    -0.068 A  
BRANCH  24  28
HETATM   28  C   UNK A   0      -8.954   6.050  65.514  1.00  0.00    -0.024 C  
ATOM     29  H   GLU A   1      -6.993   5.527  64.987  1.00  0.00     0.000 HD 
ATOM     30  N   GLU A   1      -7.958   5.202  65.046  1.00  0.00    -0.099 N  
HETATM   31  O   UNK A   0     -10.114   5.696  65.680  1.00  0.00     0.131 OA 
BRANCH  30  32
ATOM     32  CA  GLU A   1      -8.306   3.828  64.635  1.00  0.00    -0.097 C  
ATOM     33  C   GLU A   1      -8.270   3.730  63.098  1.00  0.00    -0.084 C  
ATOM     34  O   GLU A   1      -8.463   4.924  62.485  1.00  0.00    -0.095 OA 
ATOM     35  OXT GLU A   1      -8.233   2.677  62.476  1.00  0.00    -0.070 OA 
BRANCH  32  36
ATOM     36  CB  GLU A   1      -9.704   3.457  65.152  1.00  0.00    -0.093 C  
BRANCH  36  37
ATOM     37  CG  GLU A   1     -10.499   2.596  64.164  1.00  0.00     0.077 C  
ATOM     38  CD  GLU A   1     -11.551   3.384  63.427  1.00  0.00     1.116 C  
ATOM     39  OE2 GLU A   1     -11.780   4.573  63.587  1.00  0.00     0.736 OA 
ATOM     40  OE1 GLU A   1     -12.228   2.622  62.538  1.00  0.00     0.676 OA 
ENDBRANCH  36  37
ENDBRANCH  32  36
ENDBRANCH  30  32
ENDBRANCH  24  28
ENDBRANCH  20  22
ENDBRANCH  19  20
ENDBRANCH   4  19
TORSDOF 7
ENDMDL
MODEL      256
REMARK 921   NORMALIZED FREE ENERGY PREDICTED BY IDOCK:    8.41 KCAL/MOL
REMARK 922        TOTAL FREE ENERGY PREDICTED BY IDOCK:   10.59 KCAL/MOL
REMARK 923 INTER-LIGAND FREE ENERGY PREDICTED BY IDOCK:   -1.29 KCAL/MOL
REMARK 924 INTRA-LIGAND FREE ENERGY PREDICTED BY IDOCK:   11.88 KCAL/MOL
REMARK 927      BINDING AFFINITY PREDICTED BY RF-SCORE:    0.00 PKD
ROOT
HETATM    1  C   UNK A   0      -9.268   3.192  67.928  1.00  0.00    -0.196 C  
HETATM    2  N   UNK A   0      -9.939   4.104  68.730  1.00  0.00    -0.002 N  
HETATM    3  O   UNK A   0      -9.496   2.949  66.747  1.00  0.00    -0.116 OA 
HETATM    4  C   UNK A   0     -11.080   4.934  68.195  1.00  0.00     1.592 C  
HETATM    5  C   UNK A   0     -10.922   6.386  68.703  1.00  0.00    -0.330 C  
HETATM    6  C   UNK A   0      -9.000   4.793  72.743  1.00  0.00    -0.120 C  
HETATM    7  H   UNK A   0      -7.746   3.173  72.644  1.00  0.00     0.000 HD 
HETATM    8  N   UNK A   0     -10.819   6.351  70.152  1.00  0.00    -0.267 NA 
HETATM    9  H   UNK A   0     -11.315   7.048  70.707  1.00  0.00     0.000 HD 
HETATM   10  H2  UNK A   0      -8.110   4.326  74.562  1.00  0.00     0.000 HD 
HETATM   11  C   UNK A   0     -10.057   5.387  70.793  1.00  0.00    -0.220 C  
HETATM   12  O   UNK A   0      -8.528   2.194  70.501  1.00  0.00    -0.048 OA 
HETATM   13  C   UNK A   0      -9.625   4.298  70.100  1.00  0.00    -0.198 C  
HETATM   14  H1  UNK A   0      -9.123   5.790  74.504  1.00  0.00     0.000 HD 
HETATM   15  C   UNK A   0      -8.819   3.320  70.893  1.00  0.00    -0.085 C  
HETATM   16  N   UNK A   0      -9.766   5.618  72.114  1.00  0.00    -0.153 NA 
HETATM   17  N   UNK A   0      -8.711   4.974  74.052  1.00  0.00    -0.115 NA 
HETATM   18  N   UNK A   0      -8.453   3.711  72.144  1.00  0.00    -0.083 N  
ENDROOT
BRANCH   4  19
HETATM   19  C   UNK A   0     -11.285   4.932  66.665  1.00  0.00     1.271 C  
BRANCH  19  20
HETATM   20  N   UNK A   0     -11.151   6.280  66.089  1.00  0.00    -0.256 NA 
HETATM   21  H   UNK A   0     -11.780   6.611  65.357  1.00  0.00     0.000 HD 
BRANCH  20  22
HETATM   22  C   UNK A   0     -10.123   7.088  66.589  1.00  0.00    -0.148 A  
HETATM   23  C   UNK A   0      -9.415   9.310  67.296  1.00  0.00    -0.181 A  
HETATM   24  C   UNK A   0      -8.246   8.766  67.838  1.00  0.00    -0.111 A  
HETATM   25  C   UNK A   0      -8.892   6.586  67.027  1.00  0.00    -0.116 A  
HETATM   26  C   UNK A   0     -10.341   8.469  66.666  1.00  0.00    -0.303 A  
HETATM   27  C   UNK A   0      -7.961   7.411  67.654  1.00  0.00    -0.114 A  
BRANCH  24  28
HETATM   28  C   UNK A   0      -7.316   9.627  68.607  1.00  0.00    -0.074 C  
ATOM     29  H   GLU A   1      -8.548  11.296  68.300  1.00  0.00     0.000 HD 
ATOM     30  N   GLU A   1      -7.658  10.971  68.679  1.00  0.00    -0.115 N  
HETATM   31  O   UNK A   0      -6.299   9.166  69.109  1.00  0.00    -0.042 OA 
BRANCH  30  32
ATOM     32  CA  GLU A   1      -6.726  11.927  69.306  1.00  0.00    -0.099 C  
ATOM     33  C   GLU A   1      -6.930  13.322  68.686  1.00  0.00    -0.101 C  
ATOM     34  O   GLU A   1      -7.460  13.277  67.438  1.00  0.00    -0.162 OA 
ATOM     35  OXT GLU A   1      -6.518  14.363  69.180  1.00  0.00    -0.095 OA 
BRANCH  32  36
ATOM     36  CB  GLU A   1      -5.274  11.468  69.098  1.00  0.00    -0.043 C  
BRANCH  36  37
ATOM     37  CG  GLU A   1      -5.167  10.168  68.294  1.00  0.00    -0.035 C  
ATOM     38  CD  GLU A   1      -5.457  10.370  66.828  1.00  0.00    -0.043 C  
ATOM     39  OE2 GLU A   1      -5.761  11.433  66.312  1.00  0.00    -0.147 OA 
ATOM     40  OE1 GLU A   1      -5.332   9.223  66.122  1.00  0.00    -0.036 OA 
ENDBRANCH  36  37
ENDBRANCH  32  36
ENDBRANCH  30  32
ENDBRANCH  24  28
ENDBRANCH  20  22
ENDBRANCH  19  20
ENDBRANCH   4  19
TORSDOF 7
ENDMDL
MODEL      257
REMARK 921   NORMALIZED FREE ENERGY PREDICTED BY IDOCK:    8.48 KCAL/MOL
REMARK 922        TOTAL FREE ENERGY PREDICTED BY IDOCK:   10.68 KCAL/MOL
REMARK 923 INTER-LIGAND FREE ENERGY PREDICTED BY IDOCK:    2.71 KCAL/MOL
REMARK 924 INTRA-LIGAND FREE ENERGY PREDICTED BY IDOCK:    7.96 KCAL/MOL
REMARK 927      BINDING AFFINITY PREDICTED BY RF-SCORE:    0.00 PKD
ROOT
HETATM    1  C   UNK A   0      -9.269  12.234  64.577  1.00  0.00     0.584 C  
HETATM    2  N   UNK A   0      -9.944  12.024  65.771  1.00  0.00    -0.237 N  
HETATM    3  O   UNK A   0      -9.683  12.851  63.600  1.00  0.00    -0.078 OA 
HETATM    4  C   UNK A   0     -11.334  12.568  65.997  1.00  0.00    -0.344 C  
HETATM    5  C   UNK A   0     -11.410  13.167  67.420  1.00  0.00    -0.306 C  
HETATM    6  C   UNK A   0      -8.349   9.896  68.993  1.00  0.00    -0.130 C  
HETATM    7  H   UNK A   0      -6.805   9.344  67.760  1.00  0.00     0.000 HD 
HETATM    8  N   UNK A   0     -10.992  12.146  68.365  1.00  0.00    -0.221 NA 
HETATM    9  H   UNK A   0     -11.505  12.032  69.240  1.00  0.00     0.000 HD 
HETATM   10  H2  UNK A   0      -7.005   8.588  69.889  1.00  0.00     0.000 HD 
HETATM   11  C   UNK A   0      -9.909  11.324  68.100  1.00  0.00    -0.183 C  
HETATM   12  O   UNK A   0      -7.782  10.009  65.577  1.00  0.00    -0.122 OA 
HETATM   13  C   UNK A   0      -9.396  11.270  66.840  1.00  0.00    -0.177 C  
HETATM   14  H1  UNK A   0      -8.318   9.229  70.908  1.00  0.00     0.000 HD 
HETATM   15  C   UNK A   0      -8.234  10.345  66.667  1.00  0.00    -0.128 C  
HETATM   16  N   UNK A   0      -9.402  10.620  69.164  1.00  0.00    -0.303 NA 
HETATM   17  N   UNK A   0      -7.835   9.168  70.011  1.00  0.00    -0.086 NA 
HETATM   18  N   UNK A   0      -7.708   9.815  67.805  1.00  0.00    -0.091 N  
ENDROOT
BRANCH   4  19
HETATM   19  C   UNK A   0     -11.857  13.591  64.966  1.00  0.00    -0.353 C  
BRANCH  19  20
HETATM   20  N   UNK A   0     -12.061  14.921  65.565  1.00  0.00    -0.120 NA 
HETATM   21  H   UNK A   0     -12.831  15.523  65.274  1.00  0.00     0.000 HD 
BRANCH  20  22
HETATM   22  C   UNK A   0     -11.152  15.323  66.550  1.00  0.00    -0.271 A  
HETATM   23  C   UNK A   0     -10.442  17.059  68.107  1.00  0.00    -0.357 A  
HETATM   24  C   UNK A   0      -9.572  16.153  68.722  1.00  0.00    -0.235 A  
HETATM   25  C   UNK A   0     -10.186  14.473  67.100  1.00  0.00    -0.260 A  
HETATM   26  C   UNK A   0     -11.219  16.641  67.018  1.00  0.00     0.294 A  
HETATM   27  C   UNK A   0      -9.406  14.876  68.182  1.00  0.00    -0.193 A  
BRANCH  24  28
HETATM   28  C   UNK A   0      -8.833  16.551  69.943  1.00  0.00     0.990 C  
ATOM     29  H   GLU A   1      -7.288  17.370  68.786  1.00  0.00     0.000 HD 
ATOM     30  N   GLU A   1      -7.596  17.146  69.732  1.00  0.00     0.566 N  
HETATM   31  O   UNK A   0      -9.289  16.327  71.057  1.00  0.00     2.659 OA 
BRANCH  30  32
ATOM     32  CA  GLU A   1      -6.729  17.452  70.887  1.00  0.00     2.561 C  
ATOM     33  C   GLU A   1      -5.785  18.613  70.523  1.00  0.00    -0.154 C  
ATOM     34  O   GLU A   1      -5.571  18.727  69.189  1.00  0.00    -0.199 OA 
ATOM     35  OXT GLU A   1      -5.158  19.273  71.341  1.00  0.00    -0.272 OA 
BRANCH  32  36
ATOM     36  CB  GLU A   1      -5.910  16.213  71.280  1.00  0.00     0.663 C  
BRANCH  36  37
ATOM     37  CG  GLU A   1      -5.783  15.194  70.143  1.00  0.00    -0.134 C  
ATOM     38  CD  GLU A   1      -5.796  13.770  70.639  1.00  0.00    -0.187 C  
ATOM     39  OE2 GLU A   1      -5.881  13.435  71.810  1.00  0.00    -0.373 OA 
ATOM     40  OE1 GLU A   1      -5.711  12.878  69.626  1.00  0.00    -0.088 OA 
ENDBRANCH  36  37
ENDBRANCH  32  36
ENDBRANCH  30  32
ENDBRANCH  24  28
ENDBRANCH  20  22
ENDBRANCH  19  20
ENDBRANCH   4  19
TORSDOF 7
ENDMDL
MODEL      258
REMARK 921   NORMALIZED FREE ENERGY PREDICTED BY IDOCK:    9.56 KCAL/MOL
REMARK 922        TOTAL FREE ENERGY PREDICTED BY IDOCK:   12.21 KCAL/MOL
REMARK 923 INTER-LIGAND FREE ENERGY PREDICTED BY IDOCK:    8.08 KCAL/MOL
REMARK 924 INTRA-LIGAND FREE ENERGY PREDICTED BY IDOCK:    4.12 KCAL/MOL
REMARK 927      BINDING AFFINITY PREDICTED BY RF-SCORE:    0.00 PKD
ROOT
HETATM    1  C   UNK A   0      -7.705  19.754  69.681  1.00  0.00     0.223 C  
HETATM    2  N   UNK A   0      -8.079  19.365  68.402  1.00  0.00    -0.333 N  
HETATM    3  O   UNK A   0      -8.296  20.548  70.407  1.00  0.00     1.205 OA 
HETATM    4  C   UNK A   0      -9.323  19.911  67.744  1.00  0.00    -0.347 C  
HETATM    5  C   UNK A   0     -10.067  18.751  67.044  1.00  0.00    -0.358 C  
HETATM    6  C   UNK A   0      -5.927  16.631  66.089  1.00  0.00     0.903 C  
HETATM    7  H   UNK A   0      -4.444  16.725  67.502  1.00  0.00     0.000 HD 
HETATM    8  N   UNK A   0      -9.138  18.094  66.143  1.00  0.00    -0.508 NA 
HETATM    9  H   UNK A   0      -9.454  17.809  65.216  1.00  0.00     0.000 HD 
HETATM   10  H2  UNK A   0      -4.246  15.515  65.595  1.00  0.00     0.000 HD 
HETATM   11  C   UNK A   0      -7.828  17.846  66.520  1.00  0.00    -0.264 C  
HETATM   12  O   UNK A   0      -5.205  18.734  68.746  1.00  0.00    -0.186 OA 
HETATM   13  C   UNK A   0      -7.316  18.460  67.622  1.00  0.00    -0.215 C  
HETATM   14  H1  UNK A   0      -5.644  15.407  64.497  1.00  0.00     0.000 HD 
HETATM   15  C   UNK A   0      -5.891  18.126  67.930  1.00  0.00    -0.159 C  
HETATM   16  N   UNK A   0      -7.127  16.957  65.744  1.00  0.00     0.232 NA 
HETATM   17  N   UNK A   0      -5.197  15.777  65.336  1.00  0.00     5.029 NA 
HETATM   18  N   UNK A   0      -5.334  17.121  67.201  1.00  0.00    -0.139 N  
ENDROOT
BRANCH   4  19
HETATM   19  C   UNK A   0     -10.300  20.696  68.646  1.00  0.00     0.331 C  
BRANCH  19  20
HETATM   20  N   UNK A   0     -11.265  19.809  69.315  1.00  0.00     1.359 NA 
HETATM   21  H   UNK A   0     -12.111  20.175  69.753  1.00  0.00     0.000 HD 
BRANCH  20  22
HETATM   22  C   UNK A   0     -10.974  18.440  69.325  1.00  0.00     1.454 A  
HETATM   23  C   UNK A   0     -11.111  16.301  68.165  1.00  0.00    -0.329 A  
HETATM   24  C   UNK A   0     -10.219  15.743  69.086  1.00  0.00    -0.231 A  
HETATM   25  C   UNK A   0     -10.182  17.827  70.303  1.00  0.00     1.306 A  
HETATM   26  C   UNK A   0     -11.492  17.643  68.296  1.00  0.00     0.865 A  
HETATM   27  C   UNK A   0      -9.798  16.493  70.186  1.00  0.00     0.746 A  
BRANCH  24  28
HETATM   28  C   UNK A   0      -9.721  14.360  68.890  1.00  0.00    -0.144 C  
ATOM     29  H   GLU A   1     -11.514  13.808  67.952  1.00  0.00     0.000 HD 
ATOM     30  N   GLU A   1     -10.617  13.475  68.304  1.00  0.00    -0.243 N  
HETATM   31  O   UNK A   0      -8.601  14.035  69.261  1.00  0.00     0.194 OA 
BRANCH  30  32
ATOM     32  CA  GLU A   1     -10.260  12.047  68.192  1.00  0.00    -0.201 C  
ATOM     33  C   GLU A   1      -9.759  11.756  66.765  1.00  0.00    -0.197 C  
ATOM     34  O   GLU A   1     -10.230  12.635  65.846  1.00  0.00    -0.264 OA 
ATOM     35  OXT GLU A   1      -9.134  10.754  66.446  1.00  0.00    -0.163 OA 
BRANCH  32  36
ATOM     36  CB  GLU A   1     -11.480  11.169  68.509  1.00  0.00    -0.371 C  
BRANCH  36  37
ATOM     37  CG  GLU A   1     -11.587  10.806  69.994  1.00  0.00    -0.417 C  
ATOM     38  CD  GLU A   1     -10.521   9.832  70.429  1.00  0.00    -0.297 C  
ATOM     39  OE2 GLU A   1      -9.665   9.356  69.701  1.00  0.00    -0.171 OA 
ATOM     40  OE1 GLU A   1     -10.606   9.539  71.747  1.00  0.00    -0.227 OA 
ENDBRANCH  36  37
ENDBRANCH  32  36
ENDBRANCH  30  32
ENDBRANCH  24  28
ENDBRANCH  20  22
ENDBRANCH  19  20
ENDBRANCH   4  19
TORSDOF 7
ENDMDL
MODEL      259
REMARK 921   NORMALIZED FREE ENERGY PREDICTED BY IDOCK:   11.54 KCAL/MOL
REMARK 922        TOTAL FREE ENERGY PREDICTED BY IDOCK:   15.00 KCAL/MOL
REMARK 923 INTER-LIGAND FREE ENERGY PREDICTED BY IDOCK:    5.05 KCAL/MOL
REMARK 924 INTRA-LIGAND FREE ENERGY PREDICTED BY IDOCK:    9.94 KCAL/MOL
REMARK 927      BINDING AFFINITY PREDICTED BY RF-SCORE:    0.00 PKD
ROOT
HETATM    1  C   UNK A   0     -12.066  10.327  68.540  1.00  0.00     0.814 C  
HETATM    2  N   UNK A   0     -10.942   9.947  67.821  1.00  0.00    -0.433 N  
HETATM    3  O   UNK A   0     -13.027  10.962  68.114  1.00  0.00     1.993 OA 
HETATM    4  C   UNK A   0     -10.783  10.298  66.362  1.00  0.00    -0.033 C  
HETATM    5  C   UNK A   0     -10.237   9.063  65.609  1.00  0.00     0.560 C  
HETATM    6  C   UNK A   0      -7.772   7.771  69.456  1.00  0.00    -0.105 C  
HETATM    7  H   UNK A   0      -8.634   8.051  71.296  1.00  0.00     0.000 HD 
HETATM    8  N   UNK A   0      -9.017   8.632  66.269  1.00  0.00    -0.161 NA 
HETATM    9  H   UNK A   0      -8.216   8.345  65.707  1.00  0.00     0.000 HD 
HETATM   10  H2  UNK A   0      -6.644   7.001  71.022  1.00  0.00     0.000 HD 
HETATM   11  C   UNK A   0      -8.923   8.602  67.652  1.00  0.00    -0.135 C  
HETATM   12  O   UNK A   0     -10.271   9.822  70.704  1.00  0.00    -0.279 OA 
HETATM   13  C   UNK A   0      -9.862   9.237  68.405  1.00  0.00    -0.155 C  
HETATM   14  H1  UNK A   0      -6.050   6.705  69.370  1.00  0.00     0.000 HD 
HETATM   15  C   UNK A   0      -9.657   9.146  69.884  1.00  0.00    -0.192 C  
HETATM   16  N   UNK A   0      -7.870   7.895  68.176  1.00  0.00    -0.124 NA 
HETATM   17  N   UNK A   0      -6.735   7.103  70.012  1.00  0.00    -0.050 NA 
HETATM   18  N   UNK A   0      -8.681   8.298  70.308  1.00  0.00    -0.137 N  
ENDROOT
BRANCH   4  19
HETATM   19  C   UNK A   0     -12.032  10.846  65.638  1.00  0.00     2.049 C  
BRANCH  19  20
HETATM   20  N   UNK A   0     -12.749  11.841  66.453  1.00  0.00     1.799 NA 
HETATM   21  H   UNK A   0     -13.717  11.697  66.739  1.00  0.00     0.000 HD 
BRANCH  20  22
HETATM   22  C   UNK A   0     -12.044  12.993  66.819  1.00  0.00    -0.300 A  
HETATM   23  C   UNK A   0     -11.700  14.757  68.466  1.00  0.00    -0.347 A  
HETATM   24  C   UNK A   0     -10.531  15.147  67.805  1.00  0.00    -0.247 A  
HETATM   25  C   UNK A   0     -10.941  13.481  66.107  1.00  0.00    -0.289 A  
HETATM   26  C   UNK A   0     -12.455  13.689  67.963  1.00  0.00     0.285 A  
HETATM   27  C   UNK A   0     -10.183  14.543  66.595  1.00  0.00    -0.276 A  
BRANCH  24  28
HETATM   28  C   UNK A   0      -9.665  16.198  68.391  1.00  0.00    -0.219 C  
ATOM     29  H   GLU A   1     -10.922  17.702  67.645  1.00  0.00     0.000 HD 
ATOM     30  N   GLU A   1     -10.045  17.508  68.129  1.00  0.00    -0.321 N  
HETATM   31  O   UNK A   0      -8.666  15.905  69.034  1.00  0.00    -0.206 OA 
BRANCH  30  32
ATOM     32  CA  GLU A   1      -9.173  18.618  68.556  1.00  0.00    -0.347 C  
ATOM     33  C   GLU A   1      -9.995  19.626  69.381  1.00  0.00    -0.170 C  
ATOM     34  O   GLU A   1     -11.321  19.588  69.099  1.00  0.00     1.955 OA 
ATOM     35  OXT GLU A   1      -9.507  20.488  70.100  1.00  0.00     0.799 OA 
BRANCH  32  36
ATOM     36  CB  GLU A   1      -8.563  19.316  67.331  1.00  0.00    -0.322 C  
BRANCH  36  37
ATOM     37  CG  GLU A   1      -9.230  18.906  66.014  1.00  0.00    -0.043 C  
ATOM     38  CD  GLU A   1     -10.716  18.698  66.160  1.00  0.00    -0.231 C  
ATOM     39  OE2 GLU A   1     -11.344  18.820  67.199  1.00  0.00     0.067 OA 
ATOM     40  OE1 GLU A   1     -11.301  18.363  64.987  1.00  0.00    -0.147 OA 
ENDBRANCH  36  37
ENDBRANCH  32  36
ENDBRANCH  30  32
ENDBRANCH  24  28
ENDBRANCH  20  22
ENDBRANCH  19  20
ENDBRANCH   4  19
TORSDOF 7
ENDMDL
MODEL      260
REMARK 921   NORMALIZED FREE ENERGY PREDICTED BY IDOCK:   12.67 KCAL/MOL
REMARK 922        TOTAL FREE ENERGY PREDICTED BY IDOCK:   16.58 KCAL/MOL
REMARK 923 INTER-LIGAND FREE ENERGY PREDICTED BY IDOCK:   -1.29 KCAL/MOL
REMARK 924 INTRA-LIGAND FREE ENERGY PREDICTED BY IDOCK:   17.87 KCAL/MOL
REMARK 927      BINDING AFFINITY PREDICTED BY RF-SCORE:    0.00 PKD
ROOT
HETATM    1  C   UNK A   0     -11.663   8.682  71.159  1.00  0.00    -0.288 C  
HETATM    2  N   UNK A   0     -11.051   7.695  70.398  1.00  0.00    -0.261 N  
HETATM    3  O   UNK A   0     -12.014   8.589  72.332  1.00  0.00    -0.376 OA 
HETATM    4  C   UNK A   0     -10.740   6.335  70.973  1.00  0.00    -0.259 C  
HETATM    5  C   UNK A   0      -9.322   5.916  70.521  1.00  0.00    -0.163 C  
HETATM    6  C   UNK A   0      -9.921   8.214  66.409  1.00  0.00    -0.168 C  
HETATM    7  H   UNK A   0     -10.939   9.994  66.435  1.00  0.00     0.000 HD 
HETATM    8  N   UNK A   0      -9.266   5.993  69.071  1.00  0.00    -0.121 NA 
HETATM    9  H   UNK A   0      -8.795   5.256  68.547  1.00  0.00     0.000 HD 
HETATM   10  H2  UNK A   0      -9.949   9.175  64.567  1.00  0.00     0.000 HD 
HETATM   11  C   UNK A   0      -9.843   7.052  68.388  1.00  0.00    -0.146 C  
HETATM   12  O   UNK A   0     -12.214   9.692  68.544  1.00  0.00     1.114 OA 
HETATM   13  C   UNK A   0     -10.706   7.882  69.035  1.00  0.00    -0.096 C  
HETATM   14  H1  UNK A   0      -8.988   7.681  64.689  1.00  0.00     0.000 HD 
HETATM   15  C   UNK A   0     -11.273   8.985  68.199  1.00  0.00     0.417 C  
HETATM   16  N   UNK A   0      -9.473   7.204  67.074  1.00  0.00    -0.147 NA 
HETATM   17  N   UNK A   0      -9.599   8.384  65.106  1.00  0.00     0.010 NA 
HETATM   18  N   UNK A   0     -10.730   9.146  66.962  1.00  0.00    -0.253 N  
ENDROOT
BRANCH   4  19
HETATM   19  C   UNK A   0     -10.872   6.180  72.503  1.00  0.00    -0.240 C  
BRANCH  19  20
HETATM   20  N   UNK A   0      -9.788   6.870  73.222  1.00  0.00    -0.182 NA 
HETATM   21  H   UNK A   0      -9.632   6.722  74.219  1.00  0.00     0.000 HD 
BRANCH  20  22
HETATM   22  C   UNK A   0      -8.981   7.739  72.479  1.00  0.00    -0.159 A  
HETATM   23  C   UNK A   0      -8.772   9.195  70.536  1.00  0.00    -0.258 A  
HETATM   24  C   UNK A   0      -7.573   9.705  71.045  1.00  0.00     0.181 A  
HETATM   25  C   UNK A   0      -7.719   8.173  72.906  1.00  0.00    -0.190 A  
HETATM   26  C   UNK A   0      -9.463   8.208  71.251  1.00  0.00    -0.199 A  
HETATM   27  C   UNK A   0      -7.021   9.152  72.203  1.00  0.00     0.255 A  
BRANCH  24  28
HETATM   28  C   UNK A   0      -6.895  10.828  70.356  1.00  0.00     0.173 C  
ATOM     29  H   GLU A   1      -6.788   9.722  68.578  1.00  0.00     0.000 HD 
ATOM     30  N   GLU A   1      -6.516  10.589  69.042  1.00  0.00    -0.051 N  
HETATM   31  O   UNK A   0      -6.664  11.878  70.941  1.00  0.00     0.668 OA 
BRANCH  30  32
ATOM     32  CA  GLU A   1      -5.716  11.597  68.320  1.00  0.00    -0.045 C  
ATOM     33  C   GLU A   1      -6.005  12.992  68.906  1.00  0.00    -0.079 C  
ATOM     34  O   GLU A   1      -7.216  13.075  69.510  1.00  0.00     0.158 OA 
ATOM     35  OXT GLU A   1      -5.302  13.976  68.718  1.00  0.00    -0.078 OA 
BRANCH  32  36
ATOM     36  CB  GLU A   1      -6.060  11.576  66.823  1.00  0.00    -0.147 C  
BRANCH  36  37
ATOM     37  CG  GLU A   1      -5.342  10.458  66.059  1.00  0.00    -0.070 C  
ATOM     38  CD  GLU A   1      -6.255   9.732  65.104  1.00  0.00    -0.092 C  
ATOM     39  OE2 GLU A   1      -7.440   9.974  64.944  1.00  0.00    -0.131 OA 
ATOM     40  OE1 GLU A   1      -5.606   8.766  64.415  1.00  0.00    -0.061 OA 
ENDBRANCH  36  37
ENDBRANCH  32  36
ENDBRANCH  30  32
ENDBRANCH  24  28
ENDBRANCH  20  22
ENDBRANCH  19  20
ENDBRANCH   4  19
TORSDOF 7
ENDMDL
MODEL      261
REMARK 921   NORMALIZED FREE ENERGY PREDICTED BY IDOCK:   15.50 KCAL/MOL
REMARK 922        TOTAL FREE ENERGY PREDICTED BY IDOCK:   20.57 KCAL/MOL
REMARK 923 INTER-LIGAND FREE ENERGY PREDICTED BY IDOCK:    1.66 KCAL/MOL
REMARK 924 INTRA-LIGAND FREE ENERGY PREDICTED BY IDOCK:   18.91 KCAL/MOL
REMARK 927      BINDING AFFINITY PREDICTED BY RF-SCORE:    0.00 PKD
ROOT
HETATM    1  C   UNK A   0      -8.628   9.434  66.543  1.00  0.00    -0.134 C  
HETATM    2  N   UNK A   0      -9.890   9.984  66.724  1.00  0.00    -0.189 N  
HETATM    3  O   UNK A   0      -8.019   9.332  65.483  1.00  0.00    -0.100 OA 
HETATM    4  C   UNK A   0     -10.679  10.543  65.565  1.00  0.00     0.023 C  
HETATM    5  C   UNK A   0     -11.322  11.880  66.000  1.00  0.00    -0.316 C  
HETATM    6  C   UNK A   0     -11.795  10.246  70.433  1.00  0.00    -0.309 C  
HETATM    7  H   UNK A   0     -10.296   9.072  71.196  1.00  0.00     0.000 HD 
HETATM    8  N   UNK A   0     -12.095  11.641  67.207  1.00  0.00    -0.436 NA 
HETATM    9  H   UNK A   0     -13.012  12.075  67.309  1.00  0.00     0.000 HD 
HETATM   10  H2  UNK A   0     -12.069   9.754  72.434  1.00  0.00     0.000 HD 
HETATM   11  C   UNK A   0     -11.607  10.834  68.221  1.00  0.00    -0.221 C  
HETATM   12  O   UNK A   0      -9.292   8.275  69.069  1.00  0.00    -0.147 OA 
HETATM   13  C   UNK A   0     -10.531  10.032  67.987  1.00  0.00    -0.218 C  
HETATM   14  H1  UNK A   0     -13.247  10.872  71.702  1.00  0.00     0.000 HD 
HETATM   15  C   UNK A   0     -10.096   9.199  69.150  1.00  0.00    -0.194 C  
HETATM   16  N   UNK A   0     -12.249  10.919  69.431  1.00  0.00    -0.524 NA 
HETATM   17  N   UNK A   0     -12.415  10.285  71.635  1.00  0.00    -0.405 NA 
HETATM   18  N   UNK A   0     -10.692   9.468  70.344  1.00  0.00    -0.260 N  
ENDROOT
BRANCH   4  19
HETATM   19  C   UNK A   0      -9.921  10.732  64.233  1.00  0.00    -0.341 C  
BRANCH  19  20
HETATM   20  N   UNK A   0     -10.029  12.111  63.729  1.00  0.00    -0.545 NA 
HETATM   21  H   UNK A   0     -10.486  12.318  62.841  1.00  0.00     0.000 HD 
BRANCH  20  22
HETATM   22  C   UNK A   0      -9.479  13.125  64.520  1.00  0.00     0.741 A  
HETATM   23  C   UNK A   0      -9.287  15.515  64.960  1.00  0.00     1.036 A  
HETATM   24  C   UNK A   0      -8.667  15.241  66.184  1.00  0.00    -0.060 A  
HETATM   25  C   UNK A   0      -8.746  12.880  65.689  1.00  0.00     1.082 A  
HETATM   26  C   UNK A   0      -9.680  14.456  64.131  1.00  0.00     2.665 A  
HETATM   27  C   UNK A   0      -8.349  13.924  66.521  1.00  0.00     0.421 A  
BRANCH  24  28
HETATM   28  C   UNK A   0      -8.352  16.348  67.118  1.00  0.00    -0.187 C  
ATOM     29  H   GLU A   1      -9.311  17.729  65.863  1.00  0.00     0.000 HD 
ATOM     30  N   GLU A   1      -8.752  17.614  66.709  1.00  0.00    -0.249 N  
HETATM   31  O   UNK A   0      -7.748  16.140  68.161  1.00  0.00    -0.137 OA 
BRANCH  30  32
ATOM     32  CA  GLU A   1      -8.364  18.793  67.508  1.00  0.00    -0.265 C  
ATOM     33  C   GLU A   1      -9.621  19.617  67.846  1.00  0.00    -0.356 C  
ATOM     34  O   GLU A   1     -10.634  19.427  66.965  1.00  0.00    -0.427 OA 
ATOM     35  OXT GLU A   1      -9.667  20.476  68.716  1.00  0.00     0.111 OA 
BRANCH  32  36
ATOM     36  CB  GLU A   1      -7.364  19.658  66.727  1.00  0.00    -0.247 C  
BRANCH  36  37
ATOM     37  CG  GLU A   1      -8.020  20.464  65.601  1.00  0.00     0.138 C  
ATOM     38  CD  GLU A   1      -9.521  20.524  65.732  1.00  0.00     0.272 C  
ATOM     39  OE2 GLU A   1     -10.171  19.989  66.616  1.00  0.00    -0.436 OA 
ATOM     40  OE1 GLU A   1     -10.089  21.260  64.750  1.00  0.00     1.872 OA 
ENDBRANCH  36  37
ENDBRANCH  32  36
ENDBRANCH  30  32
ENDBRANCH  24  28
ENDBRANCH  20  22
ENDBRANCH  19  20
ENDBRANCH   4  19
TORSDOF 7
ENDMDL
MODEL      262
REMARK 921   NORMALIZED FREE ENERGY PREDICTED BY IDOCK:   15.64 KCAL/MOL
REMARK 922        TOTAL FREE ENERGY PREDICTED BY IDOCK:   20.76 KCAL/MOL
REMARK 923 INTER-LIGAND FREE ENERGY PREDICTED BY IDOCK:   19.34 KCAL/MOL
REMARK 924 INTRA-LIGAND FREE ENERGY PREDICTED BY IDOCK:    1.42 KCAL/MOL
REMARK 927      BINDING AFFINITY PREDICTED BY RF-SCORE:    0.00 PKD
ROOT
HETATM    1  C   UNK A   0     -11.889   8.926  65.546  1.00  0.00     9.228 C  
HETATM    2  N   UNK A   0     -11.044   8.233  66.401  1.00  0.00     0.592 N  
HETATM    3  O   UNK A   0     -12.227  10.103  65.645  1.00  0.00     3.888 OA 
HETATM    4  C   UNK A   0     -10.423   8.898  67.605  1.00  0.00    -0.255 C  
HETATM    5  C   UNK A   0      -8.938   8.476  67.697  1.00  0.00    -0.135 C  
HETATM    6  C   UNK A   0     -10.006   4.219  65.882  1.00  0.00    -0.219 C  
HETATM    7  H   UNK A   0     -11.425   4.126  64.404  1.00  0.00     0.000 HD 
HETATM    8  N   UNK A   0      -8.878   7.024  67.701  1.00  0.00    -0.120 NA 
HETATM    9  H   UNK A   0      -8.234   6.551  68.334  1.00  0.00     0.000 HD 
HETATM   10  H2  UNK A   0     -10.235   2.317  65.077  1.00  0.00     0.000 HD 
HETATM   11  C   UNK A   0      -9.682   6.272  66.860  1.00  0.00    -0.151 C  
HETATM   12  O   UNK A   0     -12.625   6.250  64.870  1.00  0.00     6.642 OA 
HETATM   13  C   UNK A   0     -10.731   6.861  66.224  1.00  0.00     0.655 C  
HETATM   14  H1  UNK A   0      -8.943   2.540  66.283  1.00  0.00     0.000 HD 
HETATM   15  C   UNK A   0     -11.534   5.953  65.349  1.00  0.00     3.140 C  
HETATM   16  N   UNK A   0      -9.339   4.951  66.709  1.00  0.00    -0.131 NA 
HETATM   17  N   UNK A   0      -9.713   2.908  65.724  1.00  0.00    -0.376 NA 
HETATM   18  N   UNK A   0     -11.026   4.708  65.141  1.00  0.00    -0.805 N  
ENDROOT
BRANCH   4  19
HETATM   19  C   UNK A   0     -10.539  10.435  67.689  1.00  0.00    -0.257 C  
BRANCH  19  20
HETATM   20  N   UNK A   0      -9.803  10.981  68.841  1.00  0.00    -0.252 NA 
HETATM   21  H   UNK A   0      -9.587  11.975  68.912  1.00  0.00     0.000 HD 
BRANCH  20  22
HETATM   22  C   UNK A   0      -9.411  10.077  69.835  1.00  0.00    -0.181 A  
HETATM   23  C   UNK A   0     -10.050   8.759  71.783  1.00  0.00    -0.403 A  
HETATM   24  C   UNK A   0      -8.838   8.065  71.712  1.00  0.00    -0.184 A  
HETATM   25  C   UNK A   0      -8.156   9.456  69.861  1.00  0.00    -0.142 A  
HETATM   26  C   UNK A   0     -10.325   9.768  70.850  1.00  0.00    -0.245 A  
HETATM   27  C   UNK A   0      -7.869   8.453  70.783  1.00  0.00    -0.089 A  
BRANCH  24  28
HETATM   28  C   UNK A   0      -8.586   6.921  72.620  1.00  0.00    -0.120 C  
ATOM     29  H   GLU A   1      -7.484   5.935  71.133  1.00  0.00     0.000 HD 
ATOM     30  N   GLU A   1      -7.876   5.860  72.072  1.00  0.00    -0.105 N  
HETATM   31  O   UNK A   0      -9.015   6.920  73.766  1.00  0.00    -0.140 OA 
BRANCH  30  32
ATOM     32  CA  GLU A   1      -7.695   4.623  72.856  1.00  0.00    -0.088 C  
ATOM     33  C   GLU A   1      -6.245   4.553  73.370  1.00  0.00    -0.032 C  
ATOM     34  O   GLU A   1      -5.376   5.268  72.612  1.00  0.00    -0.015 OA 
ATOM     35  OXT GLU A   1      -5.867   3.811  74.267  1.00  0.00    -0.010 OA 
BRANCH  32  36
ATOM     36  CB  GLU A   1      -8.004   3.394  71.988  1.00  0.00    -0.063 C  
BRANCH  36  37
ATOM     37  CG  GLU A   1      -7.545   3.555  70.535  1.00  0.00    -0.040 C  
ATOM     38  CD  GLU A   1      -8.567   3.052  69.547  1.00  0.00    -0.067 C  
ATOM     39  OE2 GLU A   1      -9.642   2.553  69.841  1.00  0.00    -0.100 OA 
ATOM     40  OE1 GLU A   1      -8.165   3.224  68.267  1.00  0.00    -0.075 OA 
ENDBRANCH  36  37
ENDBRANCH  32  36
ENDBRANCH  30  32
ENDBRANCH  24  28
ENDBRANCH  20  22
ENDBRANCH  19  20
ENDBRANCH   4  19
TORSDOF 7
ENDMDL
MODEL      263
REMARK 921   NORMALIZED FREE ENERGY PREDICTED BY IDOCK:   19.01 KCAL/MOL
REMARK 922        TOTAL FREE ENERGY PREDICTED BY IDOCK:   25.51 KCAL/MOL
REMARK 923 INTER-LIGAND FREE ENERGY PREDICTED BY IDOCK:    2.29 KCAL/MOL
REMARK 924 INTRA-LIGAND FREE ENERGY PREDICTED BY IDOCK:   23.22 KCAL/MOL
REMARK 927      BINDING AFFINITY PREDICTED BY RF-SCORE:    0.00 PKD
ROOT
HETATM    1  C   UNK A   0     -11.758   9.114  71.209  1.00  0.00    -0.326 C  
HETATM    2  N   UNK A   0     -11.442   7.776  71.019  1.00  0.00    -0.279 N  
HETATM    3  O   UNK A   0     -11.888   9.690  72.286  1.00  0.00    -0.072 OA 
HETATM    4  C   UNK A   0     -11.213   6.847  72.186  1.00  0.00    -0.258 C  
HETATM    5  C   UNK A   0      -9.977   5.966  71.887  1.00  0.00    -0.171 C  
HETATM    6  C   UNK A   0     -11.034   6.002  67.258  1.00  0.00    -0.261 C  
HETATM    7  H   UNK A   0     -11.778   7.734  66.449  1.00  0.00     0.000 HD 
HETATM    8  N   UNK A   0     -10.189   5.305  70.612  1.00  0.00    -0.244 NA 
HETATM    9  H   UNK A   0      -9.930   4.324  70.506  1.00  0.00     0.000 HD 
HETATM   10  H2  UNK A   0     -11.283   5.910  65.197  1.00  0.00     0.000 HD 
HETATM   11  C   UNK A   0     -10.737   5.983  69.535  1.00  0.00    -0.335 C  
HETATM   12  O   UNK A   0     -12.657   8.793  68.516  1.00  0.00     4.298 OA 
HETATM   13  C   UNK A   0     -11.341   7.187  69.733  1.00  0.00    -0.123 C  
HETATM   14  H1  UNK A   0     -10.527   4.505  65.989  1.00  0.00     0.000 HD 
HETATM   15  C   UNK A   0     -11.903   7.825  68.503  1.00  0.00     2.048 C  
HETATM   16  N   UNK A   0     -10.608   5.384  68.307  1.00  0.00    -0.125 NA 
HETATM   17  N   UNK A   0     -10.947   5.434  66.034  1.00  0.00    -0.764 NA 
HETATM   18  N   UNK A   0     -11.589   7.234  67.318  1.00  0.00     0.035 N  
ENDROOT
BRANCH   4  19
HETATM   19  C   UNK A   0     -11.070   7.500  73.578  1.00  0.00     0.114 C  
BRANCH  19  20
HETATM   20  N   UNK A   0      -9.865   8.341  73.671  1.00  0.00     0.122 NA 
HETATM   21  H   UNK A   0      -9.534   8.698  74.567  1.00  0.00     0.000 HD 
BRANCH  20  22
HETATM   22  C   UNK A   0      -9.195   8.630  72.477  1.00  0.00    -0.133 A  
HETATM   23  C   UNK A   0      -9.328   8.906  70.059  1.00  0.00    -0.184 A  
HETATM   24  C   UNK A   0      -8.042   9.456  70.050  1.00  0.00    -0.159 A  
HETATM   25  C   UNK A   0      -7.865   9.066  72.426  1.00  0.00     0.413 A  
HETATM   26  C   UNK A   0      -9.893   8.487  71.271  1.00  0.00    -0.279 A  
HETATM   27  C   UNK A   0      -7.292   9.484  71.227  1.00  0.00     0.202 A  
BRANCH  24  28
HETATM   28  C   UNK A   0      -7.482  10.006  68.793  1.00  0.00    -0.081 C  
ATOM     29  H   GLU A   1      -8.102   8.309  67.729  1.00  0.00     0.000 HD 
ATOM     30  N   GLU A   1      -7.583   9.186  67.677  1.00  0.00    -0.085 N  
HETATM   31  O   UNK A   0      -6.939  11.103  68.773  1.00  0.00    -0.074 OA 
BRANCH  30  32
ATOM     32  CA  GLU A   1      -6.935   9.591  66.415  1.00  0.00    -0.088 C  
ATOM     33  C   GLU A   1      -6.336  11.000  66.578  1.00  0.00    -0.132 C  
ATOM     34  O   GLU A   1      -6.946  11.730  67.545  1.00  0.00    -0.094 OA 
ATOM     35  OXT GLU A   1      -5.506  11.488  65.822  1.00  0.00    -0.221 OA 
BRANCH  32  36
ATOM     36  CB  GLU A   1      -7.957   9.586  65.267  1.00  0.00    -0.112 C  
BRANCH  36  37
ATOM     37  CG  GLU A   1      -8.343   8.173  64.816  1.00  0.00    -0.113 C  
ATOM     38  CD  GLU A   1      -7.291   7.537  63.945  1.00  0.00    -0.092 C  
ATOM     39  OE2 GLU A   1      -6.244   8.066  63.606  1.00  0.00    -0.065 OA 
ATOM     40  OE1 GLU A   1      -7.628   6.280  63.574  1.00  0.00    -0.073 OA 
ENDBRANCH  36  37
ENDBRANCH  32  36
ENDBRANCH  30  32
ENDBRANCH  24  28
ENDBRANCH  20  22
ENDBRANCH  19  20
ENDBRANCH   4  19
TORSDOF 7
ENDMDL
MODEL      264
REMARK 921   NORMALIZED FREE ENERGY PREDICTED BY IDOCK:   22.57 KCAL/MOL
REMARK 922        TOTAL FREE ENERGY PREDICTED BY IDOCK:   30.53 KCAL/MOL
REMARK 923 INTER-LIGAND FREE ENERGY PREDICTED BY IDOCK:    7.90 KCAL/MOL
REMARK 924 INTRA-LIGAND FREE ENERGY PREDICTED BY IDOCK:   22.64 KCAL/MOL
REMARK 927      BINDING AFFINITY PREDICTED BY RF-SCORE:    0.00 PKD
ROOT
HETATM    1  C   UNK A   0      -8.312   2.583  66.709  1.00  0.00    -0.090 C  
HETATM    2  N   UNK A   0      -9.189   3.525  67.227  1.00  0.00    -0.179 N  
HETATM    3  O   UNK A   0      -8.436   1.971  65.652  1.00  0.00    -0.090 OA 
HETATM    4  C   UNK A   0     -10.452   3.912  66.497  1.00  0.00     0.891 C  
HETATM    5  C   UNK A   0     -10.616   5.448  66.563  1.00  0.00    -0.289 C  
HETATM    6  C   UNK A   0      -8.581   5.511  70.852  1.00  0.00    -0.128 C  
HETATM    7  H   UNK A   0      -7.019   4.229  71.201  1.00  0.00     0.000 HD 
HETATM    8  N   UNK A   0     -10.569   5.851  67.958  1.00  0.00    -0.243 NA 
HETATM    9  H   UNK A   0     -11.220   6.558  68.298  1.00  0.00     0.000 HD 
HETATM   10  H2  UNK A   0      -7.692   5.780  72.712  1.00  0.00     0.000 HD 
HETATM   11  C   UNK A   0      -9.654   5.290  68.834  1.00  0.00    -0.137 C  
HETATM   12  O   UNK A   0      -7.493   2.538  69.446  1.00  0.00    -0.044 OA 
HETATM   13  C   UNK A   0      -8.980   4.163  68.476  1.00  0.00    -0.118 C  
HETATM   14  H1  UNK A   0      -8.980   6.922  72.254  1.00  0.00     0.000 HD 
HETATM   15  C   UNK A   0      -8.024   3.643  69.502  1.00  0.00    -0.050 C  
HETATM   16  N   UNK A   0      -9.473   5.945  70.028  1.00  0.00    -0.156 NA 
HETATM   17  N   UNK A   0      -8.390   6.115  72.048  1.00  0.00    -0.114 NA 
HETATM   18  N   UNK A   0      -7.799   4.442  70.580  1.00  0.00    -0.056 N  
ENDROOT
BRANCH   4  19
HETATM   19  C   UNK A   0     -10.588   3.430  65.037  1.00  0.00     0.462 C  
BRANCH  19  20
HETATM   20  N   UNK A   0     -10.902   4.537  64.118  1.00  0.00    -0.353 NA 
HETATM   21  H   UNK A   0     -11.493   4.397  63.299  1.00  0.00     0.000 HD 
BRANCH  20  22
HETATM   22  C   UNK A   0     -10.355   5.790  64.418  1.00  0.00     2.933 A  
HETATM   23  C   UNK A   0     -10.230   7.659  65.977  1.00  0.00     0.658 A  
HETATM   24  C   UNK A   0      -9.135   8.173  65.275  1.00  0.00     0.135 A  
HETATM   25  C   UNK A   0      -9.340   6.389  63.662  1.00  0.00     1.928 A  
HETATM   26  C   UNK A   0     -10.840   6.476  65.538  1.00  0.00     2.886 A  
HETATM   27  C   UNK A   0      -8.726   7.565  64.086  1.00  0.00     0.572 A  
BRANCH  24  28
HETATM   28  C   UNK A   0      -8.412   9.357  65.796  1.00  0.00    -0.132 C  
ATOM     29  H   GLU A   1      -9.611   9.380  67.516  1.00  0.00     0.000 HD 
ATOM     30  N   GLU A   1      -8.880   9.868  67.000  1.00  0.00    -0.134 N  
HETATM   31  O   UNK A   0      -7.486   9.856  65.170  1.00  0.00    -0.120 OA 
BRANCH  30  32
ATOM     32  CA  GLU A   1      -8.311  11.124  67.527  1.00  0.00    -0.122 C  
ATOM     33  C   GLU A   1      -9.413  11.918  68.253  1.00  0.00    -0.197 C  
ATOM     34  O   GLU A   1     -10.661  11.614  67.819  1.00  0.00    -0.190 OA 
ATOM     35  OXT GLU A   1      -9.200  12.843  69.025  1.00  0.00     0.236 OA 
BRANCH  32  36
ATOM     36  CB  GLU A   1      -7.726  11.964  66.382  1.00  0.00     0.198 C  
BRANCH  36  37
ATOM     37  CG  GLU A   1      -7.929  11.324  65.005  1.00  0.00     0.597 C  
ATOM     38  CD  GLU A   1      -9.379  11.282  64.595  1.00  0.00    -0.135 C  
ATOM     39  OE2 GLU A   1     -10.311  11.690  65.269  1.00  0.00    -0.247 OA 
ATOM     40  OE1 GLU A   1      -9.546  10.741  63.367  1.00  0.00    -0.274 OA 
ENDBRANCH  36  37
ENDBRANCH  32  36
ENDBRANCH  30  32
ENDBRANCH  24  28
ENDBRANCH  20  22
ENDBRANCH  19  20
ENDBRANCH   4  19
TORSDOF 7
ENDMDL
MODEL      265
REMARK 921   NORMALIZED FREE ENERGY PREDICTED BY IDOCK:   22.93 KCAL/MOL
REMARK 922        TOTAL FREE ENERGY PREDICTED BY IDOCK:   31.04 KCAL/MOL
REMARK 923 INTER-LIGAND FREE ENERGY PREDICTED BY IDOCK:   22.87 KCAL/MOL
REMARK 924 INTRA-LIGAND FREE ENERGY PREDICTED BY IDOCK:    8.17 KCAL/MOL
REMARK 927      BINDING AFFINITY PREDICTED BY RF-SCORE:    0.00 PKD
ROOT
HETATM    1  C   UNK A   0     -12.373  17.205  68.250  1.00  0.00     2.618 C  
HETATM    2  N   UNK A   0     -11.428  16.515  67.505  1.00  0.00     0.148 N  
HETATM    3  O   UNK A   0     -12.221  17.671  69.376  1.00  0.00     3.317 OA 
HETATM    4  C   UNK A   0     -10.039  16.257  68.038  1.00  0.00    -0.245 C  
HETATM    5  C   UNK A   0      -9.015  16.523  66.910  1.00  0.00    -0.219 C  
HETATM    6  C   UNK A   0     -12.143  15.012  63.673  1.00  0.00     0.564 C  
HETATM    7  H   UNK A   0     -14.120  15.487  63.943  1.00  0.00     0.000 HD 
HETATM    8  N   UNK A   0      -9.387  15.718  65.760  1.00  0.00    -0.311 NA 
HETATM    9  H   UNK A   0      -8.662  15.238  65.228  1.00  0.00     0.000 HD 
HETATM   10  H2  UNK A   0     -13.355  14.428  62.089  1.00  0.00     0.000 HD 
HETATM   11  C   UNK A   0     -10.712  15.592  65.372  1.00  0.00    -0.408 C  
HETATM   12  O   UNK A   0     -14.101  15.892  66.392  1.00  0.00     5.604 OA 
HETATM   13  C   UNK A   0     -11.702  15.985  66.219  1.00  0.00     0.824 C  
HETATM   14  H1  UNK A   0     -11.602  14.177  61.907  1.00  0.00     0.000 HD 
HETATM   15  C   UNK A   0     -13.092  15.795  65.700  1.00  0.00     2.670 C  
HETATM   16  N   UNK A   0     -10.934  15.085  64.116  1.00  0.00    -0.362 NA 
HETATM   17  N   UNK A   0     -12.404  14.495  62.450  1.00  0.00     1.611 NA 
HETATM   18  N   UNK A   0     -13.206  15.436  64.393  1.00  0.00     0.341 N  
ENDROOT
BRANCH   4  19
HETATM   19  C   UNK A   0      -9.629  17.025  69.313  1.00  0.00    -0.040 C  
BRANCH  19  20
HETATM   20  N   UNK A   0     -10.688  16.997  70.337  1.00  0.00    -0.029 NA 
HETATM   21  H   UNK A   0     -11.048  17.855  70.753  1.00  0.00     0.000 HD 
BRANCH  20  22
HETATM   22  C   UNK A   0     -11.178  15.742  70.713  1.00  0.00    -0.375 A  
HETATM   23  C   UNK A   0     -11.548  14.131  72.505  1.00  0.00     1.238 A  
HETATM   24  C   UNK A   0     -12.362  13.373  71.658  1.00  0.00    -0.054 A  
HETATM   25  C   UNK A   0     -11.894  14.903  69.850  1.00  0.00    -0.355 A  
HETATM   26  C   UNK A   0     -10.952  15.305  72.025  1.00  0.00     0.054 A  
HETATM   27  C   UNK A   0     -12.490  13.733  70.314  1.00  0.00    -0.357 A  
BRANCH  24  28
HETATM   28  C   UNK A   0     -13.088  12.194  72.188  1.00  0.00    -0.275 C  
ATOM     29  H   GLU A   1     -12.291  10.978  70.677  1.00  0.00     0.000 HD 
ATOM     30  N   GLU A   1     -12.940  11.019  71.462  1.00  0.00    -0.450 N  
HETATM   31  O   UNK A   0     -13.792  12.284  73.185  1.00  0.00     0.744 OA 
BRANCH  30  32
ATOM     32  CA  GLU A   1     -13.730   9.830  71.835  1.00  0.00    -0.253 C  
ATOM     33  C   GLU A   1     -13.340   9.383  73.257  1.00  0.00     1.432 C  
ATOM     34  O   GLU A   1     -12.093   9.778  73.615  1.00  0.00     3.881 OA 
ATOM     35  OXT GLU A   1     -14.003   8.619  73.945  1.00  0.00     0.922 OA 
BRANCH  32  36
ATOM     36  CB  GLU A   1     -13.475   8.689  70.839  1.00  0.00     0.232 C  
BRANCH  36  37
ATOM     37  CG  GLU A   1     -12.121   8.803  70.131  1.00  0.00     0.481 C  
ATOM     38  CD  GLU A   1     -12.020  10.039  69.274  1.00  0.00     0.280 C  
ATOM     39  OE2 GLU A   1     -12.904  10.868  69.128  1.00  0.00    -0.137 OA 
ATOM     40  OE1 GLU A   1     -10.812  10.146  68.675  1.00  0.00    -0.217 OA 
ENDBRANCH  36  37
ENDBRANCH  32  36
ENDBRANCH  30  32
ENDBRANCH  24  28
ENDBRANCH  20  22
ENDBRANCH  19  20
ENDBRANCH   4  19
TORSDOF 7
ENDMDL
MODEL      266
REMARK 921   NORMALIZED FREE ENERGY PREDICTED BY IDOCK:   23.54 KCAL/MOL
REMARK 922        TOTAL FREE ENERGY PREDICTED BY IDOCK:   31.91 KCAL/MOL
REMARK 923 INTER-LIGAND FREE ENERGY PREDICTED BY IDOCK:    8.23 KCAL/MOL
REMARK 924 INTRA-LIGAND FREE ENERGY PREDICTED BY IDOCK:   23.68 KCAL/MOL
REMARK 927      BINDING AFFINITY PREDICTED BY RF-SCORE:    0.00 PKD
ROOT
HETATM    1  C   UNK A   0     -11.814   9.140  71.221  1.00  0.00    -0.327 C  
HETATM    2  N   UNK A   0     -11.511   7.792  71.092  1.00  0.00    -0.270 N  
HETATM    3  O   UNK A   0     -11.875   9.779  72.268  1.00  0.00     0.033 OA 
HETATM    4  C   UNK A   0     -11.208   6.933  72.296  1.00  0.00    -0.263 C  
HETATM    5  C   UNK A   0      -9.994   6.032  71.972  1.00  0.00    -0.170 C  
HETATM    6  C   UNK A   0     -11.343   5.795  67.426  1.00  0.00     0.706 C  
HETATM    7  H   UNK A   0     -12.138   7.478  66.564  1.00  0.00     0.000 HD 
HETATM    8  N   UNK A   0     -10.287   5.296  70.755  1.00  0.00    -0.243 NA 
HETATM    9  H   UNK A   0     -10.035   4.309  70.692  1.00  0.00     0.000 HD 
HETATM   10  H2  UNK A   0     -11.724   5.581  65.394  1.00  0.00     0.000 HD 
HETATM   11  C   UNK A   0     -10.902   5.911  69.676  1.00  0.00    -0.374 C  
HETATM   12  O   UNK A   0     -12.883   8.663  68.615  1.00  0.00     5.314 OA 
HETATM   13  C   UNK A   0     -11.492   7.127  69.840  1.00  0.00    -0.115 C  
HETATM   14  H1  UNK A   0     -10.919   4.223  66.219  1.00  0.00     0.000 HD 
HETATM   15  C   UNK A   0     -12.131   7.692  68.612  1.00  0.00     2.692 C  
HETATM   16  N   UNK A   0     -10.852   5.239  68.480  1.00  0.00     0.087 NA 
HETATM   17  N   UNK A   0     -11.334   5.154  66.235  1.00  0.00    -0.310 NA 
HETATM   18  N   UNK A   0     -11.894   7.030  67.447  1.00  0.00     0.326 N  
ENDROOT
BRANCH   4  19
HETATM   19  C   UNK A   0     -10.977   7.667  73.634  1.00  0.00     0.334 C  
BRANCH  19  20
HETATM   20  N   UNK A   0      -9.882   8.648  73.543  1.00  0.00     0.663 NA 
HETATM   21  H   UNK A   0      -9.478   9.073  74.377  1.00  0.00     0.000 HD 
BRANCH  20  22
HETATM   22  C   UNK A   0      -9.419   8.970  72.262  1.00  0.00     0.227 A  
HETATM   23  C   UNK A   0      -9.892   9.086  69.874  1.00  0.00    -0.194 A  
HETATM   24  C   UNK A   0      -8.722   9.828  69.677  1.00  0.00    -0.211 A  
HETATM   25  C   UNK A   0      -8.194   9.605  72.023  1.00  0.00     1.845 A  
HETATM   26  C   UNK A   0     -10.228   8.653  71.163  1.00  0.00    -0.294 A  
HETATM   27  C   UNK A   0      -7.847  10.039  70.745  1.00  0.00     0.551 A  
BRANCH  24  28
HETATM   28  C   UNK A   0      -8.417  10.388  68.339  1.00  0.00    -0.124 C  
ATOM     29  H   GLU A   1      -8.865   8.553  67.428  1.00  0.00     0.000 HD 
ATOM     30  N   GLU A   1      -8.512   9.498  67.277  1.00  0.00    -0.127 N  
HETATM   31  O   UNK A   0      -8.074  11.555  68.208  1.00  0.00    -0.133 OA 
BRANCH  30  32
ATOM     32  CA  GLU A   1      -8.097   9.928  65.928  1.00  0.00    -0.121 C  
ATOM     33  C   GLU A   1      -6.620   9.553  65.703  1.00  0.00    -0.072 C  
ATOM     34  O   GLU A   1      -5.920   9.433  66.859  1.00  0.00    -0.057 OA 
ATOM     35  OXT GLU A   1      -6.077   9.520  64.608  1.00  0.00    -0.073 OA 
BRANCH  32  36
ATOM     36  CB  GLU A   1      -8.282  11.445  65.774  1.00  0.00     0.153 C  
BRANCH  36  37
ATOM     37  CG  GLU A   1      -9.751  11.859  65.640  1.00  0.00    -0.248 C  
ATOM     38  CD  GLU A   1     -10.300  11.600  64.260  1.00  0.00    -0.322 C  
ATOM     39  OE2 GLU A   1      -9.667  11.129  63.328  1.00  0.00    -0.297 OA 
ATOM     40  OE1 GLU A   1     -11.605  11.942  64.158  1.00  0.00    -0.358 OA 
ENDBRANCH  36  37
ENDBRANCH  32  36
ENDBRANCH  30  32
ENDBRANCH  24  28
ENDBRANCH  20  22
ENDBRANCH  19  20
ENDBRANCH   4  19
TORSDOF 7
ENDMDL
MODEL      267
REMARK 921   NORMALIZED FREE ENERGY PREDICTED BY IDOCK:   32.37 KCAL/MOL
REMARK 922        TOTAL FREE ENERGY PREDICTED BY IDOCK:   44.35 KCAL/MOL
REMARK 923 INTER-LIGAND FREE ENERGY PREDICTED BY IDOCK:   11.72 KCAL/MOL
REMARK 924 INTRA-LIGAND FREE ENERGY PREDICTED BY IDOCK:   32.63 KCAL/MOL
REMARK 927      BINDING AFFINITY PREDICTED BY RF-SCORE:    0.00 PKD
ROOT
HETATM    1  C   UNK A   0     -12.537   7.409  69.288  1.00  0.00     3.029 C  
HETATM    2  N   UNK A   0     -11.596   7.549  68.277  1.00  0.00     0.356 N  
HETATM    3  O   UNK A   0     -13.149   8.314  69.849  1.00  0.00     1.971 OA 
HETATM    4  C   UNK A   0     -11.215   8.906  67.738  1.00  0.00     0.572 C  
HETATM    5  C   UNK A   0     -11.132   8.825  66.196  1.00  0.00     2.175 C  
HETATM    6  C   UNK A   0      -9.623   4.332  66.486  1.00  0.00    -0.200 C  
HETATM    7  H   UNK A   0     -10.438   3.129  67.934  1.00  0.00     0.000 HD 
HETATM    8  N   UNK A   0     -10.219   7.750  65.847  1.00  0.00     0.095 NA 
HETATM    9  H   UNK A   0      -9.552   7.885  65.088  1.00  0.00     0.000 HD 
HETATM   10  H2  UNK A   0      -8.987   2.357  66.372  1.00  0.00     0.000 HD 
HETATM   11  C   UNK A   0     -10.240   6.543  66.528  1.00  0.00    -0.065 C  
HETATM   12  O   UNK A   0     -11.226   4.880  69.508  1.00  0.00     1.143 OA 
HETATM   13  C   UNK A   0     -10.914   6.445  67.706  1.00  0.00    -0.332 C  
HETATM   14  H1  UNK A   0      -8.438   3.463  65.088  1.00  0.00     0.000 HD 
HETATM   15  C   UNK A   0     -10.862   5.099  68.356  1.00  0.00     0.403 C  
HETATM   16  N   UNK A   0      -9.577   5.497  65.935  1.00  0.00    -0.304 NA 
HETATM   17  N   UNK A   0      -8.962   3.282  65.945  1.00  0.00    -0.138 NA 
HETATM   18  N   UNK A   0     -10.318   4.093  67.621  1.00  0.00     0.154 N  
ENDROOT
BRANCH   4  19
HETATM   19  C   UNK A   0     -12.106  10.097  68.155  1.00  0.00     1.679 C  
BRANCH  19  20
HETATM   20  N   UNK A   0     -12.469  10.040  69.581  1.00  0.00    -0.302 NA 
HETATM   21  H   UNK A   0     -13.172  10.663  69.976  1.00  0.00     0.000 HD 
BRANCH  20  22
HETATM   22  C   UNK A   0     -11.806   9.093  70.371  1.00  0.00    -0.020 A  
HETATM   23  C   UNK A   0     -11.985   7.258  71.965  1.00  0.00    -0.333 A  
HETATM   24  C   UNK A   0     -10.627   6.973  71.792  1.00  0.00    -0.234 A  
HETATM   25  C   UNK A   0     -10.426   8.868  70.308  1.00  0.00    -0.239 A  
HETATM   26  C   UNK A   0     -12.564   8.323  71.262  1.00  0.00    -0.237 A  
HETATM   27  C   UNK A   0      -9.837   7.813  71.004  1.00  0.00    -0.186 A  
BRANCH  24  28
HETATM   28  C   UNK A   0     -10.033   5.781  72.441  1.00  0.00    -0.169 C  
ATOM     29  H   GLU A   1      -8.354   6.893  73.029  1.00  0.00     0.000 HD 
ATOM     30  N   GLU A   1      -8.773   5.963  72.999  1.00  0.00    -0.124 N  
HETATM   31  O   UNK A   0     -10.619   4.707  72.444  1.00  0.00    -0.201 OA 
BRANCH  30  32
ATOM     32  CA  GLU A   1      -8.046   4.803  73.547  1.00  0.00    -0.106 C  
ATOM     33  C   GLU A   1      -6.530   5.040  73.413  1.00  0.00    -0.065 C  
ATOM     34  O   GLU A   1      -6.213   5.906  72.419  1.00  0.00    -0.042 OA 
ATOM     35  OXT GLU A   1      -5.677   4.406  74.019  1.00  0.00    -0.011 OA 
BRANCH  32  36
ATOM     36  CB  GLU A   1      -8.445   3.522  72.797  1.00  0.00    -0.082 C  
BRANCH  36  37
ATOM     37  CG  GLU A   1      -9.000   3.798  71.396  1.00  0.00    -0.161 C  
ATOM     38  CD  GLU A   1     -10.330   3.129  71.159  1.00  0.00     0.682 C  
ATOM     39  OE2 GLU A   1     -10.918   2.429  71.968  1.00  0.00     0.478 OA 
ATOM     40  OE1 GLU A   1     -10.825   3.400  69.930  1.00  0.00     2.535 OA 
ENDBRANCH  36  37
ENDBRANCH  32  36
ENDBRANCH  30  32
ENDBRANCH  24  28
ENDBRANCH  20  22
ENDBRANCH  19  20
ENDBRANCH   4  19
TORSDOF 7
ENDMDL
MODEL      268
REMARK 921   NORMALIZED FREE ENERGY PREDICTED BY IDOCK:   52.82 KCAL/MOL
REMARK 922        TOTAL FREE ENERGY PREDICTED BY IDOCK:   73.17 KCAL/MOL
REMARK 923 INTER-LIGAND FREE ENERGY PREDICTED BY IDOCK:   61.08 KCAL/MOL
REMARK 924 INTRA-LIGAND FREE ENERGY PREDICTED BY IDOCK:   12.09 KCAL/MOL
REMARK 927      BINDING AFFINITY PREDICTED BY RF-SCORE:    0.00 PKD
ROOT
HETATM    1  C   UNK A   0     -12.833   9.186  65.157  1.00  0.00    18.805 C  
HETATM    2  N   UNK A   0     -12.129   8.409  66.065  1.00  0.00     7.087 N  
HETATM    3  O   UNK A   0     -13.179  10.355  65.307  1.00  0.00     7.970 OA 
HETATM    4  C   UNK A   0     -11.694   8.957  67.402  1.00  0.00     2.888 C  
HETATM    5  C   UNK A   0     -10.242   8.505  67.678  1.00  0.00    -0.236 C  
HETATM    6  C   UNK A   0     -11.036   4.439  65.359  1.00  0.00     0.106 C  
HETATM    7  H   UNK A   0     -12.215   4.496  63.682  1.00  0.00     0.000 HD 
HETATM    8  N   UNK A   0     -10.187   7.058  67.565  1.00  0.00    -0.179 NA 
HETATM    9  H   UNK A   0      -9.647   6.522  68.243  1.00  0.00     0.000 HD 
HETATM   10  H2  UNK A   0     -11.146   2.617  64.365  1.00  0.00     0.000 HD 
HETATM   11  C   UNK A   0     -10.857   6.394  66.550  1.00  0.00    -0.031 C  
HETATM   12  O   UNK A   0     -13.466   6.590  64.147  1.00  0.00     8.961 OA 
HETATM   13  C   UNK A   0     -11.797   7.052  65.818  1.00  0.00     6.276 C  
HETATM   14  H1  UNK A   0     -10.050   2.714  65.766  1.00  0.00     0.000 HD 
HETATM   15  C   UNK A   0     -12.461   6.236  64.756  1.00  0.00     9.348 C  
HETATM   16  N   UNK A   0     -10.499   5.086  66.337  1.00  0.00    -0.300 NA 
HETATM   17  N   UNK A   0     -10.726   3.141  65.132  1.00  0.00     0.275 NA 
HETATM   18  N   UNK A   0     -11.931   5.006  64.518  1.00  0.00     1.392 N  
ENDROOT
BRANCH   4  19
HETATM   19  C   UNK A   0     -11.818  10.484  67.602  1.00  0.00     0.844 C  
BRANCH  19  20
HETATM   20  N   UNK A   0     -10.744  11.015  68.458  1.00  0.00    -0.188 NA 
HETATM   21  H   UNK A   0     -10.486  12.002  68.437  1.00  0.00     0.000 HD 
BRANCH  20  22
HETATM   22  C   UNK A   0     -10.094  10.109  69.303  1.00  0.00    -0.222 A  
HETATM   23  C   UNK A   0      -9.738   9.311  71.578  1.00  0.00    -0.210 A  
HETATM   24  C   UNK A   0      -9.072   8.186  71.081  1.00  0.00    -0.183 A  
HETATM   25  C   UNK A   0      -9.317   9.042  68.836  1.00  0.00    -0.143 A  
HETATM   26  C   UNK A   0     -10.236  10.271  70.687  1.00  0.00     0.276 A  
HETATM   27  C   UNK A   0      -8.815   8.082  69.712  1.00  0.00    -0.144 A  
BRANCH  24  28
HETATM   28  C   UNK A   0      -8.643   7.110  72.006  1.00  0.00    -0.111 C  
ATOM     29  H   GLU A   1      -8.605   5.723  70.434  1.00  0.00     0.000 HD 
ATOM     30  N   GLU A   1      -8.506   5.849  71.442  1.00  0.00    -0.127 N  
HETATM   31  O   UNK A   0      -8.461   7.338  73.195  1.00  0.00    -0.116 OA 
BRANCH  30  32
ATOM     32  CA  GLU A   1      -8.214   4.692  72.309  1.00  0.00    -0.114 C  
ATOM     33  C   GLU A   1      -7.060   3.874  71.700  1.00  0.00    -0.038 C  
ATOM     34  O   GLU A   1      -6.940   4.040  70.359  1.00  0.00    -0.033 OA 
ATOM     35  OXT GLU A   1      -6.411   3.037  72.313  1.00  0.00    -0.013 OA 
BRANCH  32  36
ATOM     36  CB  GLU A   1      -9.463   3.808  72.454  1.00  0.00    -0.183 C  
BRANCH  36  37
ATOM     37  CG  GLU A   1     -10.758   4.535  72.077  1.00  0.00    -0.020 C  
ATOM     38  CD  GLU A   1     -11.032   5.724  72.963  1.00  0.00    -0.278 C  
ATOM     39  OE2 GLU A   1     -10.329   6.083  73.894  1.00  0.00    -0.240 OA 
ATOM     40  OE1 GLU A   1     -12.163   6.375  72.606  1.00  0.00    -0.032 OA 
ENDBRANCH  36  37
ENDBRANCH  32  36
ENDBRANCH  30  32
ENDBRANCH  24  28
ENDBRANCH  20  22
ENDBRANCH  19  20
ENDBRANCH   4  19
TORSDOF 7
ENDMDL
MODEL      269
REMARK 921   NORMALIZED FREE ENERGY PREDICTED BY IDOCK:   59.38 KCAL/MOL
REMARK 922        TOTAL FREE ENERGY PREDICTED BY IDOCK:   82.41 KCAL/MOL
REMARK 923 INTER-LIGAND FREE ENERGY PREDICTED BY IDOCK:   72.91 KCAL/MOL
REMARK 924 INTRA-LIGAND FREE ENERGY PREDICTED BY IDOCK:    9.49 KCAL/MOL
REMARK 927      BINDING AFFINITY PREDICTED BY RF-SCORE:    0.00 PKD
ROOT
HETATM    1  C   UNK A   0      -8.107  15.728  64.507  1.00  0.00     9.748 C  
HETATM    2  N   UNK A   0      -9.376  16.017  64.992  1.00  0.00     0.930 N  
HETATM    3  O   UNK A   0      -7.057  16.269  64.839  1.00  0.00     4.627 OA 
HETATM    4  C   UNK A   0      -9.597  17.085  66.034  1.00  0.00    -0.187 C  
HETATM    5  C   UNK A   0     -10.597  16.555  67.087  1.00  0.00    -0.270 C  
HETATM    6  C   UNK A   0     -12.839  14.046  63.737  1.00  0.00     0.660 C  
HETATM    7  H   UNK A   0     -11.709  13.160  62.273  1.00  0.00     0.000 HD 
HETATM    8  N   UNK A   0     -11.797  16.120  66.395  1.00  0.00     0.961 NA 
HETATM    9  H   UNK A   0     -12.712  16.338  66.790  1.00  0.00     0.000 HD 
HETATM   10  H2  UNK A   0     -13.948  12.848  62.451  1.00  0.00     0.000 HD 
HETATM   11  C   UNK A   0     -11.721  15.412  65.206  1.00  0.00     0.030 C  
HETATM   12  O   UNK A   0      -9.684  14.589  62.414  1.00  0.00    12.344 OA 
HETATM   13  C   UNK A   0     -10.542  15.358  64.528  1.00  0.00     0.124 C  
HETATM   14  H1  UNK A   0     -14.808  13.569  63.834  1.00  0.00     0.000 HD 
HETATM   15  C   UNK A   0     -10.578  14.573  63.255  1.00  0.00     4.620 C  
HETATM   16  N   UNK A   0     -12.869  14.780  64.798  1.00  0.00    -0.362 NA 
HETATM   17  N   UNK A   0     -13.956  13.427  63.290  1.00  0.00     4.464 NA 
HETATM   18  N   UNK A   0     -11.711  13.858  63.017  1.00  0.00    -0.050 N  
ENDROOT
BRANCH   4  19
HETATM   19  C   UNK A   0      -8.340  17.644  66.736  1.00  0.00    -0.251 C  
BRANCH  19  20
HETATM   20  N   UNK A   0      -7.732  16.657  67.644  1.00  0.00    -0.162 NA 
HETATM   21  H   UNK A   0      -7.036  16.931  68.338  1.00  0.00     0.000 HD 
BRANCH  20  22
HETATM   22  C   UNK A   0      -8.149  15.328  67.513  1.00  0.00    -0.172 A  
HETATM   23  C   UNK A   0      -9.434  13.476  68.440  1.00  0.00    -0.185 A  
HETATM   24  C   UNK A   0      -9.279  12.768  67.243  1.00  0.00    -0.203 A  
HETATM   25  C   UNK A   0      -7.903  14.551  66.374  1.00  0.00     1.187 A  
HETATM   26  C   UNK A   0      -8.859  14.747  68.571  1.00  0.00    -0.176 A  
HETATM   27  C   UNK A   0      -8.468  13.286  66.232  1.00  0.00     0.641 A  
BRANCH  24  28
HETATM   28  C   UNK A   0      -9.978  11.475  67.053  1.00  0.00    -0.200 C  
ATOM     29  H   GLU A   1     -11.536  12.427  66.021  1.00  0.00     0.000 HD 
ATOM     30  N   GLU A   1     -11.208  11.543  66.411  1.00  0.00    -0.288 N  
HETATM   31  O   UNK A   0      -9.498  10.431  67.473  1.00  0.00    -0.148 OA 
BRANCH  30  32
ATOM     32  CA  GLU A   1     -12.037  10.329  66.296  1.00  0.00     4.320 C  
ATOM     33  C   GLU A   1     -12.907  10.183  67.559  1.00  0.00     7.993 C  
ATOM     34  O   GLU A   1     -12.383  10.810  68.641  1.00  0.00    -0.430 OA 
ATOM     35  OXT GLU A   1     -13.886   9.453  67.641  1.00  0.00    14.068 OA 
BRANCH  32  36
ATOM     36  CB  GLU A   1     -11.145   9.090  66.129  1.00  0.00     1.794 C  
BRANCH  36  37
ATOM     37  CG  GLU A   1     -10.869   8.744  64.662  1.00  0.00     6.890 C  
ATOM     38  CD  GLU A   1      -9.775   9.591  64.064  1.00  0.00     0.633 C  
ATOM     39  OE2 GLU A   1      -9.168  10.472  64.652  1.00  0.00    -0.201 OA 
ATOM     40  OE1 GLU A   1      -9.520   9.260  62.777  1.00  0.00     0.165 OA 
ENDBRANCH  36  37
ENDBRANCH  32  36
ENDBRANCH  30  32
ENDBRANCH  24  28
ENDBRANCH  20  22
ENDBRANCH  19  20
ENDBRANCH   4  19
TORSDOF 7
ENDMDL
