MODEL        1
REMARK 921   NORMALIZED FREE ENERGY PREDICTED BY IDOCK:   -5.60 KCAL/MOL
REMARK 922        TOTAL FREE ENERGY PREDICTED BY IDOCK:  -10.24 KCAL/MOL
REMARK 923 INTER-LIGAND FREE ENERGY PREDICTED BY IDOCK:   -8.55 KCAL/MOL
REMARK 924 INTRA-LIGAND FREE ENERGY PREDICTED BY IDOCK:   -1.69 KCAL/MOL
REMARK 927      BINDING AFFINITY PREDICTED BY RF-SCORE:    0.00 PKD
ROOT
HETATM    1  C   UNL     1      -7.134  12.895  67.544  1.00  0.00    -0.153 C  
HETATM    2  C   UNL     1      -7.697  14.046  68.371  1.00  0.00    -0.138 C  
ENDROOT
BRANCH   2   3
HETATM    3  C   UNL     1      -8.311  15.153  67.489  1.00  0.00    -0.172 C  
BRANCH   3   4
HETATM    4  O   UNL     1      -7.578  16.385  67.775  1.00  0.00    -0.138 OA 
BRANCH   4   5
HETATM    5  C   UNL     1      -6.568  16.753  66.944  1.00  0.00    -0.213 C  
HETATM    6  C   UNL     1      -7.037  17.859  66.035  1.00  0.00    -0.340 C  
HETATM    7  O   UNL     1      -5.473  16.215  66.870  1.00  0.00    -0.341 OA 
ENDBRANCH   4   5
ENDBRANCH   3   4
BRANCH   3   8
HETATM    8  C   UNL     1      -9.887  15.389  67.724  1.00  0.00    -0.220 C  
BRANCH   8   9
HETATM    9  C   UNL     1     -10.660  14.601  66.608  1.00  0.00    -0.289 A  
HETATM   10  C   UNL     1     -12.015  14.235  66.689  1.00  0.00    -0.454 A  
HETATM   11  C   UNL     1     -12.678  13.626  65.612  1.00  0.00    -0.505 A  
HETATM   12  C   UNL     1     -11.989  13.290  64.453  1.00  0.00    -0.459 A  
HETATM   13  C   UNL     1     -10.638  13.581  64.363  1.00  0.00    -0.394 A  
HETATM   14  C   UNL     1     -10.000  14.251  65.410  1.00  0.00    -0.334 A  
ENDBRANCH   8   9
BRANCH   8  15
HETATM   15  C   UNL     1     -10.127  16.979  67.636  1.00  0.00    -0.298 A  
HETATM   16  C   UNL     1      -9.907  17.863  68.712  1.00  0.00    -0.354 A  
HETATM   17  C   UNL     1     -10.044  19.255  68.567  1.00  0.00    -0.513 A  
HETATM   18  C   UNL     1     -10.400  19.813  67.339  1.00  0.00    -0.582 A  
HETATM   19  C   UNL     1     -10.518  17.591  66.420  1.00  0.00    -0.277 A  
HETATM   20  C   UNL     1     -10.646  18.975  66.266  1.00  0.00    -0.493 A  
ENDBRANCH   8  15
BRANCH   8  21
HETATM   21  C   UNL     1     -10.376  14.881  69.174  1.00  0.00    -0.246 C  
BRANCH  21  22
HETATM   22  C   UNL     1     -11.662  15.300  69.975  1.00  0.00    -0.315 C  
HETATM   23  C   UNL     1     -11.304  15.980  71.310  1.00  0.00    -0.397 C  
BRANCH  22  24
HETATM   24  N   UNL     1     -12.728  14.282  70.118  1.00  0.00    -0.279 NA 
HETATM   25  C   UNL     1     -12.228  12.905  70.234  1.00  0.00    -0.289 C  
HETATM   26  C   UNL     1     -13.618  14.521  71.270  1.00  0.00    -0.357 C  
ENDBRANCH  22  24
ENDBRANCH  21  22
ENDBRANCH   8  21
ENDBRANCH   3   8
ENDBRANCH   2   3
TORSDOF 9
ENDMDL
MODEL        2
REMARK 921   NORMALIZED FREE ENERGY PREDICTED BY IDOCK:   -5.55 KCAL/MOL
REMARK 922        TOTAL FREE ENERGY PREDICTED BY IDOCK:  -10.17 KCAL/MOL
REMARK 923 INTER-LIGAND FREE ENERGY PREDICTED BY IDOCK:   -8.61 KCAL/MOL
REMARK 924 INTRA-LIGAND FREE ENERGY PREDICTED BY IDOCK:   -1.56 KCAL/MOL
REMARK 927      BINDING AFFINITY PREDICTED BY RF-SCORE:    0.00 PKD
ROOT
HETATM    1  C   UNL     1     -13.347  14.930  70.901  1.00  0.00    -0.393 C  
HETATM    2  C   UNL     1     -11.915  15.005  70.383  1.00  0.00    -0.372 C  
ENDROOT
BRANCH   2   3
HETATM    3  C   UNL     1     -11.715  14.173  69.099  1.00  0.00    -0.327 C  
BRANCH   3   4
HETATM    4  O   UNL     1     -11.214  12.863  69.509  1.00  0.00    -0.185 OA 
BRANCH   4   5
HETATM    5  C   UNL     1     -11.999  11.772  69.308  1.00  0.00    -0.291 C  
HETATM    6  C   UNL     1     -12.501  11.258  70.633  1.00  0.00    -0.439 C  
HETATM    7  O   UNL     1     -12.201  11.224  68.234  1.00  0.00    -0.611 OA 
ENDBRANCH   4   5
ENDBRANCH   3   4
BRANCH   3   8
HETATM    8  C   UNL     1     -10.702  14.834  68.033  1.00  0.00    -0.248 C  
BRANCH   8   9
HETATM    9  C   UNL     1     -11.108  14.323  66.607  1.00  0.00    -0.321 A  
HETATM   10  C   UNL     1     -10.198  14.072  65.565  1.00  0.00    -0.362 A  
HETATM   11  C   UNL     1     -10.612  13.512  64.345  1.00  0.00    -0.394 A  
HETATM   12  C   UNL     1     -11.957  13.264  64.099  1.00  0.00    -0.505 A  
HETATM   13  C   UNL     1     -12.889  13.557  65.081  1.00  0.00    -0.381 A  
HETATM   14  C   UNL     1     -12.463  14.047  66.319  1.00  0.00    -0.439 A  
ENDBRANCH   8   9
BRANCH   8  15
HETATM   15  C   UNL     1      -9.223  14.364  68.461  1.00  0.00    -0.198 A  
HETATM   16  C   UNL     1      -8.618  13.175  68.005  1.00  0.00    -0.182 A  
HETATM   17  C   UNL     1      -7.290  12.846  68.334  1.00  0.00    -0.119 A  
HETATM   18  C   UNL     1      -6.518  13.697  69.125  1.00  0.00    -0.107 A  
HETATM   19  C   UNL     1      -8.410  15.178  69.288  1.00  0.00    -0.211 A  
HETATM   20  C   UNL     1      -7.087  14.862  69.610  1.00  0.00    -0.179 A  
ENDBRANCH   8  15
BRANCH   8  21
HETATM   21  C   UNL     1     -10.749  16.445  68.058  1.00  0.00    -0.334 C  
BRANCH  21  22
HETATM   22  C   UNL     1     -10.361  17.454  66.916  1.00  0.00    -0.317 C  
HETATM   23  C   UNL     1      -8.891  17.290  66.488  1.00  0.00    -0.290 C  
BRANCH  22  24
HETATM   24  N   UNL     1     -10.749  18.871  67.107  1.00  0.00    -0.451 NA 
HETATM   25  C   UNL     1     -10.170  19.492  68.307  1.00  0.00    -0.443 C  
HETATM   26  C   UNL     1     -10.405  19.733  65.961  1.00  0.00    -0.511 C  
ENDBRANCH  22  24
ENDBRANCH  21  22
ENDBRANCH   8  21
ENDBRANCH   3   8
ENDBRANCH   2   3
TORSDOF 9
ENDMDL
MODEL        3
REMARK 921   NORMALIZED FREE ENERGY PREDICTED BY IDOCK:   -5.53 KCAL/MOL
REMARK 922        TOTAL FREE ENERGY PREDICTED BY IDOCK:  -10.12 KCAL/MOL
REMARK 923 INTER-LIGAND FREE ENERGY PREDICTED BY IDOCK:   -8.56 KCAL/MOL
REMARK 924 INTRA-LIGAND FREE ENERGY PREDICTED BY IDOCK:   -1.56 KCAL/MOL
REMARK 927      BINDING AFFINITY PREDICTED BY RF-SCORE:    0.00 PKD
ROOT
HETATM    1  C   UNL     1     -10.643  17.033  69.033  1.00  0.00    -0.314 C  
HETATM    2  C   UNL     1     -11.487  15.906  68.449  1.00  0.00    -0.348 C  
ENDROOT
BRANCH   2   3
HETATM    3  C   UNL     1     -10.722  15.096  67.382  1.00  0.00    -0.286 C  
BRANCH   3   4
HETATM    4  O   UNL     1     -11.253  15.492  66.079  1.00  0.00    -0.247 OA 
BRANCH   4   5
HETATM    5  C   UNL     1     -10.575  16.419  65.353  1.00  0.00    -0.320 C  
HETATM    6  C   UNL     1      -9.155  16.511  65.846  1.00  0.00    -0.188 C  
HETATM    7  O   UNL     1     -11.056  17.142  64.491  1.00  0.00    -1.105 OA 
ENDBRANCH   4   5
ENDBRANCH   3   4
BRANCH   3   8
HETATM    8  C   UNL     1     -10.839  13.498  67.555  1.00  0.00    -0.276 C  
BRANCH   8   9
HETATM    9  C   UNL     1      -9.472  12.977  68.121  1.00  0.00    -0.218 A  
HETATM   10  C   UNL     1      -9.199  11.631  68.422  1.00  0.00    -0.182 A  
HETATM   11  C   UNL     1      -7.920  11.212  68.824  1.00  0.00    -0.144 A  
HETATM   12  C   UNL     1      -6.899  12.135  69.016  1.00  0.00    -0.098 A  
HETATM   13  C   UNL     1      -7.150  13.477  68.788  1.00  0.00    -0.103 A  
HETATM   14  C   UNL     1      -8.404  13.879  68.320  1.00  0.00    -0.163 A  
ENDBRANCH   8   9
BRANCH   8  15
HETATM   15  C   UNL     1     -11.169  12.906  66.094  1.00  0.00    -0.326 A  
HETATM   16  C   UNL     1     -12.475  12.786  65.576  1.00  0.00    -0.419 A  
HETATM   17  C   UNL     1     -12.712  12.346  64.261  1.00  0.00    -0.437 A  
HETATM   18  C   UNL     1     -11.653  12.015  63.416  1.00  0.00    -0.495 A  
HETATM   19  C   UNL     1     -10.130  12.527  65.209  1.00  0.00    -0.275 A  
HETATM   20  C   UNL     1     -10.359  12.098  63.899  1.00  0.00    -0.441 A  
ENDBRANCH   8  15
BRANCH   8  21
HETATM   21  C   UNL     1     -12.029  13.073  68.555  1.00  0.00    -0.296 C  
BRANCH  21  22
HETATM   22  C   UNL     1     -11.947  12.745  70.091  1.00  0.00    -0.296 C  
HETATM   23  C   UNL     1     -11.939  11.227  70.349  1.00  0.00    -0.471 C  
BRANCH  22  24
HETATM   24  N   UNL     1     -12.876  13.474  70.986  1.00  0.00    -0.299 NA 
HETATM   25  C   UNL     1     -13.399  12.662  72.093  1.00  0.00    -0.466 C  
HETATM   26  C   UNL     1     -12.287  14.690  71.578  1.00  0.00    -0.351 C  
ENDBRANCH  22  24
ENDBRANCH  21  22
ENDBRANCH   8  21
ENDBRANCH   3   8
ENDBRANCH   2   3
TORSDOF 9
ENDMDL
MODEL        4
REMARK 921   NORMALIZED FREE ENERGY PREDICTED BY IDOCK:   -5.52 KCAL/MOL
REMARK 922        TOTAL FREE ENERGY PREDICTED BY IDOCK:  -10.11 KCAL/MOL
REMARK 923 INTER-LIGAND FREE ENERGY PREDICTED BY IDOCK:   -8.39 KCAL/MOL
REMARK 924 INTRA-LIGAND FREE ENERGY PREDICTED BY IDOCK:   -1.72 KCAL/MOL
REMARK 927      BINDING AFFINITY PREDICTED BY RF-SCORE:    0.00 PKD
ROOT
HETATM    1  C   UNL     1     -12.205  15.681  64.306  1.00  0.00    -0.012 C  
HETATM    2  C   UNL     1     -10.812  15.842  64.904  1.00  0.00    -0.433 C  
ENDROOT
BRANCH   2   3
HETATM    3  C   UNL     1     -10.571  14.885  66.090  1.00  0.00    -0.318 C  
BRANCH   3   4
HETATM    4  O   UNL     1     -11.756  14.037  66.204  1.00  0.00    -0.353 OA 
BRANCH   4   5
HETATM    5  C   UNL     1     -11.603  12.688  66.144  1.00  0.00    -0.393 C  
HETATM    6  C   UNL     1     -10.743  12.328  64.960  1.00  0.00    -0.336 C  
HETATM    7  O   UNL     1     -12.148  11.873  66.875  1.00  0.00    -0.599 OA 
ENDBRANCH   4   5
ENDBRANCH   3   4
BRANCH   3   8
HETATM    8  C   UNL     1     -10.294  15.626  67.494  1.00  0.00    -0.277 C  
BRANCH   8   9
HETATM    9  C   UNL     1      -9.961  17.128  67.184  1.00  0.00    -0.283 A  
HETATM   10  C   UNL     1      -8.775  17.567  66.570  1.00  0.00    -0.290 A  
HETATM   11  C   UNL     1      -8.582  18.914  66.221  1.00  0.00    -0.267 A  
HETATM   12  C   UNL     1      -9.531  19.874  66.548  1.00  0.00    -0.516 A  
HETATM   13  C   UNL     1     -10.685  19.486  67.208  1.00  0.00    -0.604 A  
HETATM   14  C   UNL     1     -10.903  18.134  67.489  1.00  0.00    -0.264 A  
ENDBRANCH   8   9
BRANCH   8  15
HETATM   15  C   UNL     1      -9.064  14.849  68.183  1.00  0.00    -0.177 A  
HETATM   16  C   UNL     1      -8.705  13.522  67.872  1.00  0.00    -0.183 A  
HETATM   17  C   UNL     1      -7.569  12.911  68.433  1.00  0.00    -0.133 A  
HETATM   18  C   UNL     1      -6.750  13.607  69.322  1.00  0.00    -0.094 A  
HETATM   19  C   UNL     1      -8.220  15.502  69.115  1.00  0.00    -0.247 A  
HETATM   20  C   UNL     1      -7.085  14.904  69.669  1.00  0.00    -0.179 A  
ENDBRANCH   8  15
BRANCH   8  21
HETATM   21  C   UNL     1     -11.561  15.554  68.488  1.00  0.00    -0.379 C  
BRANCH  21  22
HETATM   22  C   UNL     1     -11.633  14.957  69.941  1.00  0.00    -0.289 C  
HETATM   23  C   UNL     1     -11.948  13.450  69.921  1.00  0.00    -0.408 C  
BRANCH  22  24
HETATM   24  N   UNL     1     -12.441  15.699  70.935  1.00  0.00    -0.437 NA 
HETATM   25  C   UNL     1     -13.787  15.149  71.142  1.00  0.00    -0.419 C  
HETATM   26  C   UNL     1     -11.799  15.792  72.261  1.00  0.00    -0.498 C  
ENDBRANCH  22  24
ENDBRANCH  21  22
ENDBRANCH   8  21
ENDBRANCH   3   8
ENDBRANCH   2   3
TORSDOF 9
ENDMDL
MODEL        5
REMARK 921   NORMALIZED FREE ENERGY PREDICTED BY IDOCK:   -5.44 KCAL/MOL
REMARK 922        TOTAL FREE ENERGY PREDICTED BY IDOCK:  -10.00 KCAL/MOL
REMARK 923 INTER-LIGAND FREE ENERGY PREDICTED BY IDOCK:   -8.04 KCAL/MOL
REMARK 924 INTRA-LIGAND FREE ENERGY PREDICTED BY IDOCK:   -1.96 KCAL/MOL
REMARK 927      BINDING AFFINITY PREDICTED BY RF-SCORE:    0.00 PKD
ROOT
HETATM    1  C   UNL     1      -8.607  11.080  67.463  1.00  0.00    -0.128 C  
HETATM    2  C   UNL     1      -9.602  12.016  68.140  1.00  0.00    -0.200 C  
ENDROOT
BRANCH   2   3
HETATM    3  C   UNL     1      -9.360  13.493  67.769  1.00  0.00    -0.213 C  
BRANCH   3   4
HETATM    4  O   UNL     1      -8.798  14.147  68.950  1.00  0.00    -0.107 OA 
BRANCH   4   5
HETATM    5  C   UNL     1      -7.481  14.479  68.948  1.00  0.00    -0.133 C  
HETATM    6  C   UNL     1      -7.323  15.929  69.330  1.00  0.00    -0.217 C  
HETATM    7  O   UNL     1      -6.561  13.752  68.602  1.00  0.00    -0.083 OA 
ENDBRANCH   4   5
ENDBRANCH   3   4
BRANCH   3   8
HETATM    8  C   UNL     1     -10.681  14.280  67.287  1.00  0.00    -0.277 C  
BRANCH   8   9
HETATM    9  C   UNL     1     -11.147  13.646  65.930  1.00  0.00    -0.289 A  
HETATM   10  C   UNL     1     -10.279  13.268  64.891  1.00  0.00    -0.313 A  
HETATM   11  C   UNL     1     -10.748  12.606  63.745  1.00  0.00    -0.454 A  
HETATM   12  C   UNL     1     -12.107  12.375  63.565  1.00  0.00    -0.651 A  
HETATM   13  C   UNL     1     -12.997  12.789  64.541  1.00  0.00    -0.210 A  
HETATM   14  C   UNL     1     -12.518  13.384  65.711  1.00  0.00    -0.496 A  
ENDBRANCH   8   9
BRANCH   8  15
HETATM   15  C   UNL     1     -10.258  15.826  67.134  1.00  0.00    -0.279 A  
HETATM   16  C   UNL     1     -10.776  16.862  67.937  1.00  0.00    -0.344 A  
HETATM   17  C   UNL     1     -10.313  18.186  67.829  1.00  0.00    -0.413 A  
HETATM   18  C   UNL     1      -9.313  18.520  66.916  1.00  0.00    -0.294 A  
HETATM   19  C   UNL     1      -9.269  16.222  66.200  1.00  0.00    -0.376 A  
HETATM   20  C   UNL     1      -8.798  17.534  66.093  1.00  0.00    -0.160 A  
ENDBRANCH   8  15
BRANCH   8  21
HETATM   21  C   UNL     1     -11.878  14.186  68.362  1.00  0.00    -0.388 C  
BRANCH  21  22
HETATM   22  C   UNL     1     -11.789  14.207  69.932  1.00  0.00    -0.325 C  
HETATM   23  C   UNL     1     -12.189  12.850  70.541  1.00  0.00    -0.395 C  
BRANCH  22  24
HETATM   24  N   UNL     1     -12.413  15.355  70.628  1.00  0.00    -0.400 NA 
HETATM   25  C   UNL     1     -13.781  15.097  71.099  1.00  0.00    -0.437 C  
HETATM   26  C   UNL     1     -11.636  15.833  71.786  1.00  0.00    -0.456 C  
ENDBRANCH  22  24
ENDBRANCH  21  22
ENDBRANCH   8  21
ENDBRANCH   3   8
ENDBRANCH   2   3
TORSDOF 9
ENDMDL
MODEL        6
REMARK 921   NORMALIZED FREE ENERGY PREDICTED BY IDOCK:   -5.43 KCAL/MOL
REMARK 922        TOTAL FREE ENERGY PREDICTED BY IDOCK:   -9.98 KCAL/MOL
REMARK 923 INTER-LIGAND FREE ENERGY PREDICTED BY IDOCK:   -8.86 KCAL/MOL
REMARK 924 INTRA-LIGAND FREE ENERGY PREDICTED BY IDOCK:   -1.11 KCAL/MOL
REMARK 927      BINDING AFFINITY PREDICTED BY RF-SCORE:    0.00 PKD
ROOT
HETATM    1  C   UNL     1      -9.664  12.723  65.934  1.00  0.00    -0.203 C  
HETATM    2  C   UNL     1     -10.500  13.215  67.111  1.00  0.00    -0.247 C  
ENDROOT
BRANCH   2   3
HETATM    3  C   UNL     1     -10.960  14.676  66.931  1.00  0.00    -0.324 C  
BRANCH   3   4
HETATM    4  O   UNL     1     -10.505  15.110  65.612  1.00  0.00    -0.309 OA 
BRANCH   4   5
HETATM    5  C   UNL     1     -11.414  15.623  64.742  1.00  0.00    -0.283 C  
HETATM    6  C   UNL     1     -12.401  14.553  64.351  1.00  0.00    -0.437 C  
HETATM    7  O   UNL     1     -11.394  16.750  64.269  1.00  0.00    -1.170 OA 
ENDBRANCH   4   5
ENDBRANCH   3   4
BRANCH   3   8
HETATM    8  C   UNL     1     -10.410  15.688  68.058  1.00  0.00    -0.246 C  
BRANCH   8   9
HETATM    9  C   UNL     1      -8.864  15.459  68.193  1.00  0.00    -0.170 A  
HETATM   10  C   UNL     1      -7.938  15.667  67.156  1.00  0.00    -0.254 A  
HETATM   11  C   UNL     1      -6.555  15.549  67.370  1.00  0.00    -0.174 A  
HETATM   12  C   UNL     1      -6.061  15.139  68.603  1.00  0.00    -0.086 A  
HETATM   13  C   UNL     1      -6.949  14.866  69.629  1.00  0.00    -0.184 A  
HETATM   14  C   UNL     1      -8.319  15.054  69.431  1.00  0.00    -0.141 A  
ENDBRANCH   8   9
BRANCH   8  15
HETATM   15  C   UNL     1     -11.208  15.336  69.412  1.00  0.00    -0.291 A  
HETATM   16  C   UNL     1     -11.873  14.113  69.633  1.00  0.00    -0.379 A  
HETATM   17  C   UNL     1     -12.482  13.813  70.865  1.00  0.00    -0.451 A  
HETATM   18  C   UNL     1     -12.444  14.724  71.921  1.00  0.00    -0.410 A  
HETATM   19  C   UNL     1     -11.225  16.240  70.503  1.00  0.00    -0.327 A  
HETATM   20  C   UNL     1     -11.821  15.945  71.732  1.00  0.00    -0.579 A  
ENDBRANCH   8  15
BRANCH   8  21
HETATM   21  C   UNL     1     -10.693  17.231  67.689  1.00  0.00    -0.307 C  
BRANCH  21  22
HETATM   22  C   UNL     1      -9.668  18.420  67.601  1.00  0.00    -0.293 C  
HETATM   23  C   UNL     1      -9.873  19.433  68.743  1.00  0.00    -0.530 C  
BRANCH  22  24
HETATM   24  N   UNL     1      -9.501  19.070  66.280  1.00  0.00    -0.394 NA 
HETATM   25  C   UNL     1     -10.501  20.108  65.995  1.00  0.00    -0.337 C  
HETATM   26  C   UNL     1      -8.172  19.680  66.091  1.00  0.00    -0.341 C  
ENDBRANCH  22  24
ENDBRANCH  21  22
ENDBRANCH   8  21
ENDBRANCH   3   8
ENDBRANCH   2   3
TORSDOF 9
ENDMDL
MODEL        7
REMARK 921   NORMALIZED FREE ENERGY PREDICTED BY IDOCK:   -5.41 KCAL/MOL
REMARK 922        TOTAL FREE ENERGY PREDICTED BY IDOCK:   -9.95 KCAL/MOL
REMARK 923 INTER-LIGAND FREE ENERGY PREDICTED BY IDOCK:   -8.20 KCAL/MOL
REMARK 924 INTRA-LIGAND FREE ENERGY PREDICTED BY IDOCK:   -1.75 KCAL/MOL
REMARK 927      BINDING AFFINITY PREDICTED BY RF-SCORE:    0.00 PKD
ROOT
HETATM    1  C   UNL     1      -6.663  13.176  69.053  1.00  0.00    -0.103 C  
HETATM    2  C   UNL     1      -7.656  13.685  68.013  1.00  0.00    -0.139 C  
ENDROOT
BRANCH   2   3
HETATM    3  C   UNL     1      -9.101  13.240  68.320  1.00  0.00    -0.184 C  
BRANCH   3   4
HETATM    4  O   UNL     1      -9.367  12.054  67.509  1.00  0.00    -0.172 OA 
BRANCH   4   5
HETATM    5  C   UNL     1      -9.667  10.887  68.137  1.00  0.00    -0.166 C  
HETATM    6  C   UNL     1     -10.869  10.254  67.483  1.00  0.00    -0.355 C  
HETATM    7  O   UNL     1      -9.115  10.451  69.136  1.00  0.00    -0.176 OA 
ENDBRANCH   4   5
ENDBRANCH   3   4
BRANCH   3   8
HETATM    8  C   UNL     1     -10.217  14.364  68.024  1.00  0.00    -0.228 C  
BRANCH   8   9
HETATM    9  C   UNL     1     -11.283  14.294  69.173  1.00  0.00    -0.302 A  
HETATM   10  C   UNL     1     -11.691  13.107  69.806  1.00  0.00    -0.350 A  
HETATM   11  C   UNL     1     -12.569  13.122  70.902  1.00  0.00    -0.377 A  
HETATM   12  C   UNL     1     -13.130  14.313  71.345  1.00  0.00    -0.421 A  
HETATM   13  C   UNL     1     -12.798  15.495  70.705  1.00  0.00    -0.513 A  
HETATM   14  C   UNL     1     -11.869  15.483  69.661  1.00  0.00    -0.384 A  
ENDBRANCH   8   9
BRANCH   8  15
HETATM   15  C   UNL     1     -10.839  14.017  66.581  1.00  0.00    -0.297 A  
HETATM   16  C   UNL     1     -10.061  13.780  65.430  1.00  0.00    -0.307 A  
HETATM   17  C   UNL     1     -10.643  13.393  64.209  1.00  0.00    -0.358 A  
HETATM   18  C   UNL     1     -12.023  13.225  64.097  1.00  0.00    -0.505 A  
HETATM   19  C   UNL     1     -12.237  13.866  66.407  1.00  0.00    -0.487 A  
HETATM   20  C   UNL     1     -12.821  13.473  65.200  1.00  0.00    -0.381 A  
ENDBRANCH   8  15
BRANCH   8  21
HETATM   21  C   UNL     1      -9.592  15.849  67.964  1.00  0.00    -0.211 C  
BRANCH  21  22
HETATM   22  C   UNL     1      -9.727  16.922  66.822  1.00  0.00    -0.266 C  
HETATM   23  C   UNL     1      -8.372  17.210  66.149  1.00  0.00    -0.258 C  
BRANCH  22  24
HETATM   24  N   UNL     1     -10.482  18.156  67.143  1.00  0.00    -0.383 NA 
HETATM   25  C   UNL     1     -10.077  18.794  68.403  1.00  0.00    -0.393 C  
HETATM   26  C   UNL     1     -10.401  19.184  66.088  1.00  0.00    -0.484 C  
ENDBRANCH  22  24
ENDBRANCH  21  22
ENDBRANCH   8  21
ENDBRANCH   3   8
ENDBRANCH   2   3
TORSDOF 9
ENDMDL
MODEL        8
REMARK 921   NORMALIZED FREE ENERGY PREDICTED BY IDOCK:   -5.36 KCAL/MOL
REMARK 922        TOTAL FREE ENERGY PREDICTED BY IDOCK:   -9.88 KCAL/MOL
REMARK 923 INTER-LIGAND FREE ENERGY PREDICTED BY IDOCK:   -8.50 KCAL/MOL
REMARK 924 INTRA-LIGAND FREE ENERGY PREDICTED BY IDOCK:   -1.37 KCAL/MOL
REMARK 927      BINDING AFFINITY PREDICTED BY RF-SCORE:    0.00 PKD
ROOT
HETATM    1  C   UNL     1      -7.954  12.900  67.137  1.00  0.00    -0.104 C  
HETATM    2  C   UNL     1      -8.948  13.431  68.163  1.00  0.00    -0.188 C  
ENDROOT
BRANCH   2   3
HETATM    3  C   UNL     1      -8.927  14.971  68.253  1.00  0.00    -0.174 C  
BRANCH   3   4
HETATM    4  O   UNL     1      -8.277  15.319  69.515  1.00  0.00    -0.234 OA 
BRANCH   4   5
HETATM    5  C   UNL     1      -6.920  15.346  69.565  1.00  0.00    -0.188 C  
HETATM    6  C   UNL     1      -6.382  16.052  68.348  1.00  0.00    -0.109 C  
HETATM    7  O   UNL     1      -6.225  14.805  70.413  1.00  0.00    -0.166 OA 
ENDBRANCH   4   5
ENDBRANCH   3   4
BRANCH   3   8
HETATM    8  C   UNL     1     -10.383  15.659  68.183  1.00  0.00    -0.246 C  
BRANCH   8   9
HETATM    9  C   UNL     1     -11.176  15.234  69.468  1.00  0.00    -0.289 A  
HETATM   10  C   UNL     1     -11.682  13.942  69.698  1.00  0.00    -0.370 A  
HETATM   11  C   UNL     1     -12.289  13.596  70.916  1.00  0.00    -0.450 A  
HETATM   12  C   UNL     1     -12.481  14.549  71.909  1.00  0.00    -0.406 A  
HETATM   13  C   UNL     1     -12.049  15.847  71.692  1.00  0.00    -0.554 A  
HETATM   14  C   UNL     1     -11.383  16.168  70.506  1.00  0.00    -0.392 A  
ENDBRANCH   8   9
BRANCH   8  15
HETATM   15  C   UNL     1     -11.072  15.126  66.828  1.00  0.00    -0.307 A  
HETATM   16  C   UNL     1     -12.122  14.187  66.801  1.00  0.00    -0.474 A  
HETATM   17  C   UNL     1     -12.754  13.816  65.600  1.00  0.00    -0.523 A  
HETATM   18  C   UNL     1     -12.361  14.375  64.384  1.00  0.00    -0.428 A  
HETATM   19  C   UNL     1     -10.687  15.640  65.565  1.00  0.00    -0.403 A  
HETATM   20  C   UNL     1     -11.317  15.283  64.369  1.00  0.00    -0.224 A  
ENDBRANCH   8  15
BRANCH   8  21
HETATM   21  C   UNL     1     -10.301  17.267  68.112  1.00  0.00    -0.357 C  
BRANCH  21  22
HETATM   22  C   UNL     1      -9.092  18.166  67.660  1.00  0.00    -0.259 C  
HETATM   23  C   UNL     1      -8.739  19.220  68.726  1.00  0.00    -0.383 C  
BRANCH  22  24
HETATM   24  N   UNL     1      -9.146  18.729  66.291  1.00  0.00    -0.436 NA 
HETATM   25  C   UNL     1     -10.379  19.473  65.999  1.00  0.00    -0.511 C  
HETATM   26  C   UNL     1      -8.014  19.622  65.980  1.00  0.00    -0.328 C  
ENDBRANCH  22  24
ENDBRANCH  21  22
ENDBRANCH   8  21
ENDBRANCH   3   8
ENDBRANCH   2   3
TORSDOF 9
ENDMDL
MODEL        9
REMARK 921   NORMALIZED FREE ENERGY PREDICTED BY IDOCK:   -5.36 KCAL/MOL
REMARK 922        TOTAL FREE ENERGY PREDICTED BY IDOCK:   -9.87 KCAL/MOL
REMARK 923 INTER-LIGAND FREE ENERGY PREDICTED BY IDOCK:   -8.28 KCAL/MOL
REMARK 924 INTRA-LIGAND FREE ENERGY PREDICTED BY IDOCK:   -1.59 KCAL/MOL
REMARK 927      BINDING AFFINITY PREDICTED BY RF-SCORE:    0.00 PKD
ROOT
HETATM    1  C   UNL     1      -8.005  16.132  69.174  1.00  0.00    -0.233 C  
HETATM    2  C   UNL     1      -9.300  15.333  69.272  1.00  0.00    -0.239 C  
ENDROOT
BRANCH   2   3
HETATM    3  C   UNL     1      -9.872  14.976  67.885  1.00  0.00    -0.217 C  
BRANCH   3   4
HETATM    4  O   UNL     1     -10.736  16.082  67.478  1.00  0.00    -0.312 OA 
BRANCH   4   5
HETATM    5  C   UNL     1     -10.321  16.902  66.477  1.00  0.00    -0.299 C  
HETATM    6  C   UNL     1     -10.157  18.304  67.005  1.00  0.00    -0.370 C  
HETATM    7  O   UNL     1     -10.187  16.585  65.304  1.00  0.00    -0.588 OA 
ENDBRANCH   4   5
ENDBRANCH   3   4
BRANCH   3   8
HETATM    8  C   UNL     1     -10.701  13.594  67.846  1.00  0.00    -0.257 C  
BRANCH   8   9
HETATM    9  C   UNL     1      -9.746  12.450  68.336  1.00  0.00    -0.189 A  
HETATM   10  C   UNL     1      -8.342  12.528  68.325  1.00  0.00    -0.167 A  
HETATM   11  C   UNL     1      -7.544  11.513  68.878  1.00  0.00    -0.102 A  
HETATM   12  C   UNL     1      -8.120  10.354  69.383  1.00  0.00    -0.161 A  
HETATM   13  C   UNL     1      -9.498  10.216  69.354  1.00  0.00    -0.240 A  
HETATM   14  C   UNL     1     -10.290  11.260  68.867  1.00  0.00    -0.214 A  
ENDBRANCH   8   9
BRANCH   8  15
HETATM   15  C   UNL     1     -11.176  13.392  66.321  1.00  0.00    -0.322 A  
HETATM   16  C   UNL     1     -10.298  13.086  65.262  1.00  0.00    -0.318 A  
HETATM   17  C   UNL     1     -10.767  12.831  63.961  1.00  0.00    -0.457 A  
HETATM   18  C   UNL     1     -12.131  12.868  63.674  1.00  0.00    -0.611 A  
HETATM   19  C   UNL     1     -12.548  13.450  65.972  1.00  0.00    -0.361 A  
HETATM   20  C   UNL     1     -13.021  13.189  64.683  1.00  0.00    -0.115 A  
ENDBRANCH   8  15
BRANCH   8  21
HETATM   21  C   UNL     1     -12.011  13.637  68.785  1.00  0.00    -0.394 C  
BRANCH  21  22
HETATM   22  C   UNL     1     -12.104  13.959  70.321  1.00  0.00    -0.353 C  
HETATM   23  C   UNL     1     -12.647  12.761  71.121  1.00  0.00    -0.365 C  
BRANCH  22  24
HETATM   24  N   UNL     1     -12.741  15.240  70.704  1.00  0.00    -0.404 NA 
HETATM   25  C   UNL     1     -14.053  15.087  71.348  1.00  0.00    -0.487 C  
HETATM   26  C   UNL     1     -11.909  16.065  71.599  1.00  0.00    -0.507 C  
ENDBRANCH  22  24
ENDBRANCH  21  22
ENDBRANCH   8  21
ENDBRANCH   3   8
ENDBRANCH   2   3
TORSDOF 9
ENDMDL
MODEL       10
REMARK 921   NORMALIZED FREE ENERGY PREDICTED BY IDOCK:   -5.31 KCAL/MOL
REMARK 922        TOTAL FREE ENERGY PREDICTED BY IDOCK:   -9.79 KCAL/MOL
REMARK 923 INTER-LIGAND FREE ENERGY PREDICTED BY IDOCK:   -8.57 KCAL/MOL
REMARK 924 INTRA-LIGAND FREE ENERGY PREDICTED BY IDOCK:   -1.22 KCAL/MOL
REMARK 927      BINDING AFFINITY PREDICTED BY RF-SCORE:    0.00 PKD
ROOT
HETATM    1  C   UNL     1      -7.137  15.171  67.883  1.00  0.00    -0.161 C  
HETATM    2  C   UNL     1      -8.242  14.355  67.222  1.00  0.00    -0.223 C  
ENDROOT
BRANCH   2   3
HETATM    3  C   UNL     1      -9.446  14.135  68.161  1.00  0.00    -0.213 C  
BRANCH   3   4
HETATM    4  O   UNL     1      -9.613  12.691  68.314  1.00  0.00    -0.214 OA 
BRANCH   4   5
HETATM    5  C   UNL     1      -8.580  11.874  67.978  1.00  0.00    -0.168 C  
HETATM    6  C   UNL     1      -8.926  11.106  66.729  1.00  0.00    -0.169 C  
HETATM    7  O   UNL     1      -7.559  11.709  68.631  1.00  0.00    -0.123 OA 
ENDBRANCH   4   5
ENDBRANCH   3   4
BRANCH   3   8
HETATM    8  C   UNL     1     -10.822  14.790  67.638  1.00  0.00    -0.285 C  
BRANCH   8   9
HETATM    9  C   UNL     1     -11.160  14.148  66.247  1.00  0.00    -0.318 A  
HETATM   10  C   UNL     1     -10.274  14.108  65.156  1.00  0.00    -0.411 A  
HETATM   11  C   UNL     1     -10.595  13.423  63.972  1.00  0.00    -0.122 A  
HETATM   12  C   UNL     1     -11.841  12.829  63.812  1.00  0.00    -0.572 A  
HETATM   13  C   UNL     1     -12.762  12.902  64.845  1.00  0.00    -0.474 A  
HETATM   14  C   UNL     1     -12.410  13.523  66.046  1.00  0.00    -0.486 A  
ENDBRANCH   8   9
BRANCH   8  15
HETATM   15  C   UNL     1     -10.562  16.376  67.540  1.00  0.00    -0.309 A  
HETATM   16  C   UNL     1     -10.284  17.193  68.654  1.00  0.00    -0.336 A  
HETATM   17  C   UNL     1      -9.975  18.558  68.513  1.00  0.00    -0.419 A  
HETATM   18  C   UNL     1      -9.929  19.154  67.253  1.00  0.00    -0.436 A  
HETATM   19  C   UNL     1     -10.536  17.034  66.286  1.00  0.00    -0.258 A  
HETATM   20  C   UNL     1     -10.221  18.388  66.138  1.00  0.00    -0.408 A  
ENDBRANCH   8  15
BRANCH   8  21
HETATM   21  C   UNL     1     -12.048  14.539  68.655  1.00  0.00    -0.253 C  
BRANCH  21  22
HETATM   22  C   UNL     1     -12.016  14.457  70.225  1.00  0.00    -0.321 C  
HETATM   23  C   UNL     1     -12.409  13.056  70.729  1.00  0.00    -0.394 C  
BRANCH  22  24
HETATM   24  N   UNL     1     -12.690  15.545  70.970  1.00  0.00    -0.444 NA 
HETATM   25  C   UNL     1     -14.025  15.189  71.470  1.00  0.00    -0.522 C  
HETATM   26  C   UNL     1     -11.910  16.039  72.121  1.00  0.00    -0.528 C  
ENDBRANCH  22  24
ENDBRANCH  21  22
ENDBRANCH   8  21
ENDBRANCH   3   8
ENDBRANCH   2   3
TORSDOF 9
ENDMDL
MODEL       11
REMARK 921   NORMALIZED FREE ENERGY PREDICTED BY IDOCK:   -5.27 KCAL/MOL
REMARK 922        TOTAL FREE ENERGY PREDICTED BY IDOCK:   -9.73 KCAL/MOL
REMARK 923 INTER-LIGAND FREE ENERGY PREDICTED BY IDOCK:   -7.67 KCAL/MOL
REMARK 924 INTRA-LIGAND FREE ENERGY PREDICTED BY IDOCK:   -2.07 KCAL/MOL
REMARK 927      BINDING AFFINITY PREDICTED BY RF-SCORE:    0.00 PKD
ROOT
HETATM    1  C   UNL     1      -9.804   8.685  67.337  1.00  0.00    -0.249 C  
HETATM    2  C   UNL     1     -10.896   9.719  67.088  1.00  0.00    -0.207 C  
ENDROOT
BRANCH   2   3
HETATM    3  C   UNL     1     -10.917  10.817  68.171  1.00  0.00    -0.257 C  
BRANCH   3   4
HETATM    4  O   UNL     1     -12.221  10.747  68.828  1.00  0.00    -0.460 OA 
BRANCH   4   5
HETATM    5  C   UNL     1     -12.279  10.341  70.124  1.00  0.00    -0.176 C  
HETATM    6  C   UNL     1     -10.885  10.085  70.637  1.00  0.00    -0.367 C  
HETATM    7  O   UNL     1     -13.300  10.124  70.759  1.00  0.00    -0.361 OA 
ENDBRANCH   4   5
ENDBRANCH   3   4
BRANCH   3   8
HETATM    8  C   UNL     1     -10.670  12.307  67.608  1.00  0.00    -0.250 C  
BRANCH   8   9
HETATM    9  C   UNL     1     -10.989  12.297  66.072  1.00  0.00    -0.327 A  
HETATM   10  C   UNL     1     -10.069  11.932  65.073  1.00  0.00    -0.297 A  
HETATM   11  C   UNL     1     -10.447  11.840  63.724  1.00  0.00    -0.466 A  
HETATM   12  C   UNL     1     -11.731  12.188  63.321  1.00  0.00    -0.441 A  
HETATM   13  C   UNL     1     -12.645  12.610  64.271  1.00  0.00    -0.453 A  
HETATM   14  C   UNL     1     -12.284  12.633  65.621  1.00  0.00    -0.474 A  
ENDBRANCH   8   9
BRANCH   8  15
HETATM   15  C   UNL     1      -9.130  12.660  67.918  1.00  0.00    -0.200 A  
HETATM   16  C   UNL     1      -8.232  11.767  68.536  1.00  0.00    -0.134 A  
HETATM   17  C   UNL     1      -6.872  12.084  68.708  1.00  0.00    -0.094 A  
HETATM   18  C   UNL     1      -6.362  13.303  68.264  1.00  0.00    -0.099 A  
HETATM   19  C   UNL     1      -8.571  13.898  67.515  1.00  0.00    -0.195 A  
HETATM   20  C   UNL     1      -7.219  14.215  67.675  1.00  0.00    -0.195 A  
ENDBRANCH   8  15
BRANCH   8  21
HETATM   21  C   UNL     1     -11.599  13.402  68.341  1.00  0.00    -0.368 C  
BRANCH  21  22
HETATM   22  C   UNL     1     -11.419  14.044  69.765  1.00  0.00    -0.230 C  
HETATM   23  C   UNL     1     -12.631  13.762  70.672  1.00  0.00    -0.386 C  
BRANCH  22  24
HETATM   24  N   UNL     1     -10.979  15.457  69.817  1.00  0.00    -0.265 NA 
HETATM   25  C   UNL     1     -11.298  16.227  68.607  1.00  0.00    -0.333 C  
HETATM   26  C   UNL     1     -11.531  16.201  70.966  1.00  0.00    -0.382 C  
ENDBRANCH  22  24
ENDBRANCH  21  22
ENDBRANCH   8  21
ENDBRANCH   3   8
ENDBRANCH   2   3
TORSDOF 9
ENDMDL
MODEL       12
REMARK 921   NORMALIZED FREE ENERGY PREDICTED BY IDOCK:   -5.25 KCAL/MOL
REMARK 922        TOTAL FREE ENERGY PREDICTED BY IDOCK:   -9.70 KCAL/MOL
REMARK 923 INTER-LIGAND FREE ENERGY PREDICTED BY IDOCK:   -7.69 KCAL/MOL
REMARK 924 INTRA-LIGAND FREE ENERGY PREDICTED BY IDOCK:   -2.01 KCAL/MOL
REMARK 927      BINDING AFFINITY PREDICTED BY RF-SCORE:    0.00 PKD
ROOT
HETATM    1  C   UNL     1     -10.981  16.430  65.143  1.00  0.00    -0.242 C  
HETATM    2  C   UNL     1      -9.882  15.562  65.745  1.00  0.00    -0.392 C  
ENDROOT
BRANCH   2   3
HETATM    3  C   UNL     1     -10.286  14.973  67.112  1.00  0.00    -0.249 C  
BRANCH   3   4
HETATM    4  O   UNL     1      -9.367  15.525  68.106  1.00  0.00    -0.194 OA 
BRANCH   4   5
HETATM    5  C   UNL     1      -9.563  16.798  68.540  1.00  0.00    -0.245 C  
HETATM    6  C   UNL     1      -8.257  17.549  68.514  1.00  0.00    -0.278 C  
HETATM    7  O   UNL     1     -10.612  17.251  68.976  1.00  0.00    -0.323 OA 
ENDBRANCH   4   5
ENDBRANCH   3   4
BRANCH   3   8
HETATM    8  C   UNL     1     -10.253  13.363  67.175  1.00  0.00    -0.247 C  
BRANCH   8   9
HETATM    9  C   UNL     1     -10.973  12.819  65.891  1.00  0.00    -0.303 A  
HETATM   10  C   UNL     1     -12.338  13.000  65.610  1.00  0.00    -0.504 A  
HETATM   11  C   UNL     1     -12.900  12.583  64.393  1.00  0.00    -0.366 A  
HETATM   12  C   UNL     1     -12.135  11.901  63.455  1.00  0.00    -0.575 A  
HETATM   13  C   UNL     1     -10.800  11.651  63.725  1.00  0.00    -0.493 A  
HETATM   14  C   UNL     1     -10.229  12.131  64.907  1.00  0.00    -0.309 A  
ENDBRANCH   8   9
BRANCH   8  15
HETATM   15  C   UNL     1     -11.011  12.946  68.532  1.00  0.00    -0.288 A  
HETATM   16  C   UNL     1     -11.547  13.876  69.447  1.00  0.00    -0.350 A  
HETATM   17  C   UNL     1     -12.279  13.468  70.576  1.00  0.00    -0.433 A  
HETATM   18  C   UNL     1     -12.506  12.115  70.829  1.00  0.00    -0.362 A  
HETATM   19  C   UNL     1     -11.241  11.585  68.851  1.00  0.00    -0.308 A  
HETATM   20  C   UNL     1     -11.975  11.172  69.966  1.00  0.00    -0.447 A  
ENDBRANCH   8  15
BRANCH   8  21
HETATM   21  C   UNL     1      -8.751  12.781  67.234  1.00  0.00    -0.200 C  
BRANCH  21  22
HETATM   22  C   UNL     1      -7.958  12.243  68.480  1.00  0.00    -0.107 C  
HETATM   23  C   UNL     1      -6.783  13.167  68.849  1.00  0.00    -0.099 C  
BRANCH  22  24
HETATM   24  N   UNL     1      -7.580  10.810  68.472  1.00  0.00    -0.097 NA 
HETATM   25  C   UNL     1      -7.870  10.108  69.729  1.00  0.00    -0.166 C  
HETATM   26  C   UNL     1      -8.217  10.042  67.385  1.00  0.00    -0.118 C  
ENDBRANCH  22  24
ENDBRANCH  21  22
ENDBRANCH   8  21
ENDBRANCH   3   8
ENDBRANCH   2   3
TORSDOF 9
ENDMDL
MODEL       13
REMARK 921   NORMALIZED FREE ENERGY PREDICTED BY IDOCK:   -5.25 KCAL/MOL
REMARK 922        TOTAL FREE ENERGY PREDICTED BY IDOCK:   -9.69 KCAL/MOL
REMARK 923 INTER-LIGAND FREE ENERGY PREDICTED BY IDOCK:   -8.07 KCAL/MOL
REMARK 924 INTRA-LIGAND FREE ENERGY PREDICTED BY IDOCK:   -1.62 KCAL/MOL
REMARK 927      BINDING AFFINITY PREDICTED BY RF-SCORE:    0.00 PKD
ROOT
HETATM    1  C   UNL     1      -8.368  12.358  67.015  1.00  0.00    -0.157 C  
HETATM    2  C   UNL     1      -9.299  13.032  68.017  1.00  0.00    -0.213 C  
ENDROOT
BRANCH   2   3
HETATM    3  C   UNL     1      -9.101  14.561  68.061  1.00  0.00    -0.185 C  
BRANCH   3   4
HETATM    4  O   UNL     1      -8.523  14.883  69.365  1.00  0.00    -0.157 OA 
BRANCH   4   5
HETATM    5  C   UNL     1      -7.175  15.020  69.467  1.00  0.00    -0.199 C  
HETATM    6  C   UNL     1      -6.812  16.482  69.468  1.00  0.00    -0.175 C  
HETATM    7  O   UNL     1      -6.362  14.106  69.464  1.00  0.00    -0.107 OA 
ENDBRANCH   4   5
ENDBRANCH   3   4
BRANCH   3   8
HETATM    8  C   UNL     1     -10.452  15.411  67.840  1.00  0.00    -0.256 C  
BRANCH   8   9
HETATM    9  C   UNL     1     -10.039  16.884  67.489  1.00  0.00    -0.282 A  
HETATM   10  C   UNL     1      -8.860  17.237  66.809  1.00  0.00    -0.269 A  
HETATM   11  C   UNL     1      -8.599  18.563  66.429  1.00  0.00    -0.272 A  
HETATM   12  C   UNL     1      -9.467  19.588  66.789  1.00  0.00    -0.436 A  
HETATM   13  C   UNL     1     -10.608  19.284  67.512  1.00  0.00    -0.581 A  
HETATM   14  C   UNL     1     -10.898  17.953  67.826  1.00  0.00    -0.237 A  
ENDBRANCH   8   9
BRANCH   8  15
HETATM   15  C   UNL     1     -11.281  15.313  69.216  1.00  0.00    -0.291 A  
HETATM   16  C   UNL     1     -12.218  14.297  69.493  1.00  0.00    -0.341 A  
HETATM   17  C   UNL     1     -12.856  14.198  70.743  1.00  0.00    -0.378 A  
HETATM   18  C   UNL     1     -12.575  15.109  71.762  1.00  0.00    -0.418 A  
HETATM   19  C   UNL     1     -11.056  16.231  70.270  1.00  0.00    -0.340 A  
HETATM   20  C   UNL     1     -11.679  16.134  71.518  1.00  0.00    -0.533 A  
ENDBRANCH   8  15
BRANCH   8  21
HETATM   21  C   UNL     1     -11.365  14.814  66.653  1.00  0.00    -0.347 C  
BRANCH  21  22
HETATM   22  C   UNL     1     -11.016  14.671  65.126  1.00  0.00    -0.386 C  
HETATM   23  C   UNL     1     -11.296  15.974  64.355  1.00  0.00    -0.253 C  
BRANCH  22  24
HETATM   24  N   UNL     1     -11.528  13.470  64.428  1.00  0.00    -0.381 NA 
HETATM   25  C   UNL     1     -10.478  12.632  63.831  1.00  0.00    -0.411 C  
HETATM   26  C   UNL     1     -12.347  12.595  65.288  1.00  0.00    -0.466 C  
ENDBRANCH  22  24
ENDBRANCH  21  22
ENDBRANCH   8  21
ENDBRANCH   3   8
ENDBRANCH   2   3
TORSDOF 9
ENDMDL
MODEL       14
REMARK 921   NORMALIZED FREE ENERGY PREDICTED BY IDOCK:   -5.24 KCAL/MOL
REMARK 922        TOTAL FREE ENERGY PREDICTED BY IDOCK:   -9.69 KCAL/MOL
REMARK 923 INTER-LIGAND FREE ENERGY PREDICTED BY IDOCK:   -7.99 KCAL/MOL
REMARK 924 INTRA-LIGAND FREE ENERGY PREDICTED BY IDOCK:   -1.70 KCAL/MOL
REMARK 927      BINDING AFFINITY PREDICTED BY RF-SCORE:    0.00 PKD
ROOT
HETATM    1  C   UNL     1     -12.411  14.588  64.496  1.00  0.00    -0.434 C  
HETATM    2  C   UNL     1     -12.491  13.759  65.773  1.00  0.00    -0.527 C  
ENDROOT
BRANCH   2   3
HETATM    3  C   UNL     1     -11.112  13.222  66.208  1.00  0.00    -0.290 C  
BRANCH   3   4
HETATM    4  O   UNL     1     -11.144  11.771  66.040  1.00  0.00    -0.311 OA 
BRANCH   4   5
HETATM    5  C   UNL     1     -10.436  11.215  65.022  1.00  0.00    -0.293 C  
HETATM    6  C   UNL     1      -9.919   9.864  65.442  1.00  0.00    -0.349 C  
HETATM    7  O   UNL     1     -10.173  11.755  63.957  1.00  0.00    -0.291 OA 
ENDBRANCH   4   5
ENDBRANCH   3   4
BRANCH   3   8
HETATM    8  C   UNL     1     -10.708  13.586  67.725  1.00  0.00    -0.262 C  
BRANCH   8   9
HETATM    9  C   UNL     1      -9.817  14.877  67.686  1.00  0.00    -0.217 A  
HETATM   10  C   UNL     1      -9.428  15.608  68.822  1.00  0.00    -0.214 A  
HETATM   11  C   UNL     1      -8.540  16.692  68.731  1.00  0.00    -0.261 A  
HETATM   12  C   UNL     1      -8.080  17.130  67.495  1.00  0.00    -0.196 A  
HETATM   13  C   UNL     1      -8.493  16.472  66.349  1.00  0.00    -0.357 A  
HETATM   14  C   UNL     1      -9.319  15.350  66.452  1.00  0.00    -0.331 A  
ENDBRANCH   8   9
BRANCH   8  15
HETATM   15  C   UNL     1      -9.919  12.308  68.305  1.00  0.00    -0.216 A  
HETATM   16  C   UNL     1     -10.554  11.214  68.928  1.00  0.00    -0.239 A  
HETATM   17  C   UNL     1      -9.835  10.078  69.341  1.00  0.00    -0.240 A  
HETATM   18  C   UNL     1      -8.457   9.992  69.140  1.00  0.00    -0.156 A  
HETATM   19  C   UNL     1      -8.516  12.188  68.154  1.00  0.00    -0.175 A  
HETATM   20  C   UNL     1      -7.797  11.057  68.553  1.00  0.00    -0.129 A  
ENDBRANCH   8  15
BRANCH   8  21
HETATM   21  C   UNL     1     -11.996  13.853  68.657  1.00  0.00    -0.401 C  
BRANCH  21  22
HETATM   22  C   UNL     1     -12.049  14.079  70.213  1.00  0.00    -0.355 C  
HETATM   23  C   UNL     1     -12.616  12.850  70.946  1.00  0.00    -0.355 C  
BRANCH  22  24
HETATM   24  N   UNL     1     -12.636  15.353  70.689  1.00  0.00    -0.416 NA 
HETATM   25  C   UNL     1     -14.006  15.223  71.206  1.00  0.00    -0.457 C  
HETATM   26  C   UNL     1     -11.835  16.013  71.736  1.00  0.00    -0.519 C  
ENDBRANCH  22  24
ENDBRANCH  21  22
ENDBRANCH   8  21
ENDBRANCH   3   8
ENDBRANCH   2   3
TORSDOF 9
ENDMDL
MODEL       15
REMARK 921   NORMALIZED FREE ENERGY PREDICTED BY IDOCK:   -5.22 KCAL/MOL
REMARK 922        TOTAL FREE ENERGY PREDICTED BY IDOCK:   -9.66 KCAL/MOL
REMARK 923 INTER-LIGAND FREE ENERGY PREDICTED BY IDOCK:   -7.71 KCAL/MOL
REMARK 924 INTRA-LIGAND FREE ENERGY PREDICTED BY IDOCK:   -1.95 KCAL/MOL
REMARK 927      BINDING AFFINITY PREDICTED BY RF-SCORE:    0.00 PKD
ROOT
HETATM    1  C   UNL     1      -9.346  15.143  66.888  1.00  0.00    -0.251 C  
HETATM    2  C   UNL     1      -9.720  14.389  68.159  1.00  0.00    -0.223 C  
ENDROOT
BRANCH   2   3
HETATM    3  C   UNL     1      -9.334  12.897  68.087  1.00  0.00    -0.214 C  
BRANCH   3   4
HETATM    4  O   UNL     1      -8.396  12.749  66.976  1.00  0.00    -0.178 OA 
BRANCH   4   5
HETATM    5  C   UNL     1      -7.115  12.382  67.246  1.00  0.00    -0.128 C  
HETATM    6  C   UNL     1      -6.790  11.103  66.519  1.00  0.00    -0.126 C  
HETATM    7  O   UNL     1      -6.362  12.943  68.029  1.00  0.00    -0.081 OA 
ENDBRANCH   4   5
ENDBRANCH   3   4
BRANCH   3   8
HETATM    8  C   UNL     1     -10.582  11.899  67.883  1.00  0.00    -0.229 C  
BRANCH   8   9
HETATM    9  C   UNL     1     -10.118  10.460  68.304  1.00  0.00    -0.174 A  
HETATM   10  C   UNL     1      -9.120  10.196  69.258  1.00  0.00    -0.208 A  
HETATM   11  C   UNL     1      -8.825   8.886  69.670  1.00  0.00    -0.142 A  
HETATM   12  C   UNL     1      -9.460   7.798  69.084  1.00  0.00    -0.151 A  
HETATM   13  C   UNL     1     -10.406   8.019  68.097  1.00  0.00    -0.250 A  
HETATM   14  C   UNL     1     -10.746   9.327  67.741  1.00  0.00    -0.270 A  
ENDBRANCH   8   9
BRANCH   8  15
HETATM   15  C   UNL     1     -10.985  11.988  66.327  1.00  0.00    -0.340 A  
HETATM   16  C   UNL     1     -10.338  11.259  65.308  1.00  0.00    -0.337 A  
HETATM   17  C   UNL     1     -10.780  11.299  63.973  1.00  0.00    -0.444 A  
HETATM   18  C   UNL     1     -11.887  12.066  63.610  1.00  0.00    -0.602 A  
HETATM   19  C   UNL     1     -12.083  12.776  65.902  1.00  0.00    -0.485 A  
HETATM   20  C   UNL     1     -12.532  12.814  64.579  1.00  0.00    -0.501 A  
ENDBRANCH   8  15
BRANCH   8  21
HETATM   21  C   UNL     1     -11.862  12.328  68.764  1.00  0.00    -0.356 C  
BRANCH  21  22
HETATM   22  C   UNL     1     -12.003  12.372  70.330  1.00  0.00    -0.289 C  
HETATM   23  C   UNL     1     -12.418  11.004  70.902  1.00  0.00    -0.509 C  
BRANCH  22  24
HETATM   24  N   UNL     1     -12.779  13.495  70.905  1.00  0.00    -0.318 NA 
HETATM   25  C   UNL     1     -13.500  13.153  72.138  1.00  0.00    -0.560 C  
HETATM   26  C   UNL     1     -11.960  14.687  71.194  1.00  0.00    -0.346 C  
ENDBRANCH  22  24
ENDBRANCH  21  22
ENDBRANCH   8  21
ENDBRANCH   3   8
ENDBRANCH   2   3
TORSDOF 9
ENDMDL
MODEL       16
REMARK 921   NORMALIZED FREE ENERGY PREDICTED BY IDOCK:   -5.22 KCAL/MOL
REMARK 922        TOTAL FREE ENERGY PREDICTED BY IDOCK:   -9.65 KCAL/MOL
REMARK 923 INTER-LIGAND FREE ENERGY PREDICTED BY IDOCK:   -8.59 KCAL/MOL
REMARK 924 INTRA-LIGAND FREE ENERGY PREDICTED BY IDOCK:   -1.06 KCAL/MOL
REMARK 927      BINDING AFFINITY PREDICTED BY RF-SCORE:    0.00 PKD
ROOT
HETATM    1  C   UNL     1      -6.702  16.090  67.454  1.00  0.00    -0.224 C  
HETATM    2  C   UNL     1      -7.988  15.618  66.785  1.00  0.00    -0.246 C  
ENDROOT
BRANCH   2   3
HETATM    3  C   UNL     1      -8.966  14.974  67.789  1.00  0.00    -0.179 C  
BRANCH   3   4
HETATM    4  O   UNL     1      -9.085  13.562  67.428  1.00  0.00    -0.199 OA 
BRANCH   4   5
HETATM    5  C   UNL     1      -8.418  12.640  68.170  1.00  0.00    -0.177 C  
HETATM    6  C   UNL     1      -9.291  11.429  68.376  1.00  0.00    -0.194 C  
HETATM    7  O   UNL     1      -7.317  12.792  68.677  1.00  0.00    -0.108 OA 
ENDBRANCH   4   5
ENDBRANCH   3   4
BRANCH   3   8
HETATM    8  C   UNL     1     -10.427  15.653  67.820  1.00  0.00    -0.273 C  
BRANCH   8   9
HETATM    9  C   UNL     1     -10.239  17.200  67.636  1.00  0.00    -0.329 A  
HETATM   10  C   UNL     1     -10.521  17.898  66.448  1.00  0.00    -0.318 A  
HETATM   11  C   UNL     1     -10.435  19.298  66.380  1.00  0.00    -0.563 A  
HETATM   12  C   UNL     1      -9.986  20.035  67.469  1.00  0.00    -0.565 A  
HETATM   13  C   UNL     1      -9.641  19.374  68.636  1.00  0.00    -0.490 A  
HETATM   14  C   UNL     1      -9.796  17.988  68.721  1.00  0.00    -0.360 A  
ENDBRANCH   8   9
BRANCH   8  15
HETATM   15  C   UNL     1     -11.075  15.274  69.244  1.00  0.00    -0.277 A  
HETATM   16  C   UNL     1     -11.055  16.129  70.365  1.00  0.00    -0.362 A  
HETATM   17  C   UNL     1     -11.710  15.794  71.564  1.00  0.00    -0.523 A  
HETATM   18  C   UNL     1     -12.412  14.595  71.683  1.00  0.00    -0.410 A  
HETATM   19  C   UNL     1     -11.772  14.055  69.426  1.00  0.00    -0.365 A  
HETATM   20  C   UNL     1     -12.433  13.720  70.612  1.00  0.00    -0.429 A  
ENDBRANCH   8  15
BRANCH   8  21
HETATM   21  C   UNL     1     -11.392  15.089  66.658  1.00  0.00    -0.289 C  
BRANCH  21  22
HETATM   22  C   UNL     1     -11.013  14.666  65.191  1.00  0.00    -0.386 C  
HETATM   23  C   UNL     1     -11.549  15.670  64.154  1.00  0.00    -0.082 C  
BRANCH  22  24
HETATM   24  N   UNL     1     -11.266  13.257  64.810  1.00  0.00    -0.318 NA 
HETATM   25  C   UNL     1     -11.937  12.467  65.851  1.00  0.00    -0.409 C  
HETATM   26  C   UNL     1     -12.062  13.117  63.576  1.00  0.00    -0.514 C  
ENDBRANCH  22  24
ENDBRANCH  21  22
ENDBRANCH   8  21
ENDBRANCH   3   8
ENDBRANCH   2   3
TORSDOF 9
ENDMDL
MODEL       17
REMARK 921   NORMALIZED FREE ENERGY PREDICTED BY IDOCK:   -5.19 KCAL/MOL
REMARK 922        TOTAL FREE ENERGY PREDICTED BY IDOCK:   -9.62 KCAL/MOL
REMARK 923 INTER-LIGAND FREE ENERGY PREDICTED BY IDOCK:   -8.50 KCAL/MOL
REMARK 924 INTRA-LIGAND FREE ENERGY PREDICTED BY IDOCK:   -1.11 KCAL/MOL
REMARK 927      BINDING AFFINITY PREDICTED BY RF-SCORE:    0.00 PKD
ROOT
HETATM    1  C   UNL     1     -12.104  12.922  63.970  1.00  0.00    -0.526 C  
HETATM    2  C   UNL     1     -12.498  13.081  65.434  1.00  0.00    -0.531 C  
ENDROOT
BRANCH   2   3
HETATM    3  C   UNL     1     -11.596  14.090  66.175  1.00  0.00    -0.367 C  
BRANCH   3   4
HETATM    4  O   UNL     1     -10.749  14.728  65.169  1.00  0.00    -0.358 OA 
BRANCH   4   5
HETATM    5  C   UNL     1     -10.956  16.038  64.875  1.00  0.00    -0.384 C  
HETATM    6  C   UNL     1     -10.616  16.887  66.073  1.00  0.00    -0.221 C  
HETATM    7  O   UNL     1     -11.434  16.470  63.836  1.00  0.00    -1.145 OA 
ENDBRANCH   4   5
ENDBRANCH   3   4
BRANCH   3   8
HETATM    8  C   UNL     1     -10.678  13.437  67.326  1.00  0.00    -0.265 C  
BRANCH   8   9
HETATM    9  C   UNL     1     -10.411  11.942  66.935  1.00  0.00    -0.253 A  
HETATM   10  C   UNL     1     -11.116  10.846  67.463  1.00  0.00    -0.375 A  
HETATM   11  C   UNL     1     -10.904   9.539  66.993  1.00  0.00    -0.125 A  
HETATM   12  C   UNL     1      -9.926   9.278  66.041  1.00  0.00    -0.325 A  
HETATM   13  C   UNL     1      -9.171  10.327  65.543  1.00  0.00    -0.232 A  
HETATM   14  C   UNL     1      -9.435  11.633  65.963  1.00  0.00    -0.246 A  
ENDBRANCH   8   9
BRANCH   8  15
HETATM   15  C   UNL     1     -11.504  13.579  68.701  1.00  0.00    -0.343 A  
HETATM   16  C   UNL     1     -11.745  12.506  69.583  1.00  0.00    -0.372 A  
HETATM   17  C   UNL     1     -12.396  12.693  70.816  1.00  0.00    -0.372 A  
HETATM   18  C   UNL     1     -12.823  13.959  71.214  1.00  0.00    -0.435 A  
HETATM   19  C   UNL     1     -11.987  14.838  69.135  1.00  0.00    -0.317 A  
HETATM   20  C   UNL     1     -12.626  15.032  70.363  1.00  0.00    -0.399 A  
ENDBRANCH   8  15
BRANCH   8  21
HETATM   21  C   UNL     1      -9.271  14.205  67.499  1.00  0.00    -0.192 C  
BRANCH  21  22
HETATM   22  C   UNL     1      -8.415  14.400  68.804  1.00  0.00    -0.120 C  
HETATM   23  C   UNL     1      -8.446  15.861  69.290  1.00  0.00    -0.242 C  
BRANCH  22  24
HETATM   24  N   UNL     1      -7.052  13.822  68.809  1.00  0.00    -0.103 NA 
HETATM   25  C   UNL     1      -6.255  14.180  69.990  1.00  0.00    -0.151 C  
HETATM   26  C   UNL     1      -7.038  12.350  68.703  1.00  0.00    -0.103 C  
ENDBRANCH  22  24
ENDBRANCH  21  22
ENDBRANCH   8  21
ENDBRANCH   3   8
ENDBRANCH   2   3
TORSDOF 9
ENDMDL
MODEL       18
REMARK 921   NORMALIZED FREE ENERGY PREDICTED BY IDOCK:   -5.18 KCAL/MOL
REMARK 922        TOTAL FREE ENERGY PREDICTED BY IDOCK:   -9.59 KCAL/MOL
REMARK 923 INTER-LIGAND FREE ENERGY PREDICTED BY IDOCK:   -8.15 KCAL/MOL
REMARK 924 INTRA-LIGAND FREE ENERGY PREDICTED BY IDOCK:   -1.44 KCAL/MOL
REMARK 927      BINDING AFFINITY PREDICTED BY RF-SCORE:    0.00 PKD
ROOT
HETATM    1  C   UNL     1     -10.763  19.093  66.018  1.00  0.00    -0.451 C  
HETATM    2  C   UNL     1     -10.512  17.598  65.855  1.00  0.00    -0.247 C  
ENDROOT
BRANCH   2   3
HETATM    3  C   UNL     1      -9.636  17.026  66.989  1.00  0.00    -0.254 C  
BRANCH   3   4
HETATM    4  O   UNL     1      -8.300  16.815  66.435  1.00  0.00    -0.256 OA 
BRANCH   4   5
HETATM    5  C   UNL     1      -7.449  17.871  66.362  1.00  0.00    -0.273 C  
HETATM    6  C   UNL     1      -7.496  18.651  67.651  1.00  0.00    -0.241 C  
HETATM    7  O   UNL     1      -6.807  18.205  65.377  1.00  0.00    -0.482 OA 
ENDBRANCH   4   5
ENDBRANCH   3   4
BRANCH   3   8
HETATM    8  C   UNL     1     -10.187  15.651  67.622  1.00  0.00    -0.261 C  
BRANCH   8   9
HETATM    9  C   UNL     1      -8.974  14.909  68.284  1.00  0.00    -0.177 A  
HETATM   10  C   UNL     1      -8.508  13.641  67.892  1.00  0.00    -0.177 A  
HETATM   11  C   UNL     1      -7.350  13.077  68.451  1.00  0.00    -0.116 A  
HETATM   12  C   UNL     1      -6.670  13.724  69.476  1.00  0.00    -0.044 A  
HETATM   13  C   UNL     1      -7.136  14.947  69.929  1.00  0.00    -0.109 A  
HETATM   14  C   UNL     1      -8.248  15.536  69.321  1.00  0.00    -0.255 A  
ENDBRANCH   8   9
BRANCH   8  15
HETATM   15  C   UNL     1     -10.833  14.817  66.405  1.00  0.00    -0.322 A  
HETATM   16  C   UNL     1     -10.097  14.362  65.292  1.00  0.00    -0.387 A  
HETATM   17  C   UNL     1     -10.682  13.562  64.294  1.00  0.00    -0.324 A  
HETATM   18  C   UNL     1     -12.022  13.183  64.377  1.00  0.00    -0.454 A  
HETATM   19  C   UNL     1     -12.196  14.434  66.426  1.00  0.00    -0.363 A  
HETATM   20  C   UNL     1     -12.782  13.631  65.443  1.00  0.00    -0.500 A  
ENDBRANCH   8  15
BRANCH   8  21
HETATM   21  C   UNL     1     -11.332  15.899  68.730  1.00  0.00    -0.378 C  
BRANCH  21  22
HETATM   22  C   UNL     1     -11.577  15.123  70.075  1.00  0.00    -0.294 C  
HETATM   23  C   UNL     1     -12.040  13.676  69.820  1.00  0.00    -0.396 C  
BRANCH  22  24
HETATM   24  N   UNL     1     -12.382  15.809  71.112  1.00  0.00    -0.420 NA 
HETATM   25  C   UNL     1     -13.706  15.211  71.334  1.00  0.00    -0.495 C  
HETATM   26  C   UNL     1     -11.711  15.881  72.424  1.00  0.00    -0.477 C  
ENDBRANCH  22  24
ENDBRANCH  21  22
ENDBRANCH   8  21
ENDBRANCH   3   8
ENDBRANCH   2   3
TORSDOF 9
ENDMDL
MODEL       19
REMARK 921   NORMALIZED FREE ENERGY PREDICTED BY IDOCK:   -5.17 KCAL/MOL
REMARK 922        TOTAL FREE ENERGY PREDICTED BY IDOCK:   -9.58 KCAL/MOL
REMARK 923 INTER-LIGAND FREE ENERGY PREDICTED BY IDOCK:   -8.29 KCAL/MOL
REMARK 924 INTRA-LIGAND FREE ENERGY PREDICTED BY IDOCK:   -1.29 KCAL/MOL
REMARK 927      BINDING AFFINITY PREDICTED BY RF-SCORE:    0.00 PKD
ROOT
HETATM    1  C   UNL     1     -10.629  11.250  64.352  1.00  0.00    -0.410 C  
HETATM    2  C   UNL     1     -10.554  12.625  65.006  1.00  0.00    -0.329 C  
ENDROOT
BRANCH   2   3
HETATM    3  C   UNL     1     -11.642  12.819  66.082  1.00  0.00    -0.379 C  
BRANCH   3   4
HETATM    4  O   UNL     1     -12.431  13.986  65.690  1.00  0.00    -0.459 OA 
BRANCH   4   5
HETATM    5  C   UNL     1     -12.281  14.483  64.434  1.00  0.00    -0.458 C  
HETATM    6  C   UNL     1     -11.531  15.789  64.493  1.00  0.00    -0.292 C  
HETATM    7  O   UNL     1     -12.756  14.005  63.415  1.00  0.00    -0.796 OA 
ENDBRANCH   4   5
ENDBRANCH   3   4
BRANCH   3   8
HETATM    8  C   UNL     1     -11.069  13.026  67.574  1.00  0.00    -0.297 C  
BRANCH   8   9
HETATM    9  C   UNL     1     -10.128  14.281  67.556  1.00  0.00    -0.236 A  
HETATM   10  C   UNL     1      -8.841  14.300  66.991  1.00  0.00    -0.243 A  
HETATM   11  C   UNL     1      -8.090  15.484  66.910  1.00  0.00    -0.284 A  
HETATM   12  C   UNL     1      -8.568  16.666  67.463  1.00  0.00    -0.199 A  
HETATM   13  C   UNL     1      -9.807  16.670  68.081  1.00  0.00    -0.250 A  
HETATM   14  C   UNL     1     -10.580  15.505  68.096  1.00  0.00    -0.266 A  
ENDBRANCH   8   9
BRANCH   8  15
HETATM   15  C   UNL     1     -10.285  11.671  67.951  1.00  0.00    -0.203 A  
HETATM   16  C   UNL     1      -9.007  11.647  68.546  1.00  0.00    -0.138 A  
HETATM   17  C   UNL     1      -8.396  10.442  68.939  1.00  0.00    -0.138 A  
HETATM   18  C   UNL     1      -9.043   9.220  68.757  1.00  0.00    -0.136 A  
HETATM   19  C   UNL     1     -10.886  10.403  67.757  1.00  0.00    -0.351 A  
HETATM   20  C   UNL     1     -10.288   9.203  68.154  1.00  0.00    -0.263 A  
ENDBRANCH   8  15
BRANCH   8  21
HETATM   21  C   UNL     1     -12.242  13.251  68.657  1.00  0.00    -0.115 C  
BRANCH  21  22
HETATM   22  C   UNL     1     -12.157  13.159  70.225  1.00  0.00    -0.328 C  
HETATM   23  C   UNL     1     -12.365  11.717  70.721  1.00  0.00    -0.454 C  
BRANCH  22  24
HETATM   24  N   UNL     1     -12.937  14.151  71.001  1.00  0.00    -0.338 NA 
HETATM   25  C   UNL     1     -13.498  13.624  72.252  1.00  0.00    -0.555 C  
HETATM   26  C   UNL     1     -12.169  15.363  71.344  1.00  0.00    -0.371 C  
ENDBRANCH  22  24
ENDBRANCH  21  22
ENDBRANCH   8  21
ENDBRANCH   3   8
ENDBRANCH   2   3
TORSDOF 9
ENDMDL
MODEL       20
REMARK 921   NORMALIZED FREE ENERGY PREDICTED BY IDOCK:   -5.15 KCAL/MOL
REMARK 922        TOTAL FREE ENERGY PREDICTED BY IDOCK:   -9.55 KCAL/MOL
REMARK 923 INTER-LIGAND FREE ENERGY PREDICTED BY IDOCK:   -7.99 KCAL/MOL
REMARK 924 INTRA-LIGAND FREE ENERGY PREDICTED BY IDOCK:   -1.57 KCAL/MOL
REMARK 927      BINDING AFFINITY PREDICTED BY RF-SCORE:    0.00 PKD
ROOT
HETATM    1  C   UNL     1      -8.256  11.092  67.298  1.00  0.00    -0.136 C  
HETATM    2  C   UNL     1      -8.809  12.026  68.369  1.00  0.00    -0.149 C  
ENDROOT
BRANCH   2   3
HETATM    3  C   UNL     1      -8.865  13.492  67.892  1.00  0.00    -0.190 C  
BRANCH   3   4
HETATM    4  O   UNL     1      -8.067  14.280  68.830  1.00  0.00    -0.141 OA 
BRANCH   4   5
HETATM    5  C   UNL     1      -6.852  14.738  68.429  1.00  0.00    -0.104 C  
HETATM    6  C   UNL     1      -6.295  15.674  69.471  1.00  0.00    -0.166 C  
HETATM    7  O   UNL     1      -6.322  14.510  67.352  1.00  0.00    -0.322 OA 
ENDBRANCH   4   5
ENDBRANCH   3   4
BRANCH   3   8
HETATM    8  C   UNL     1     -10.354  14.102  67.798  1.00  0.00    -0.242 C  
BRANCH   8   9
HETATM    9  C   UNL     1     -11.204  13.469  68.955  1.00  0.00    -0.316 A  
HETATM   10  C   UNL     1     -11.606  12.122  68.999  1.00  0.00    -0.374 A  
HETATM   11  C   UNL     1     -12.273  11.590  70.114  1.00  0.00    -0.387 A  
HETATM   12  C   UNL     1     -12.632  12.405  71.182  1.00  0.00    -0.349 A  
HETATM   13  C   UNL     1     -12.305  13.750  71.144  1.00  0.00    -0.428 A  
HETATM   14  C   UNL     1     -11.579  14.259  70.064  1.00  0.00    -0.325 A  
ENDBRANCH   8   9
BRANCH   8  15
HETATM   15  C   UNL     1     -10.912  13.715  66.338  1.00  0.00    -0.297 A  
HETATM   16  C   UNL     1     -10.083  13.443  65.231  1.00  0.00    -0.266 A  
HETATM   17  C   UNL     1     -10.609  13.023  63.996  1.00  0.00    -0.371 A  
HETATM   18  C   UNL     1     -11.984  12.855  63.826  1.00  0.00    -0.582 A  
HETATM   19  C   UNL     1     -12.301  13.561  66.105  1.00  0.00    -0.463 A  
HETATM   20  C   UNL     1     -12.830  13.135  64.884  1.00  0.00    -0.349 A  
ENDBRANCH   8  15
BRANCH   8  21
HETATM   21  C   UNL     1     -10.370  15.708  67.938  1.00  0.00    -0.259 C  
BRANCH  21  22
HETATM   22  C   UNL     1     -10.232  16.791  66.806  1.00  0.00    -0.304 C  
HETATM   23  C   UNL     1      -8.826  16.781  66.179  1.00  0.00    -0.298 C  
BRANCH  22  24
HETATM   24  N   UNL     1     -10.712  18.157  67.119  1.00  0.00    -0.342 NA 
HETATM   25  C   UNL     1     -10.039  18.778  68.268  1.00  0.00    -0.383 C  
HETATM   26  C   UNL     1     -10.594  19.093  65.985  1.00  0.00    -0.442 C  
ENDBRANCH  22  24
ENDBRANCH  21  22
ENDBRANCH   8  21
ENDBRANCH   3   8
ENDBRANCH   2   3
TORSDOF 9
ENDMDL
MODEL       21
REMARK 921   NORMALIZED FREE ENERGY PREDICTED BY IDOCK:   -5.15 KCAL/MOL
REMARK 922        TOTAL FREE ENERGY PREDICTED BY IDOCK:   -9.55 KCAL/MOL
REMARK 923 INTER-LIGAND FREE ENERGY PREDICTED BY IDOCK:   -7.93 KCAL/MOL
REMARK 924 INTRA-LIGAND FREE ENERGY PREDICTED BY IDOCK:   -1.62 KCAL/MOL
REMARK 927      BINDING AFFINITY PREDICTED BY RF-SCORE:    0.00 PKD
ROOT
HETATM    1  C   UNL     1      -7.403  11.332  69.292  1.00  0.00    -0.068 C  
HETATM    2  C   UNL     1      -8.264  11.740  68.102  1.00  0.00    -0.153 C  
ENDROOT
BRANCH   2   3
HETATM    3  C   UNL     1      -9.745  11.930  68.491  1.00  0.00    -0.169 C  
BRANCH   3   4
HETATM    4  O   UNL     1     -10.521  10.965  67.714  1.00  0.00    -0.184 OA 
BRANCH   4   5
HETATM    5  C   UNL     1     -10.543   9.668  68.117  1.00  0.00    -0.226 C  
HETATM    6  C   UNL     1     -10.281   8.766  66.939  1.00  0.00    -0.357 C  
HETATM    7  O   UNL     1     -10.823   9.274  69.240  1.00  0.00    -0.221 OA 
ENDBRANCH   4   5
ENDBRANCH   3   4
BRANCH   3   8
HETATM    8  C   UNL     1     -10.311  13.417  68.235  1.00  0.00    -0.251 C  
BRANCH   8   9
HETATM    9  C   UNL     1     -11.341  13.739  69.374  1.00  0.00    -0.306 A  
HETATM   10  C   UNL     1     -11.766  15.035  69.716  1.00  0.00    -0.341 A  
HETATM   11  C   UNL     1     -12.771  15.251  70.673  1.00  0.00    -0.470 A  
HETATM   12  C   UNL     1     -13.323  14.186  71.375  1.00  0.00    -0.402 A  
HETATM   13  C   UNL     1     -12.883  12.900  71.107  1.00  0.00    -0.326 A  
HETATM   14  C   UNL     1     -11.934  12.686  70.104  1.00  0.00    -0.375 A  
ENDBRANCH   8   9
BRANCH   8  15
HETATM   15  C   UNL     1     -10.990  13.400  66.775  1.00  0.00    -0.298 A  
HETATM   16  C   UNL     1     -12.336  13.742  66.534  1.00  0.00    -0.432 A  
HETATM   17  C   UNL     1     -12.864  13.798  65.231  1.00  0.00    -0.430 A  
HETATM   18  C   UNL     1     -12.064  13.520  64.124  1.00  0.00    -0.488 A  
HETATM   19  C   UNL     1     -10.227  13.094  65.621  1.00  0.00    -0.294 A  
HETATM   20  C   UNL     1     -10.743  13.158  64.323  1.00  0.00    -0.431 A  
ENDBRANCH   8  15
BRANCH   8  21
HETATM   21  C   UNL     1      -9.143  14.528  68.239  1.00  0.00    -0.196 C  
BRANCH  21  22
HETATM   22  C   UNL     1      -9.190  15.999  67.685  1.00  0.00    -0.205 C  
HETATM   23  C   UNL     1      -8.345  16.152  66.407  1.00  0.00    -0.357 C  
BRANCH  22  24
HETATM   24  N   UNL     1      -8.963  17.093  68.658  1.00  0.00    -0.270 NA 
HETATM   25  C   UNL     1      -7.702  17.819  68.457  1.00  0.00    -0.289 C  
HETATM   26  C   UNL     1     -10.045  18.095  68.677  1.00  0.00    -0.392 C  
ENDBRANCH  22  24
ENDBRANCH  21  22
ENDBRANCH   8  21
ENDBRANCH   3   8
ENDBRANCH   2   3
TORSDOF 9
ENDMDL
MODEL       22
REMARK 921   NORMALIZED FREE ENERGY PREDICTED BY IDOCK:   -5.12 KCAL/MOL
REMARK 922        TOTAL FREE ENERGY PREDICTED BY IDOCK:   -9.51 KCAL/MOL
REMARK 923 INTER-LIGAND FREE ENERGY PREDICTED BY IDOCK:   -7.68 KCAL/MOL
REMARK 924 INTRA-LIGAND FREE ENERGY PREDICTED BY IDOCK:   -1.83 KCAL/MOL
REMARK 927      BINDING AFFINITY PREDICTED BY RF-SCORE:    0.00 PKD
ROOT
HETATM    1  C   UNL     1     -10.625  16.511  65.662  1.00  0.00    -0.317 C  
HETATM    2  C   UNL     1      -9.789  15.240  65.568  1.00  0.00    -0.362 C  
ENDROOT
BRANCH   2   3
HETATM    3  C   UNL     1      -9.435  14.670  66.957  1.00  0.00    -0.241 C  
BRANCH   3   4
HETATM    4  O   UNL     1      -7.984  14.498  66.995  1.00  0.00    -0.176 OA 
BRANCH   4   5
HETATM    5  C   UNL     1      -7.215  15.529  67.431  1.00  0.00    -0.209 C  
HETATM    6  C   UNL     1      -7.638  15.924  68.823  1.00  0.00    -0.178 C  
HETATM    7  O   UNL     1      -6.370  16.118  66.773  1.00  0.00    -0.296 OA 
ENDBRANCH   4   5
ENDBRANCH   3   4
BRANCH   3   8
HETATM    8  C   UNL     1     -10.159  13.272  67.303  1.00  0.00    -0.234 C  
BRANCH   8   9
HETATM    9  C   UNL     1     -10.921  12.796  66.016  1.00  0.00    -0.306 A  
HETATM   10  C   UNL     1     -12.296  12.984  65.793  1.00  0.00    -0.477 A  
HETATM   11  C   UNL     1     -12.898  12.632  64.574  1.00  0.00    -0.356 A  
HETATM   12  C   UNL     1     -12.163  12.008  63.574  1.00  0.00    -0.653 A  
HETATM   13  C   UNL     1     -10.818  11.752  63.784  1.00  0.00    -0.490 A  
HETATM   14  C   UNL     1     -10.209  12.168  64.971  1.00  0.00    -0.312 A  
ENDBRANCH   8   9
BRANCH   8  15
HETATM   15  C   UNL     1     -11.152  13.567  68.536  1.00  0.00    -0.300 A  
HETATM   16  C   UNL     1     -11.617  12.573  69.421  1.00  0.00    -0.368 A  
HETATM   17  C   UNL     1     -12.413  12.889  70.537  1.00  0.00    -0.294 A  
HETATM   18  C   UNL     1     -12.767  14.210  70.811  1.00  0.00    -0.414 A  
HETATM   19  C   UNL     1     -11.566  14.888  68.838  1.00  0.00    -0.339 A  
HETATM   20  C   UNL     1     -12.349  15.209  69.950  1.00  0.00    -0.314 A  
ENDBRANCH   8  15
BRANCH   8  21
HETATM   21  C   UNL     1      -9.112  12.134  67.757  1.00  0.00    -0.189 C  
BRANCH  21  22
HETATM   22  C   UNL     1      -9.375  10.602  68.000  1.00  0.00    -0.147 C  
HETATM   23  C   UNL     1      -8.977  10.177  69.426  1.00  0.00    -0.205 C  
BRANCH  22  24
HETATM   24  N   UNL     1      -8.888   9.662  66.964  1.00  0.00    -0.131 NA 
HETATM   25  C   UNL     1      -7.796   8.789  67.415  1.00  0.00    -0.098 C  
HETATM   26  C   UNL     1      -9.947   8.791  66.419  1.00  0.00    -0.275 C  
ENDBRANCH  22  24
ENDBRANCH  21  22
ENDBRANCH   8  21
ENDBRANCH   3   8
ENDBRANCH   2   3
TORSDOF 9
ENDMDL
MODEL       23
REMARK 921   NORMALIZED FREE ENERGY PREDICTED BY IDOCK:   -5.10 KCAL/MOL
REMARK 922        TOTAL FREE ENERGY PREDICTED BY IDOCK:   -9.48 KCAL/MOL
REMARK 923 INTER-LIGAND FREE ENERGY PREDICTED BY IDOCK:   -8.02 KCAL/MOL
REMARK 924 INTRA-LIGAND FREE ENERGY PREDICTED BY IDOCK:   -1.45 KCAL/MOL
REMARK 927      BINDING AFFINITY PREDICTED BY RF-SCORE:    0.00 PKD
ROOT
HETATM    1  C   UNL     1      -7.585  12.253  68.295  1.00  0.00    -0.133 C  
HETATM    2  C   UNL     1      -8.821  12.579  67.465  1.00  0.00    -0.184 C  
ENDROOT
BRANCH   2   3
HETATM    3  C   UNL     1     -10.107  12.600  68.317  1.00  0.00    -0.233 C  
BRANCH   3   4
HETATM    4  O   UNL     1     -10.892  11.426  67.940  1.00  0.00    -0.199 OA 
BRANCH   4   5
HETATM    5  C   UNL     1     -10.539  10.215  68.445  1.00  0.00    -0.217 C  
HETATM    6  C   UNL     1     -10.530   9.189  67.341  1.00  0.00    -0.339 C  
HETATM    7  O   UNL     1     -10.346   9.962  69.625  1.00  0.00    -0.208 OA 
ENDBRANCH   4   5
ENDBRANCH   3   4
BRANCH   3   8
HETATM    8  C   UNL     1     -10.998  13.931  68.138  1.00  0.00    -0.267 C  
BRANCH   8   9
HETATM    9  C   UNL     1     -10.018  15.140  67.936  1.00  0.00    -0.221 A  
HETATM   10  C   UNL     1      -9.976  15.944  66.784  1.00  0.00    -0.255 A  
HETATM   11  C   UNL     1      -9.151  17.077  66.707  1.00  0.00    -0.266 A  
HETATM   12  C   UNL     1      -8.283  17.394  67.745  1.00  0.00    -0.216 A  
HETATM   13  C   UNL     1      -8.253  16.588  68.870  1.00  0.00    -0.241 A  
HETATM   14  C   UNL     1      -9.128  15.502  68.970  1.00  0.00    -0.236 A  
ENDBRANCH   8   9
BRANCH   8  15
HETATM   15  C   UNL     1     -11.882  14.070  69.477  1.00  0.00    -0.378 A  
HETATM   16  C   UNL     1     -12.516  15.264  69.876  1.00  0.00    -0.275 A  
HETATM   17  C   UNL     1     -13.351  15.317  71.006  1.00  0.00    -0.537 A  
HETATM   18  C   UNL     1     -13.587  14.177  71.774  1.00  0.00    -0.483 A  
HETATM   19  C   UNL     1     -12.126  12.949  70.308  1.00  0.00    -0.377 A  
HETATM   20  C   UNL     1     -12.963  12.993  71.427  1.00  0.00    -0.373 A  
ENDBRANCH   8  15
BRANCH   8  21
HETATM   21  C   UNL     1     -11.998  13.837  66.877  1.00  0.00    -0.460 C  
BRANCH  21  22
HETATM   22  C   UNL     1     -11.645  13.593  65.364  1.00  0.00    -0.321 C  
HETATM   23  C   UNL     1     -12.278  14.662  64.454  1.00  0.00    -0.473 C  
BRANCH  22  24
HETATM   24  N   UNL     1     -11.823  12.218  64.844  1.00  0.00    -0.370 NA 
HETATM   25  C   UNL     1     -12.711  12.130  63.676  1.00  0.00    -0.432 C  
HETATM   26  C   UNL     1     -10.554  11.560  64.477  1.00  0.00    -0.329 C  
ENDBRANCH  22  24
ENDBRANCH  21  22
ENDBRANCH   8  21
ENDBRANCH   3   8
ENDBRANCH   2   3
TORSDOF 9
ENDMDL
MODEL       24
REMARK 921   NORMALIZED FREE ENERGY PREDICTED BY IDOCK:   -5.10 KCAL/MOL
REMARK 922        TOTAL FREE ENERGY PREDICTED BY IDOCK:   -9.47 KCAL/MOL
REMARK 923 INTER-LIGAND FREE ENERGY PREDICTED BY IDOCK:   -8.08 KCAL/MOL
REMARK 924 INTRA-LIGAND FREE ENERGY PREDICTED BY IDOCK:   -1.39 KCAL/MOL
REMARK 927      BINDING AFFINITY PREDICTED BY RF-SCORE:    0.00 PKD
ROOT
HETATM    1  C   UNL     1      -7.687  11.554  67.355  1.00  0.00    -0.143 C  
HETATM    2  C   UNL     1      -8.764  12.146  68.256  1.00  0.00    -0.178 C  
ENDROOT
BRANCH   2   3
HETATM    3  C   UNL     1      -9.252  13.522  67.757  1.00  0.00    -0.213 C  
BRANCH   3   4
HETATM    4  O   UNL     1      -8.790  14.518  68.721  1.00  0.00    -0.183 OA 
BRANCH   4   5
HETATM    5  C   UNL     1      -7.480  14.881  68.709  1.00  0.00    -0.132 C  
HETATM    6  C   UNL     1      -7.098  15.355  67.330  1.00  0.00    -0.229 C  
HETATM    7  O   UNL     1      -6.697  14.759  69.639  1.00  0.00    -0.144 OA 
ENDBRANCH   4   5
ENDBRANCH   3   4
BRANCH   3   8
HETATM    8  C   UNL     1     -10.850  13.634  67.582  1.00  0.00    -0.268 C  
BRANCH   8   9
HETATM    9  C   UNL     1     -11.517  12.793  68.726  1.00  0.00    -0.347 A  
HETATM   10  C   UNL     1     -11.713  11.402  68.678  1.00  0.00    -0.394 A  
HETATM   11  C   UNL     1     -12.218  10.692  69.780  1.00  0.00    -0.318 A  
HETATM   12  C   UNL     1     -12.617  11.359  70.931  1.00  0.00    -0.453 A  
HETATM   13  C   UNL     1     -12.495  12.737  70.990  1.00  0.00    -0.369 A  
HETATM   14  C   UNL     1     -11.927  13.431  69.918  1.00  0.00    -0.408 A  
ENDBRANCH   8   9
BRANCH   8  15
HETATM   15  C   UNL     1     -11.188  13.060  66.116  1.00  0.00    -0.320 A  
HETATM   16  C   UNL     1     -10.243  12.417  65.291  1.00  0.00    -0.306 A  
HETATM   17  C   UNL     1     -10.602  11.852  64.054  1.00  0.00    -0.422 A  
HETATM   18  C   UNL     1     -11.920  11.905  63.600  1.00  0.00    -0.578 A  
HETATM   19  C   UNL     1     -12.505  13.117  65.596  1.00  0.00    -0.485 A  
HETATM   20  C   UNL     1     -12.870  12.550  64.372  1.00  0.00    -0.366 A  
ENDBRANCH   8  15
BRANCH   8  21
HETATM   21  C   UNL     1     -11.372  15.157  67.662  1.00  0.00    -0.327 C  
BRANCH  21  22
HETATM   22  C   UNL     1     -10.887  16.403  66.835  1.00  0.00    -0.118 C  
HETATM   23  C   UNL     1     -10.548  16.023  65.382  1.00  0.00    -0.428 C  
BRANCH  22  24
HETATM   24  N   UNL     1      -9.856  17.266  67.457  1.00  0.00    -0.268 NA 
HETATM   25  C   UNL     1      -9.418  18.381  66.608  1.00  0.00    -0.313 C  
HETATM   26  C   UNL     1     -10.274  17.840  68.750  1.00  0.00    -0.373 C  
ENDBRANCH  22  24
ENDBRANCH  21  22
ENDBRANCH   8  21
ENDBRANCH   3   8
ENDBRANCH   2   3
TORSDOF 9
ENDMDL
MODEL       25
REMARK 921   NORMALIZED FREE ENERGY PREDICTED BY IDOCK:   -5.10 KCAL/MOL
REMARK 922        TOTAL FREE ENERGY PREDICTED BY IDOCK:   -9.47 KCAL/MOL
REMARK 923 INTER-LIGAND FREE ENERGY PREDICTED BY IDOCK:   -8.02 KCAL/MOL
REMARK 924 INTRA-LIGAND FREE ENERGY PREDICTED BY IDOCK:   -1.44 KCAL/MOL
REMARK 927      BINDING AFFINITY PREDICTED BY RF-SCORE:    0.00 PKD
ROOT
HETATM    1  C   UNL     1      -9.689  10.840  64.465  1.00  0.00    -0.351 C  
HETATM    2  C   UNL     1     -10.095  11.953  65.425  1.00  0.00    -0.285 C  
ENDROOT
BRANCH   2   3
HETATM    3  C   UNL     1     -11.215  11.513  66.390  1.00  0.00    -0.243 C  
BRANCH   3   4
HETATM    4  O   UNL     1     -12.303  12.479  66.256  1.00  0.00    -0.570 OA 
BRANCH   4   5
HETATM    5  C   UNL     1     -12.651  12.903  65.013  1.00  0.00    -0.472 C  
HETATM    6  C   UNL     1     -12.371  14.378  64.884  1.00  0.00    -0.414 C  
HETATM    7  O   UNL     1     -13.195  12.225  64.153  1.00  0.00    -0.745 OA 
ENDBRANCH   4   5
ENDBRANCH   3   4
BRANCH   3   8
HETATM    8  C   UNL     1     -10.758  11.416  67.933  1.00  0.00    -0.242 C  
BRANCH   8   9
HETATM    9  C   UNL     1      -9.545  12.390  68.134  1.00  0.00    -0.218 A  
HETATM   10  C   UNL     1      -8.200  11.983  68.178  1.00  0.00    -0.163 A  
HETATM   11  C   UNL     1      -7.151  12.915  68.253  1.00  0.00    -0.102 A  
HETATM   12  C   UNL     1      -7.417  14.274  68.368  1.00  0.00    -0.122 A  
HETATM   13  C   UNL     1      -8.733  14.705  68.390  1.00  0.00    -0.175 A  
HETATM   14  C   UNL     1      -9.770  13.780  68.245  1.00  0.00    -0.231 A  
ENDBRANCH   8   9
BRANCH   8  15
HETATM   15  C   UNL     1     -10.366   9.877  68.196  1.00  0.00    -0.232 A  
HETATM   16  C   UNL     1      -9.792   9.410  69.395  1.00  0.00    -0.183 A  
HETATM   17  C   UNL     1      -9.547   8.042  69.616  1.00  0.00    -0.168 A  
HETATM   18  C   UNL     1      -9.871   7.093  68.647  1.00  0.00    -0.154 A  
HETATM   19  C   UNL     1     -10.646   8.879  67.230  1.00  0.00    -0.304 A  
HETATM   20  C   UNL     1     -10.414   7.517  67.447  1.00  0.00    -0.367 A  
ENDBRANCH   8  15
BRANCH   8  21
HETATM   21  C   UNL     1     -11.942  11.819  68.950  1.00  0.00    -0.332 C  
BRANCH  21  22
HETATM   22  C   UNL     1     -11.917  11.839  70.523  1.00  0.00    -0.289 C  
HETATM   23  C   UNL     1     -12.640  10.617  71.118  1.00  0.00    -0.526 C  
BRANCH  22  24
HETATM   24  N   UNL     1     -12.294  13.108  71.186  1.00  0.00    -0.288 NA 
HETATM   25  C   UNL     1     -12.595  14.204  70.254  1.00  0.00    -0.306 C  
HETATM   26  C   UNL     1     -13.451  12.976  72.092  1.00  0.00    -0.542 C  
ENDBRANCH  22  24
ENDBRANCH  21  22
ENDBRANCH   8  21
ENDBRANCH   3   8
ENDBRANCH   2   3
TORSDOF 9
ENDMDL
MODEL       26
REMARK 921   NORMALIZED FREE ENERGY PREDICTED BY IDOCK:   -5.10 KCAL/MOL
REMARK 922        TOTAL FREE ENERGY PREDICTED BY IDOCK:   -9.47 KCAL/MOL
REMARK 923 INTER-LIGAND FREE ENERGY PREDICTED BY IDOCK:   -8.16 KCAL/MOL
REMARK 924 INTRA-LIGAND FREE ENERGY PREDICTED BY IDOCK:   -1.31 KCAL/MOL
REMARK 927      BINDING AFFINITY PREDICTED BY RF-SCORE:    0.00 PKD
ROOT
HETATM    1  C   UNL     1     -11.104  12.191  68.077  1.00  0.00    -0.292 C  
HETATM    2  C   UNL     1     -12.092  13.345  67.949  1.00  0.00    -0.289 C  
ENDROOT
BRANCH   2   3
HETATM    3  C   UNL     1     -11.420  14.634  67.433  1.00  0.00    -0.369 C  
BRANCH   3   4
HETATM    4  O   UNL     1     -10.538  14.249  66.333  1.00  0.00    -0.280 OA 
BRANCH   4   5
HETATM    5  C   UNL     1     -11.070  14.098  65.091  1.00  0.00    -0.348 C  
HETATM    6  C   UNL     1     -10.420  12.927  64.400  1.00  0.00    -0.419 C  
HETATM    7  O   UNL     1     -11.883  14.845  64.567  1.00  0.00    -0.426 OA 
ENDBRANCH   4   5
ENDBRANCH   3   4
BRANCH   3   8
HETATM    8  C   UNL     1     -10.579  15.436  68.550  1.00  0.00    -0.240 C  
BRANCH   8   9
HETATM    9  C   UNL     1     -11.382  15.363  69.896  1.00  0.00    -0.318 A  
HETATM   10  C   UNL     1     -10.792  15.240  71.166  1.00  0.00    -0.134 A  
HETATM   11  C   UNL     1     -11.560  15.289  72.341  1.00  0.00    -0.515 A  
HETATM   12  C   UNL     1     -12.945  15.381  72.281  1.00  0.00    -0.481 A  
HETATM   13  C   UNL     1     -13.564  15.443  71.044  1.00  0.00    -0.465 A  
HETATM   14  C   UNL     1     -12.791  15.464  69.880  1.00  0.00    -0.011 A  
ENDBRANCH   8   9
BRANCH   8  15
HETATM   15  C   UNL     1     -10.420  16.942  68.005  1.00  0.00    -0.347 A  
HETATM   16  C   UNL     1     -10.469  17.289  66.639  1.00  0.00    -0.257 A  
HETATM   17  C   UNL     1     -10.414  18.628  66.213  1.00  0.00    -0.468 A  
HETATM   18  C   UNL     1     -10.314  19.668  67.137  1.00  0.00    -0.581 A  
HETATM   19  C   UNL     1     -10.285  18.031  68.901  1.00  0.00    -0.320 A  
HETATM   20  C   UNL     1     -10.239  19.364  68.484  1.00  0.00    -0.492 A  
ENDBRANCH   8  15
BRANCH   8  21
HETATM   21  C   UNL     1      -9.107  14.818  68.771  1.00  0.00    -0.191 C  
BRANCH  21  22
HETATM   22  C   UNL     1      -7.719  15.419  68.340  1.00  0.00    -0.120 C  
HETATM   23  C   UNL     1      -6.855  14.379  67.602  1.00  0.00    -0.202 C  
BRANCH  22  24
HETATM   24  N   UNL     1      -6.961  16.169  69.368  1.00  0.00    -0.219 NA 
HETATM   25  C   UNL     1      -5.705  15.524  69.775  1.00  0.00    -0.129 C  
HETATM   26  C   UNL     1      -6.632  17.549  68.963  1.00  0.00    -0.243 C  
ENDBRANCH  22  24
ENDBRANCH  21  22
ENDBRANCH   8  21
ENDBRANCH   3   8
ENDBRANCH   2   3
TORSDOF 9
ENDMDL
MODEL       27
REMARK 921   NORMALIZED FREE ENERGY PREDICTED BY IDOCK:   -5.10 KCAL/MOL
REMARK 922        TOTAL FREE ENERGY PREDICTED BY IDOCK:   -9.47 KCAL/MOL
REMARK 923 INTER-LIGAND FREE ENERGY PREDICTED BY IDOCK:   -8.29 KCAL/MOL
REMARK 924 INTRA-LIGAND FREE ENERGY PREDICTED BY IDOCK:   -1.18 KCAL/MOL
REMARK 927      BINDING AFFINITY PREDICTED BY RF-SCORE:    0.00 PKD
ROOT
HETATM    1  C   UNL     1     -11.949  13.389  64.585  1.00  0.00    -0.441 C  
HETATM    2  C   UNL     1     -12.649  13.912  65.834  1.00  0.00    -0.498 C  
ENDROOT
BRANCH   2   3
HETATM    3  C   UNL     1     -11.676  14.637  66.788  1.00  0.00    -0.341 C  
BRANCH   3   4
HETATM    4  O   UNL     1     -10.589  15.170  65.969  1.00  0.00    -0.297 OA 
BRANCH   4   5
HETATM    5  C   UNL     1     -10.657  16.463  65.555  1.00  0.00    -0.330 C  
HETATM    6  C   UNL     1     -10.398  17.383  66.720  1.00  0.00    -0.305 C  
HETATM    7  O   UNL     1     -10.971  16.839  64.435  1.00  0.00    -0.974 OA 
ENDBRANCH   4   5
ENDBRANCH   3   4
BRANCH   3   8
HETATM    8  C   UNL     1     -11.072  13.702  67.953  1.00  0.00    -0.283 C  
BRANCH   8   9
HETATM    9  C   UNL     1     -11.854  14.022  69.276  1.00  0.00    -0.389 A  
HETATM   10  C   UNL     1     -12.180  13.068  70.256  1.00  0.00    -0.368 A  
HETATM   11  C   UNL     1     -12.785  13.436  71.468  1.00  0.00    -0.386 A  
HETATM   12  C   UNL     1     -13.158  14.754  71.703  1.00  0.00    -0.418 A  
HETATM   13  C   UNL     1     -12.907  15.710  70.734  1.00  0.00    -0.457 A  
HETATM   14  C   UNL     1     -12.241  15.350  69.559  1.00  0.00    -0.277 A  
ENDBRANCH   8   9
BRANCH   8  15
HETATM   15  C   UNL     1      -9.506  14.061  68.058  1.00  0.00    -0.206 A  
HETATM   16  C   UNL     1      -8.974  14.973  68.992  1.00  0.00    -0.205 A  
HETATM   17  C   UNL     1      -7.589  15.191  69.108  1.00  0.00    -0.188 A  
HETATM   18  C   UNL     1      -6.687  14.502  68.297  1.00  0.00    -0.116 A  
HETATM   19  C   UNL     1      -8.553  13.412  67.235  1.00  0.00    -0.216 A  
HETATM   20  C   UNL     1      -7.175  13.617  67.351  1.00  0.00    -0.108 A  
ENDBRANCH   8  15
BRANCH   8  21
HETATM   21  C   UNL     1     -11.211  12.132  67.616  1.00  0.00    -0.345 C  
BRANCH  21  22
HETATM   22  C   UNL     1     -10.168  10.981  67.864  1.00  0.00    -0.182 C  
HETATM   23  C   UNL     1     -10.398   9.792  66.914  1.00  0.00    -0.301 C  
BRANCH  22  24
HETATM   24  N   UNL     1      -9.951  10.561  69.268  1.00  0.00    -0.220 NA 
HETATM   25  C   UNL     1     -11.051   9.765  69.830  1.00  0.00    -0.254 C  
HETATM   26  C   UNL     1      -8.709   9.788  69.463  1.00  0.00    -0.185 C  
ENDBRANCH  22  24
ENDBRANCH  21  22
ENDBRANCH   8  21
ENDBRANCH   3   8
ENDBRANCH   2   3
TORSDOF 9
ENDMDL
MODEL       28
REMARK 921   NORMALIZED FREE ENERGY PREDICTED BY IDOCK:   -5.09 KCAL/MOL
REMARK 922        TOTAL FREE ENERGY PREDICTED BY IDOCK:   -9.46 KCAL/MOL
REMARK 923 INTER-LIGAND FREE ENERGY PREDICTED BY IDOCK:   -7.71 KCAL/MOL
REMARK 924 INTRA-LIGAND FREE ENERGY PREDICTED BY IDOCK:   -1.75 KCAL/MOL
REMARK 927      BINDING AFFINITY PREDICTED BY RF-SCORE:    0.00 PKD
ROOT
HETATM    1  C   UNL     1     -11.707  15.691  69.720  1.00  0.00    -0.368 C  
HETATM    2  C   UNL     1     -10.464  14.909  69.310  1.00  0.00    -0.246 C  
ENDROOT
BRANCH   2   3
HETATM    3  C   UNL     1     -10.771  13.847  68.234  1.00  0.00    -0.251 C  
BRANCH   3   4
HETATM    4  O   UNL     1     -10.572  12.538  68.854  1.00  0.00    -0.204 OA 
BRANCH   4   5
HETATM    5  C   UNL     1     -11.642  11.712  68.995  1.00  0.00    -0.316 C  
HETATM    6  C   UNL     1     -12.096  11.713  70.432  1.00  0.00    -0.462 C  
HETATM    7  O   UNL     1     -12.115  11.000  68.121  1.00  0.00    -0.610 OA 
ENDBRANCH   4   5
ENDBRANCH   3   4
BRANCH   3   8
HETATM    8  C   UNL     1      -9.864  13.966  66.908  1.00  0.00    -0.268 C  
BRANCH   8   9
HETATM    9  C   UNL     1      -9.585  15.489  66.654  1.00  0.00    -0.273 A  
HETATM   10  C   UNL     1     -10.583  16.448  66.408  1.00  0.00    -0.236 A  
HETATM   11  C   UNL     1     -10.278  17.815  66.296  1.00  0.00    -0.364 A  
HETATM   12  C   UNL     1      -8.960  18.254  66.344  1.00  0.00    -0.257 A  
HETATM   13  C   UNL     1      -7.946  17.328  66.525  1.00  0.00    -0.318 A  
HETATM   14  C   UNL     1      -8.262  15.979  66.706  1.00  0.00    -0.307 A  
ENDBRANCH   8   9
BRANCH   8  15
HETATM   15  C   UNL     1     -10.709  13.286  65.717  1.00  0.00    -0.286 A  
HETATM   16  C   UNL     1     -10.139  12.460  64.727  1.00  0.00    -0.260 A  
HETATM   17  C   UNL     1     -10.927  11.814  63.757  1.00  0.00    -0.500 A  
HETATM   18  C   UNL     1     -12.313  11.968  63.746  1.00  0.00    -0.602 A  
HETATM   19  C   UNL     1     -12.115  13.436  65.643  1.00  0.00    -0.476 A  
HETATM   20  C   UNL     1     -12.905  12.790  64.688  1.00  0.00    -0.355 A  
ENDBRANCH   8  15
BRANCH   8  21
HETATM   21  C   UNL     1      -8.463  13.181  67.049  1.00  0.00    -0.139 C  
BRANCH  21  22
HETATM   22  C   UNL     1      -7.812  12.565  68.341  1.00  0.00    -0.141 C  
HETATM   23  C   UNL     1      -6.630  13.414  68.841  1.00  0.00    -0.107 C  
BRANCH  22  24
HETATM   24  N   UNL     1      -7.508  11.116  68.317  1.00  0.00    -0.088 NA 
HETATM   25  C   UNL     1      -7.643  10.454  69.622  1.00  0.00    -0.153 C  
HETATM   26  C   UNL     1      -8.334  10.359  67.357  1.00  0.00    -0.121 C  
ENDBRANCH  22  24
ENDBRANCH  21  22
ENDBRANCH   8  21
ENDBRANCH   3   8
ENDBRANCH   2   3
TORSDOF 9
ENDMDL
MODEL       29
REMARK 921   NORMALIZED FREE ENERGY PREDICTED BY IDOCK:   -5.06 KCAL/MOL
REMARK 922        TOTAL FREE ENERGY PREDICTED BY IDOCK:   -9.41 KCAL/MOL
REMARK 923 INTER-LIGAND FREE ENERGY PREDICTED BY IDOCK:   -7.86 KCAL/MOL
REMARK 924 INTRA-LIGAND FREE ENERGY PREDICTED BY IDOCK:   -1.55 KCAL/MOL
REMARK 927      BINDING AFFINITY PREDICTED BY RF-SCORE:    0.00 PKD
ROOT
HETATM    1  C   UNL     1     -11.380  15.629  64.630  1.00  0.00    -0.355 C  
HETATM    2  C   UNL     1     -12.008  14.697  65.660  1.00  0.00    -0.243 C  
ENDROOT
BRANCH   2   3
HETATM    3  C   UNL     1     -11.157  13.432  65.897  1.00  0.00    -0.280 C  
BRANCH   3   4
HETATM    4  O   UNL     1     -11.918  12.298  65.374  1.00  0.00    -0.404 OA 
BRANCH   4   5
HETATM    5  C   UNL     1     -11.962  12.105  64.030  1.00  0.00    -0.440 C  
HETATM    6  C   UNL     1     -10.561  11.987  63.488  1.00  0.00    -0.514 C  
HETATM    7  O   UNL     1     -12.971  12.117  63.339  1.00  0.00    -0.776 OA 
ENDBRANCH   4   5
ENDBRANCH   3   4
BRANCH   3   8
HETATM    8  C   UNL     1     -10.778  13.168  67.441  1.00  0.00    -0.262 C  
BRANCH   8   9
HETATM    9  C   UNL     1      -9.600  14.134  67.816  1.00  0.00    -0.219 A  
HETATM   10  C   UNL     1      -9.671  15.536  67.747  1.00  0.00    -0.211 A  
HETATM   11  C   UNL     1      -8.618  16.349  68.199  1.00  0.00    -0.193 A  
HETATM   12  C   UNL     1      -7.433  15.786  68.656  1.00  0.00    -0.151 A  
HETATM   13  C   UNL     1      -7.305  14.407  68.680  1.00  0.00    -0.123 A  
HETATM   14  C   UNL     1      -8.382  13.603  68.295  1.00  0.00    -0.165 A  
ENDBRANCH   8   9
BRANCH   8  15
HETATM   15  C   UNL     1     -10.363  11.616  67.548  1.00  0.00    -0.220 A  
HETATM   16  C   UNL     1      -9.320  11.032  66.801  1.00  0.00    -0.199 A  
HETATM   17  C   UNL     1      -8.933   9.693  66.990  1.00  0.00    -0.150 A  
HETATM   18  C   UNL     1      -9.572   8.892  67.936  1.00  0.00    -0.171 A  
HETATM   19  C   UNL     1     -11.002  10.753  68.472  1.00  0.00    -0.291 A  
HETATM   20  C   UNL     1     -10.616   9.424  68.672  1.00  0.00    -0.230 A  
ENDBRANCH   8  15
BRANCH   8  21
HETATM   21  C   UNL     1     -12.021  13.430  68.432  1.00  0.00    -0.359 C  
BRANCH  21  22
HETATM   22  C   UNL     1     -11.994  13.868  69.943  1.00  0.00    -0.341 C  
HETATM   23  C   UNL     1     -12.619  12.797  70.856  1.00  0.00    -0.342 C  
BRANCH  22  24
HETATM   24  N   UNL     1     -12.466  15.236  70.257  1.00  0.00    -0.368 NA 
HETATM   25  C   UNL     1     -13.619  15.276  71.167  1.00  0.00    -0.469 C  
HETATM   26  C   UNL     1     -11.420  16.098  70.839  1.00  0.00    -0.386 C  
ENDBRANCH  22  24
ENDBRANCH  21  22
ENDBRANCH   8  21
ENDBRANCH   3   8
ENDBRANCH   2   3
TORSDOF 9
ENDMDL
MODEL       30
REMARK 921   NORMALIZED FREE ENERGY PREDICTED BY IDOCK:   -5.05 KCAL/MOL
REMARK 922        TOTAL FREE ENERGY PREDICTED BY IDOCK:   -9.39 KCAL/MOL
REMARK 923 INTER-LIGAND FREE ENERGY PREDICTED BY IDOCK:   -8.03 KCAL/MOL
REMARK 924 INTRA-LIGAND FREE ENERGY PREDICTED BY IDOCK:   -1.36 KCAL/MOL
REMARK 927      BINDING AFFINITY PREDICTED BY RF-SCORE:    0.00 PKD
ROOT
HETATM    1  C   UNL     1     -10.894  15.925  69.518  1.00  0.00    -0.305 C  
HETATM    2  C   UNL     1     -11.667  15.265  68.381  1.00  0.00    -0.340 C  
ENDROOT
BRANCH   2   3
HETATM    3  C   UNL     1     -10.750  14.865  67.207  1.00  0.00    -0.294 C  
BRANCH   3   4
HETATM    4  O   UNL     1     -11.382  15.353  65.983  1.00  0.00    -0.238 OA 
BRANCH   4   5
HETATM    5  C   UNL     1     -10.782  16.359  65.293  1.00  0.00    -0.295 C  
HETATM    6  C   UNL     1      -9.504  16.756  65.986  1.00  0.00    -0.257 C  
HETATM    7  O   UNL     1     -11.242  16.926  64.313  1.00  0.00    -1.204 OA 
ENDBRANCH   4   5
ENDBRANCH   3   4
BRANCH   3   8
HETATM    8  C   UNL     1     -10.481  13.281  67.087  1.00  0.00    -0.248 C  
BRANCH   8   9
HETATM    9  C   UNL     1      -8.940  13.043  67.264  1.00  0.00    -0.212 A  
HETATM   10  C   UNL     1      -8.289  11.826  66.994  1.00  0.00    -0.172 A  
HETATM   11  C   UNL     1      -6.892  11.708  67.069  1.00  0.00    -0.144 A  
HETATM   12  C   UNL     1      -6.111  12.776  67.495  1.00  0.00    -0.152 A  
HETATM   13  C   UNL     1      -6.726  13.971  67.828  1.00  0.00    -0.188 A  
HETATM   14  C   UNL     1      -8.109  14.105  67.683  1.00  0.00    -0.188 A  
ENDBRANCH   8   9
BRANCH   8  15
HETATM   15  C   UNL     1     -11.012  12.839  65.632  1.00  0.00    -0.302 A  
HETATM   16  C   UNL     1     -10.162  12.500  64.559  1.00  0.00    -0.332 A  
HETATM   17  C   UNL     1     -10.668  12.035  63.332  1.00  0.00    -0.475 A  
HETATM   18  C   UNL     1     -12.041  11.886  63.136  1.00  0.00    -0.321 A  
HETATM   19  C   UNL     1     -12.397  12.703  65.372  1.00  0.00    -0.499 A  
HETATM   20  C   UNL     1     -12.907  12.232  64.159  1.00  0.00    -0.371 A  
ENDBRANCH   8  15
BRANCH   8  21
HETATM   21  C   UNL     1     -11.285  12.435  68.199  1.00  0.00    -0.313 C  
BRANCH  21  22
HETATM   22  C   UNL     1     -10.818  11.151  68.979  1.00  0.00    -0.231 C  
HETATM   23  C   UNL     1     -11.070   9.869  68.164  1.00  0.00    -0.215 C  
BRANCH  22  24
HETATM   24  N   UNL     1     -11.248  11.028  70.391  1.00  0.00    -0.149 NA 
HETATM   25  C   UNL     1     -12.671  11.319  70.610  1.00  0.00    -0.227 C  
HETATM   26  C   UNL     1     -10.979   9.699  70.971  1.00  0.00    -0.361 C  
ENDBRANCH  22  24
ENDBRANCH  21  22
ENDBRANCH   8  21
ENDBRANCH   3   8
ENDBRANCH   2   3
TORSDOF 9
ENDMDL
MODEL       31
REMARK 921   NORMALIZED FREE ENERGY PREDICTED BY IDOCK:   -5.05 KCAL/MOL
REMARK 922        TOTAL FREE ENERGY PREDICTED BY IDOCK:   -9.39 KCAL/MOL
REMARK 923 INTER-LIGAND FREE ENERGY PREDICTED BY IDOCK:   -8.11 KCAL/MOL
REMARK 924 INTRA-LIGAND FREE ENERGY PREDICTED BY IDOCK:   -1.27 KCAL/MOL
REMARK 927      BINDING AFFINITY PREDICTED BY RF-SCORE:    0.00 PKD
ROOT
HETATM    1  C   UNL     1      -7.765  11.821  68.549  1.00  0.00    -0.137 C  
HETATM    2  C   UNL     1      -8.838  12.527  67.727  1.00  0.00    -0.178 C  
ENDROOT
BRANCH   2   3
HETATM    3  C   UNL     1     -10.201  12.556  68.448  1.00  0.00    -0.228 C  
BRANCH   3   4
HETATM    4  O   UNL     1     -10.999  11.459  67.903  1.00  0.00    -0.208 OA 
BRANCH   4   5
HETATM    5  C   UNL     1     -10.799  10.204  68.384  1.00  0.00    -0.242 C  
HETATM    6  C   UNL     1     -10.524   9.261  67.241  1.00  0.00    -0.334 C  
HETATM    7  O   UNL     1     -10.913   9.860  69.552  1.00  0.00    -0.231 OA 
ENDBRANCH   4   5
ENDBRANCH   3   4
BRANCH   3   8
HETATM    8  C   UNL     1     -11.004  13.944  68.290  1.00  0.00    -0.274 C  
BRANCH   8   9
HETATM    9  C   UNL     1      -9.950  15.105  68.253  1.00  0.00    -0.223 A  
HETATM   10  C   UNL     1      -8.933  15.285  69.207  1.00  0.00    -0.241 A  
HETATM   11  C   UNL     1      -7.953  16.280  69.059  1.00  0.00    -0.238 A  
HETATM   12  C   UNL     1      -8.008  17.177  67.999  1.00  0.00    -0.212 A  
HETATM   13  C   UNL     1      -9.032  17.068  67.073  1.00  0.00    -0.236 A  
HETATM   14  C   UNL     1      -9.963  16.032  67.187  1.00  0.00    -0.249 A  
ENDBRANCH   8   9
BRANCH   8  15
HETATM   15  C   UNL     1     -11.991  14.045  69.558  1.00  0.00    -0.390 A  
HETATM   16  C   UNL     1     -12.349  12.943  70.360  1.00  0.00    -0.333 A  
HETATM   17  C   UNL     1     -13.143  13.091  71.512  1.00  0.00    -0.400 A  
HETATM   18  C   UNL     1     -13.603  14.347  71.905  1.00  0.00    -0.491 A  
HETATM   19  C   UNL     1     -12.510  15.294  69.981  1.00  0.00    -0.330 A  
HETATM   20  C   UNL     1     -13.291  15.450  71.129  1.00  0.00    -0.580 A  
ENDBRANCH   8  15
BRANCH   8  21
HETATM   21  C   UNL     1     -11.897  13.988  66.948  1.00  0.00    -0.458 C  
BRANCH  21  22
HETATM   22  C   UNL     1     -11.445  13.737  65.463  1.00  0.00    -0.311 C  
HETATM   23  C   UNL     1     -12.023  14.796  64.506  1.00  0.00    -0.451 C  
BRANCH  22  24
HETATM   24  N   UNL     1     -11.582  12.357  64.942  1.00  0.00    -0.331 NA 
HETATM   25  C   UNL     1     -12.471  12.244  63.777  1.00  0.00    -0.515 C  
HETATM   26  C   UNL     1     -10.295  11.740  64.570  1.00  0.00    -0.294 C  
ENDBRANCH  22  24
ENDBRANCH  21  22
ENDBRANCH   8  21
ENDBRANCH   3   8
ENDBRANCH   2   3
TORSDOF 9
ENDMDL
MODEL       32
REMARK 921   NORMALIZED FREE ENERGY PREDICTED BY IDOCK:   -5.04 KCAL/MOL
REMARK 922        TOTAL FREE ENERGY PREDICTED BY IDOCK:   -9.38 KCAL/MOL
REMARK 923 INTER-LIGAND FREE ENERGY PREDICTED BY IDOCK:   -8.10 KCAL/MOL
REMARK 924 INTRA-LIGAND FREE ENERGY PREDICTED BY IDOCK:   -1.28 KCAL/MOL
REMARK 927      BINDING AFFINITY PREDICTED BY RF-SCORE:    0.00 PKD
ROOT
HETATM    1  C   UNL     1      -7.908  15.536  69.240  1.00  0.00    -0.227 C  
HETATM    2  C   UNL     1      -9.414  15.372  69.415  1.00  0.00    -0.267 C  
ENDROOT
BRANCH   2   3
HETATM    3  C   UNL     1     -10.104  14.897  68.120  1.00  0.00    -0.222 C  
BRANCH   3   4
HETATM    4  O   UNL     1     -10.731  16.070  67.513  1.00  0.00    -0.312 OA 
BRANCH   4   5
HETATM    5  C   UNL     1     -10.043  16.764  66.568  1.00  0.00    -0.315 C  
HETATM    6  C   UNL     1     -10.087  18.235  66.888  1.00  0.00    -0.377 C  
HETATM    7  O   UNL     1      -9.539  16.290  65.560  1.00  0.00    -0.474 OA 
ENDBRANCH   4   5
ENDBRANCH   3   4
BRANCH   3   8
HETATM    8  C   UNL     1     -11.207  13.743  68.341  1.00  0.00    -0.300 C  
BRANCH   8   9
HETATM    9  C   UNL     1     -12.003  14.087  69.649  1.00  0.00    -0.393 A  
HETATM   10  C   UNL     1     -12.616  15.327  69.902  1.00  0.00    -0.213 A  
HETATM   11  C   UNL     1     -13.406  15.538  71.043  1.00  0.00    -0.495 A  
HETATM   12  C   UNL     1     -13.541  14.545  72.006  1.00  0.00    -0.509 A  
HETATM   13  C   UNL     1     -12.901  13.331  71.818  1.00  0.00    -0.367 A  
HETATM   14  C   UNL     1     -12.174  13.103  70.647  1.00  0.00    -0.402 A  
ENDBRANCH   8   9
BRANCH   8  15
HETATM   15  C   UNL     1     -10.396  12.357  68.458  1.00  0.00    -0.232 A  
HETATM   16  C   UNL     1     -11.013  11.105  68.659  1.00  0.00    -0.268 A  
HETATM   17  C   UNL     1     -10.274   9.908  68.667  1.00  0.00    -0.197 A  
HETATM   18  C   UNL     1      -8.893   9.920  68.468  1.00  0.00    -0.122 A  
HETATM   19  C   UNL     1      -8.990  12.319  68.295  1.00  0.00    -0.182 A  
HETATM   20  C   UNL     1      -8.251  11.133  68.292  1.00  0.00    -0.134 A  
ENDBRANCH   8  15
BRANCH   8  21
HETATM   21  C   UNL     1     -12.233  13.628  67.104  1.00  0.00    -0.340 C  
BRANCH  21  22
HETATM   22  C   UNL     1     -11.908  13.455  65.575  1.00  0.00    -0.363 C  
HETATM   23  C   UNL     1     -12.603  14.531  64.720  1.00  0.00    -0.232 C  
BRANCH  22  24
HETATM   24  N   UNL     1     -12.045  12.094  65.007  1.00  0.00    -0.377 NA 
HETATM   25  C   UNL     1     -12.643  12.063  63.665  1.00  0.00    -0.490 C  
HETATM   26  C   UNL     1     -10.769  11.358  64.933  1.00  0.00    -0.286 C  
ENDBRANCH  22  24
ENDBRANCH  21  22
ENDBRANCH   8  21
ENDBRANCH   3   8
ENDBRANCH   2   3
TORSDOF 9
ENDMDL
MODEL       33
REMARK 921   NORMALIZED FREE ENERGY PREDICTED BY IDOCK:   -5.03 KCAL/MOL
REMARK 922        TOTAL FREE ENERGY PREDICTED BY IDOCK:   -9.37 KCAL/MOL
REMARK 923 INTER-LIGAND FREE ENERGY PREDICTED BY IDOCK:   -7.64 KCAL/MOL
REMARK 924 INTRA-LIGAND FREE ENERGY PREDICTED BY IDOCK:   -1.73 KCAL/MOL
REMARK 927      BINDING AFFINITY PREDICTED BY RF-SCORE:    0.00 PKD
ROOT
HETATM    1  C   UNL     1     -11.859  15.577  69.540  1.00  0.00    -0.390 C  
HETATM    2  C   UNL     1     -10.567  14.863  69.159  1.00  0.00    -0.248 C  
ENDROOT
BRANCH   2   3
HETATM    3  C   UNL     1     -10.824  13.614  68.292  1.00  0.00    -0.251 C  
BRANCH   3   4
HETATM    4  O   UNL     1     -10.772  12.455  69.181  1.00  0.00    -0.160 OA 
BRANCH   4   5
HETATM    5  C   UNL     1     -11.900  11.717  69.360  1.00  0.00    -0.334 C  
HETATM    6  C   UNL     1     -12.409  11.903  70.766  1.00  0.00    -0.416 C  
HETATM    7  O   UNL     1     -12.385  10.945  68.545  1.00  0.00    -0.490 OA 
ENDBRANCH   4   5
ENDBRANCH   3   4
BRANCH   3   8
HETATM    8  C   UNL     1      -9.777  13.420  67.082  1.00  0.00    -0.237 C  
BRANCH   8   9
HETATM    9  C   UNL     1      -8.968  14.756  66.931  1.00  0.00    -0.276 A  
HETATM   10  C   UNL     1      -7.669  14.958  67.428  1.00  0.00    -0.231 A  
HETATM   11  C   UNL     1      -6.957  16.140  67.166  1.00  0.00    -0.244 A  
HETATM   12  C   UNL     1      -7.551  17.186  66.471  1.00  0.00    -0.320 A  
HETATM   13  C   UNL     1      -8.852  17.045  66.019  1.00  0.00    -0.170 A  
HETATM   14  C   UNL     1      -9.530  15.840  66.221  1.00  0.00    -0.349 A  
ENDBRANCH   8   9
BRANCH   8  15
HETATM   15  C   UNL     1     -10.651  13.074  65.775  1.00  0.00    -0.291 A  
HETATM   16  C   UNL     1     -10.094  12.653  64.551  1.00  0.00    -0.271 A  
HETATM   17  C   UNL     1     -10.900  12.276  63.461  1.00  0.00    -0.508 A  
HETATM   18  C   UNL     1     -12.291  12.303  63.559  1.00  0.00    -0.670 A  
HETATM   19  C   UNL     1     -12.067  13.116  65.813  1.00  0.00    -0.502 A  
HETATM   20  C   UNL     1     -12.873  12.735  64.737  1.00  0.00    -0.374 A  
ENDBRANCH   8  15
BRANCH   8  21
HETATM   21  C   UNL     1      -8.754  12.202  67.345  1.00  0.00    -0.177 C  
BRANCH  21  22
HETATM   22  C   UNL     1      -8.575  10.877  66.516  1.00  0.00    -0.156 C  
HETATM   23  C   UNL     1      -9.619   9.816  66.909  1.00  0.00    -0.228 C  
BRANCH  22  24
HETATM   24  N   UNL     1      -7.205  10.325  66.416  1.00  0.00    -0.107 NA 
HETATM   25  C   UNL     1      -6.911   9.684  65.127  1.00  0.00    -0.098 C  
HETATM   26  C   UNL     1      -6.149  11.327  66.656  1.00  0.00    -0.143 C  
ENDBRANCH  22  24
ENDBRANCH  21  22
ENDBRANCH   8  21
ENDBRANCH   3   8
ENDBRANCH   2   3
TORSDOF 9
ENDMDL
MODEL       34
REMARK 921   NORMALIZED FREE ENERGY PREDICTED BY IDOCK:   -5.03 KCAL/MOL
REMARK 922        TOTAL FREE ENERGY PREDICTED BY IDOCK:   -9.36 KCAL/MOL
REMARK 923 INTER-LIGAND FREE ENERGY PREDICTED BY IDOCK:   -7.57 KCAL/MOL
REMARK 924 INTRA-LIGAND FREE ENERGY PREDICTED BY IDOCK:   -1.79 KCAL/MOL
REMARK 927      BINDING AFFINITY PREDICTED BY RF-SCORE:    0.00 PKD
ROOT
HETATM    1  C   UNL     1     -12.484  12.321  63.923  1.00  0.00    -0.586 C  
HETATM    2  C   UNL     1     -11.391  11.808  64.854  1.00  0.00    -0.299 C  
ENDROOT
BRANCH   2   3
HETATM    3  C   UNL     1     -11.105  12.784  66.014  1.00  0.00    -0.285 C  
BRANCH   3   4
HETATM    4  O   UNL     1     -10.033  13.674  65.573  1.00  0.00    -0.283 OA 
BRANCH   4   5
HETATM    5  C   UNL     1     -10.319  14.985  65.358  1.00  0.00    -0.383 C  
HETATM    6  C   UNL     1      -9.305  15.848  66.065  1.00  0.00    -0.385 C  
HETATM    7  O   UNL     1     -11.297  15.415  64.764  1.00  0.00    -0.412 OA 
ENDBRANCH   4   5
ENDBRANCH   3   4
BRANCH   3   8
HETATM    8  C   UNL     1     -10.685  12.068  67.395  1.00  0.00    -0.266 C  
BRANCH   8   9
HETATM    9  C   UNL     1     -11.356  12.863  68.570  1.00  0.00    -0.324 A  
HETATM   10  C   UNL     1     -11.570  14.252  68.567  1.00  0.00    -0.355 A  
HETATM   11  C   UNL     1     -12.273  14.890  69.602  1.00  0.00    -0.299 A  
HETATM   12  C   UNL     1     -12.710  14.173  70.709  1.00  0.00    -0.414 A  
HETATM   13  C   UNL     1     -12.462  12.812  70.774  1.00  0.00    -0.357 A  
HETATM   14  C   UNL     1     -11.825  12.171  69.708  1.00  0.00    -0.397 A  
ENDBRANCH   8   9
BRANCH   8  15
HETATM   15  C   UNL     1      -9.077  12.111  67.458  1.00  0.00    -0.180 A  
HETATM   16  C   UNL     1      -8.241  11.335  66.630  1.00  0.00    -0.164 A  
HETATM   17  C   UNL     1      -6.840  11.469  66.657  1.00  0.00    -0.075 A  
HETATM   18  C   UNL     1      -6.227  12.387  67.510  1.00  0.00    -0.148 A  
HETATM   19  C   UNL     1      -8.405  13.003  68.329  1.00  0.00    -0.158 A  
HETATM   20  C   UNL     1      -7.015  13.148  68.355  1.00  0.00    -0.104 A  
ENDBRANCH   8  15
BRANCH   8  21
HETATM   21  C   UNL     1     -11.154  10.527  67.455  1.00  0.00    -0.358 C  
BRANCH  21  22
HETATM   22  C   UNL     1     -10.337   9.273  67.939  1.00  0.00    -0.227 C  
HETATM   23  C   UNL     1     -10.498   8.083  66.975  1.00  0.00    -0.410 C  
BRANCH  22  24
HETATM   24  N   UNL     1     -10.481   8.883  69.361  1.00  0.00    -0.221 NA 
HETATM   25  C   UNL     1     -10.493   7.431  69.584  1.00  0.00    -0.232 C  
HETATM   26  C   UNL     1      -9.435   9.450  70.233  1.00  0.00    -0.251 C  
ENDBRANCH  22  24
ENDBRANCH  21  22
ENDBRANCH   8  21
ENDBRANCH   3   8
ENDBRANCH   2   3
TORSDOF 9
ENDMDL
MODEL       35
REMARK 921   NORMALIZED FREE ENERGY PREDICTED BY IDOCK:   -5.02 KCAL/MOL
REMARK 922        TOTAL FREE ENERGY PREDICTED BY IDOCK:   -9.36 KCAL/MOL
REMARK 923 INTER-LIGAND FREE ENERGY PREDICTED BY IDOCK:   -7.62 KCAL/MOL
REMARK 924 INTRA-LIGAND FREE ENERGY PREDICTED BY IDOCK:   -1.73 KCAL/MOL
REMARK 927      BINDING AFFINITY PREDICTED BY RF-SCORE:    0.00 PKD
ROOT
HETATM    1  C   UNL     1     -10.151   8.747  66.732  1.00  0.00    -0.359 C  
HETATM    2  C   UNL     1     -10.946   9.813  67.478  1.00  0.00    -0.205 C  
ENDROOT
BRANCH   2   3
HETATM    3  C   UNL     1     -10.049  10.958  67.991  1.00  0.00    -0.177 C  
BRANCH   3   4
HETATM    4  O   UNL     1     -10.093  10.917  69.452  1.00  0.00    -0.189 OA 
BRANCH   4   5
HETATM    5  C   UNL     1      -9.592   9.827  70.090  1.00  0.00    -0.237 C  
HETATM    6  C   UNL     1     -10.560   9.370  71.151  1.00  0.00    -0.403 C  
HETATM    7  O   UNL     1      -8.486   9.338  69.907  1.00  0.00    -0.132 OA 
ENDBRANCH   4   5
ENDBRANCH   3   4
BRANCH   3   8
HETATM    8  C   UNL     1     -10.482  12.421  67.474  1.00  0.00    -0.229 C  
BRANCH   8   9
HETATM    9  C   UNL     1     -10.934  12.286  65.978  1.00  0.00    -0.327 A  
HETATM   10  C   UNL     1     -12.203  12.651  65.496  1.00  0.00    -0.501 A  
HETATM   11  C   UNL     1     -12.511  12.606  64.126  1.00  0.00    -0.488 A  
HETATM   12  C   UNL     1     -11.589  12.118  63.208  1.00  0.00    -0.418 A  
HETATM   13  C   UNL     1     -10.350  11.692  63.656  1.00  0.00    -0.466 A  
HETATM   14  C   UNL     1     -10.025  11.805  65.010  1.00  0.00    -0.287 A  
ENDBRANCH   8   9
BRANCH   8  15
HETATM   15  C   UNL     1      -9.189  13.365  67.646  1.00  0.00    -0.212 A  
HETATM   16  C   UNL     1      -8.014  12.968  68.316  1.00  0.00    -0.151 A  
HETATM   17  C   UNL     1      -6.875  13.792  68.367  1.00  0.00    -0.101 A  
HETATM   18  C   UNL     1      -6.869  15.040  67.745  1.00  0.00    -0.190 A  
HETATM   19  C   UNL     1      -9.144  14.654  67.060  1.00  0.00    -0.254 A  
HETATM   20  C   UNL     1      -8.013  15.474  67.098  1.00  0.00    -0.255 A  
ENDBRANCH   8  15
BRANCH   8  21
HETATM   21  C   UNL     1     -11.687  13.048  68.343  1.00  0.00    -0.386 C  
BRANCH  21  22
HETATM   22  C   UNL     1     -11.613  13.784  69.730  1.00  0.00    -0.257 C  
HETATM   23  C   UNL     1     -12.279  12.959  70.847  1.00  0.00    -0.290 C  
BRANCH  22  24
HETATM   24  N   UNL     1     -12.009  15.211  69.758  1.00  0.00    -0.318 NA 
HETATM   25  C   UNL     1     -12.968  15.545  70.820  1.00  0.00    -0.434 C  
HETATM   26  C   UNL     1     -10.867  16.135  69.895  1.00  0.00    -0.355 C  
ENDBRANCH  22  24
ENDBRANCH  21  22
ENDBRANCH   8  21
ENDBRANCH   3   8
ENDBRANCH   2   3
TORSDOF 9
ENDMDL
MODEL       36
REMARK 921   NORMALIZED FREE ENERGY PREDICTED BY IDOCK:   -5.02 KCAL/MOL
REMARK 922        TOTAL FREE ENERGY PREDICTED BY IDOCK:   -9.35 KCAL/MOL
REMARK 923 INTER-LIGAND FREE ENERGY PREDICTED BY IDOCK:   -7.52 KCAL/MOL
REMARK 924 INTRA-LIGAND FREE ENERGY PREDICTED BY IDOCK:   -1.84 KCAL/MOL
REMARK 927      BINDING AFFINITY PREDICTED BY RF-SCORE:    0.00 PKD
ROOT
HETATM    1  C   UNL     1     -10.475  16.444  65.731  1.00  0.00    -0.369 C  
HETATM    2  C   UNL     1      -9.725  15.117  65.769  1.00  0.00    -0.379 C  
ENDROOT
BRANCH   2   3
HETATM    3  C   UNL     1      -9.749  14.474  67.171  1.00  0.00    -0.240 C  
BRANCH   3   4
HETATM    4  O   UNL     1      -8.432  14.693  67.767  1.00  0.00    -0.157 OA 
BRANCH   4   5
HETATM    5  C   UNL     1      -8.315  15.588  68.782  1.00  0.00    -0.187 C  
HETATM    6  C   UNL     1      -7.096  15.264  69.607  1.00  0.00    -0.187 C  
HETATM    7  O   UNL     1      -9.118  16.469  69.053  1.00  0.00    -0.256 OA 
ENDBRANCH   4   5
ENDBRANCH   3   4
BRANCH   3   8
HETATM    8  C   UNL     1     -10.092  12.899  67.171  1.00  0.00    -0.243 C  
BRANCH   8   9
HETATM    9  C   UNL     1     -10.819  12.568  65.821  1.00  0.00    -0.310 A  
HETATM   10  C   UNL     1     -10.251  11.815  64.778  1.00  0.00    -0.324 A  
HETATM   11  C   UNL     1     -10.992  11.462  63.638  1.00  0.00    -0.443 A  
HETATM   12  C   UNL     1     -12.293  11.917  63.469  1.00  0.00    -0.603 A  
HETATM   13  C   UNL     1     -12.864  12.712  64.449  1.00  0.00    -0.344 A  
HETATM   14  C   UNL     1     -12.146  13.002  65.613  1.00  0.00    -0.507 A  
ENDBRANCH   8   9
BRANCH   8  15
HETATM   15  C   UNL     1     -11.026  12.638  68.457  1.00  0.00    -0.292 A  
HETATM   16  C   UNL     1     -11.463  11.359  68.859  1.00  0.00    -0.363 A  
HETATM   17  C   UNL     1     -12.205  11.167  70.038  1.00  0.00    -0.402 A  
HETATM   18  C   UNL     1     -12.532  12.246  70.860  1.00  0.00    -0.371 A  
HETATM   19  C   UNL     1     -11.411  13.704  69.306  1.00  0.00    -0.344 A  
HETATM   20  C   UNL     1     -12.140  13.519  70.484  1.00  0.00    -0.409 A  
ENDBRANCH   8  15
BRANCH   8  21
HETATM   21  C   UNL     1      -8.773  11.983  67.308  1.00  0.00    -0.175 C  
BRANCH  21  22
HETATM   22  C   UNL     1      -8.028  11.528  68.617  1.00  0.00    -0.135 C  
HETATM   23  C   UNL     1      -6.515  11.802  68.534  1.00  0.00    -0.056 C  
BRANCH  22  24
HETATM   24  N   UNL     1      -8.339  10.175  69.133  1.00  0.00    -0.142 NA 
HETATM   25  C   UNL     1      -8.254   9.114  68.120  1.00  0.00    -0.116 C  
HETATM   26  C   UNL     1      -7.483   9.768  70.264  1.00  0.00    -0.164 C  
ENDBRANCH  22  24
ENDBRANCH  21  22
ENDBRANCH   8  21
ENDBRANCH   3   8
ENDBRANCH   2   3
TORSDOF 9
ENDMDL
MODEL       37
REMARK 921   NORMALIZED FREE ENERGY PREDICTED BY IDOCK:   -5.02 KCAL/MOL
REMARK 922        TOTAL FREE ENERGY PREDICTED BY IDOCK:   -9.35 KCAL/MOL
REMARK 923 INTER-LIGAND FREE ENERGY PREDICTED BY IDOCK:   -8.34 KCAL/MOL
REMARK 924 INTRA-LIGAND FREE ENERGY PREDICTED BY IDOCK:   -1.01 KCAL/MOL
REMARK 927      BINDING AFFINITY PREDICTED BY RF-SCORE:    0.00 PKD
ROOT
HETATM    1  C   UNL     1     -11.872  16.132  71.572  1.00  0.00    -0.528 C  
HETATM    2  C   UNL     1     -11.070  15.203  70.666  1.00  0.00    -0.298 C  
ENDROOT
BRANCH   2   3
HETATM    3  C   UNL     1     -11.588  15.214  69.213  1.00  0.00    -0.324 C  
BRANCH   3   4
HETATM    4  O   UNL     1     -12.249  13.931  68.983  1.00  0.00    -0.350 OA 
BRANCH   4   5
HETATM    5  C   UNL     1     -12.074  12.934  69.890  1.00  0.00    -0.265 C  
HETATM    6  C   UNL     1     -11.182  11.869  69.307  1.00  0.00    -0.304 C  
HETATM    7  O   UNL     1     -12.624  12.855  70.979  1.00  0.00    -0.366 OA 
ENDBRANCH   4   5
ENDBRANCH   3   4
BRANCH   3   8
HETATM    8  C   UNL     1     -10.443  15.445  68.103  1.00  0.00    -0.247 C  
BRANCH   8   9
HETATM    9  C   UNL     1     -10.467  16.960  67.699  1.00  0.00    -0.332 A  
HETATM   10  C   UNL     1     -10.384  18.027  68.611  1.00  0.00    -0.328 A  
HETATM   11  C   UNL     1     -10.302  19.360  68.178  1.00  0.00    -0.525 A  
HETATM   12  C   UNL     1     -10.384  19.673  66.826  1.00  0.00    -0.591 A  
HETATM   13  C   UNL     1     -10.528  18.651  65.904  1.00  0.00    -0.395 A  
HETATM   14  C   UNL     1     -10.538  17.322  66.335  1.00  0.00    -0.179 A  
ENDBRANCH   8   9
BRANCH   8  15
HETATM   15  C   UNL     1     -10.800  14.470  66.873  1.00  0.00    -0.305 A  
HETATM   16  C   UNL     1      -9.862  13.624  66.248  1.00  0.00    -0.310 A  
HETATM   17  C   UNL     1     -10.237  12.723  65.234  1.00  0.00    -0.296 A  
HETATM   18  C   UNL     1     -11.563  12.634  64.813  1.00  0.00    -0.377 A  
HETATM   19  C   UNL     1     -12.127  14.365  66.387  1.00  0.00    -0.390 A  
HETATM   20  C   UNL     1     -12.507  13.466  65.387  1.00  0.00    -0.543 A  
ENDBRANCH   8  15
BRANCH   8  21
HETATM   21  C   UNL     1      -8.975  15.059  68.646  1.00  0.00    -0.186 C  
BRANCH  21  22
HETATM   22  C   UNL     1      -7.663  15.926  68.621  1.00  0.00    -0.161 C  
HETATM   23  C   UNL     1      -7.027  15.952  67.218  1.00  0.00    -0.241 C  
BRANCH  22  24
HETATM   24  N   UNL     1      -6.673  15.682  69.695  1.00  0.00    -0.182 NA 
HETATM   25  C   UNL     1      -5.873  14.463  69.506  1.00  0.00    -0.099 C  
HETATM   26  C   UNL     1      -5.728  16.798  69.887  1.00  0.00    -0.220 C  
ENDBRANCH  22  24
ENDBRANCH  21  22
ENDBRANCH   8  21
ENDBRANCH   3   8
ENDBRANCH   2   3
TORSDOF 9
ENDMDL
MODEL       38
REMARK 921   NORMALIZED FREE ENERGY PREDICTED BY IDOCK:   -5.02 KCAL/MOL
REMARK 922        TOTAL FREE ENERGY PREDICTED BY IDOCK:   -9.35 KCAL/MOL
REMARK 923 INTER-LIGAND FREE ENERGY PREDICTED BY IDOCK:   -8.20 KCAL/MOL
REMARK 924 INTRA-LIGAND FREE ENERGY PREDICTED BY IDOCK:   -1.15 KCAL/MOL
REMARK 927      BINDING AFFINITY PREDICTED BY RF-SCORE:    0.00 PKD
ROOT
HETATM    1  C   UNL     1      -9.940  10.308  65.102  1.00  0.00    -0.395 C  
HETATM    2  C   UNL     1     -10.641  10.375  66.455  1.00  0.00    -0.198 C  
ENDROOT
BRANCH   2   3
HETATM    3  C   UNL     1     -11.371  11.717  66.668  1.00  0.00    -0.316 C  
BRANCH   3   4
HETATM    4  O   UNL     1     -11.268  12.466  65.417  1.00  0.00    -0.298 OA 
BRANCH   4   5
HETATM    5  C   UNL     1     -12.409  12.803  64.762  1.00  0.00    -0.478 C  
HETATM    6  C   UNL     1     -12.504  12.025  63.475  1.00  0.00    -0.654 C  
HETATM    7  O   UNL     1     -13.200  13.670  65.104  1.00  0.00    -0.739 OA 
ENDBRANCH   4   5
ENDBRANCH   3   4
BRANCH   3   8
HETATM    8  C   UNL     1     -10.788  12.603  67.882  1.00  0.00    -0.244 C  
BRANCH   8   9
HETATM    9  C   UNL     1      -9.267  12.254  68.041  1.00  0.00    -0.195 A  
HETATM   10  C   UNL     1      -8.760  11.306  68.947  1.00  0.00    -0.053 A  
HETATM   11  C   UNL     1      -7.399  10.961  68.966  1.00  0.00    -0.113 A  
HETATM   12  C   UNL     1      -6.491  11.610  68.139  1.00  0.00    -0.054 A  
HETATM   13  C   UNL     1      -6.946  12.593  67.276  1.00  0.00    -0.104 A  
HETATM   14  C   UNL     1      -8.312  12.883  67.212  1.00  0.00    -0.185 A  
ENDBRANCH   8   9
BRANCH   8  15
HETATM   15  C   UNL     1     -11.651  12.212  69.184  1.00  0.00    -0.374 A  
HETATM   16  C   UNL     1     -12.026  10.892  69.507  1.00  0.00    -0.401 A  
HETATM   17  C   UNL     1     -12.705  10.585  70.700  1.00  0.00    -0.441 A  
HETATM   18  C   UNL     1     -13.028  11.586  71.616  1.00  0.00    -0.499 A  
HETATM   19  C   UNL     1     -12.031  13.196  70.129  1.00  0.00    -0.381 A  
HETATM   20  C   UNL     1     -12.697  12.897  71.321  1.00  0.00    -0.371 A  
ENDBRANCH   8  15
BRANCH   8  21
HETATM   21  C   UNL     1     -10.951  14.185  67.622  1.00  0.00    -0.278 C  
BRANCH  21  22
HETATM   22  C   UNL     1      -9.869  15.317  67.769  1.00  0.00    -0.220 C  
HETATM   23  C   UNL     1      -9.913  15.967  69.164  1.00  0.00    -0.245 C  
BRANCH  22  24
HETATM   24  N   UNL     1      -9.783  16.313  66.675  1.00  0.00    -0.238 NA 
HETATM   25  C   UNL     1      -8.408  16.640  66.273  1.00  0.00    -0.325 C  
HETATM   26  C   UNL     1     -10.510  15.910  65.457  1.00  0.00    -0.404 C  
ENDBRANCH  22  24
ENDBRANCH  21  22
ENDBRANCH   8  21
ENDBRANCH   3   8
ENDBRANCH   2   3
TORSDOF 9
ENDMDL
MODEL       39
REMARK 921   NORMALIZED FREE ENERGY PREDICTED BY IDOCK:   -4.99 KCAL/MOL
REMARK 922        TOTAL FREE ENERGY PREDICTED BY IDOCK:   -9.31 KCAL/MOL
REMARK 923 INTER-LIGAND FREE ENERGY PREDICTED BY IDOCK:   -7.89 KCAL/MOL
REMARK 924 INTRA-LIGAND FREE ENERGY PREDICTED BY IDOCK:   -1.42 KCAL/MOL
REMARK 927      BINDING AFFINITY PREDICTED BY RF-SCORE:    0.00 PKD
ROOT
HETATM    1  C   UNL     1      -7.102  12.429  68.500  1.00  0.00    -0.100 C  
HETATM    2  C   UNL     1      -8.174  12.274  67.426  1.00  0.00    -0.178 C  
ENDROOT
BRANCH   2   3
HETATM    3  C   UNL     1      -9.595  12.218  68.024  1.00  0.00    -0.206 C  
BRANCH   3   4
HETATM    4  O   UNL     1     -10.139  10.897  67.714  1.00  0.00    -0.172 OA 
BRANCH   4   5
HETATM    5  C   UNL     1      -9.799   9.847  68.508  1.00  0.00    -0.156 C  
HETATM    6  C   UNL     1      -9.981   8.558  67.749  1.00  0.00    -0.241 C  
HETATM    7  O   UNL     1      -9.481   9.917  69.686  1.00  0.00    -0.206 OA 
ENDBRANCH   4   5
ENDBRANCH   3   4
BRANCH   3   8
HETATM    8  C   UNL     1     -10.590  13.359  67.474  1.00  0.00    -0.255 C  
BRANCH   8   9
HETATM    9  C   UNL     1     -11.054  12.938  66.035  1.00  0.00    -0.308 A  
HETATM   10  C   UNL     1     -10.212  12.362  65.067  1.00  0.00    -0.306 A  
HETATM   11  C   UNL     1     -10.711  11.907  63.836  1.00  0.00    -0.450 A  
HETATM   12  C   UNL     1     -12.048  12.087  63.502  1.00  0.00    -0.628 A  
HETATM   13  C   UNL     1     -12.893  12.706  64.408  1.00  0.00    -0.344 A  
HETATM   14  C   UNL     1     -12.406  13.093  65.660  1.00  0.00    -0.519 A  
ENDBRANCH   8   9
BRANCH   8  15
HETATM   15  C   UNL     1      -9.751  14.733  67.475  1.00  0.00    -0.213 A  
HETATM   16  C   UNL     1      -9.447  15.465  66.309  1.00  0.00    -0.342 A  
HETATM   17  C   UNL     1      -8.787  16.706  66.364  1.00  0.00    -0.337 A  
HETATM   18  C   UNL     1      -8.411  17.261  67.587  1.00  0.00    -0.212 A  
HETATM   19  C   UNL     1      -9.319  15.323  68.689  1.00  0.00    -0.201 A  
HETATM   20  C   UNL     1      -8.671  16.560  68.751  1.00  0.00    -0.259 A  
ENDBRANCH   8  15
BRANCH   8  21
HETATM   21  C   UNL     1     -11.883  13.554  68.417  1.00  0.00    -0.408 C  
BRANCH  21  22
HETATM   22  C   UNL     1     -11.987  13.400  69.979  1.00  0.00    -0.337 C  
HETATM   23  C   UNL     1     -12.315  11.951  70.386  1.00  0.00    -0.334 C  
BRANCH  22  24
HETATM   24  N   UNL     1     -12.809  14.398  70.701  1.00  0.00    -0.349 NA 
HETATM   25  C   UNL     1     -13.459  13.875  71.910  1.00  0.00    -0.427 C  
HETATM   26  C   UNL     1     -12.054  15.602  71.098  1.00  0.00    -0.404 C  
ENDBRANCH  22  24
ENDBRANCH  21  22
ENDBRANCH   8  21
ENDBRANCH   3   8
ENDBRANCH   2   3
TORSDOF 9
ENDMDL
MODEL       40
REMARK 921   NORMALIZED FREE ENERGY PREDICTED BY IDOCK:   -4.98 KCAL/MOL
REMARK 922        TOTAL FREE ENERGY PREDICTED BY IDOCK:   -9.29 KCAL/MOL
REMARK 923 INTER-LIGAND FREE ENERGY PREDICTED BY IDOCK:   -8.22 KCAL/MOL
REMARK 924 INTRA-LIGAND FREE ENERGY PREDICTED BY IDOCK:   -1.07 KCAL/MOL
REMARK 927      BINDING AFFINITY PREDICTED BY RF-SCORE:    0.00 PKD
ROOT
HETATM    1  C   UNL     1      -9.769  10.819  64.364  1.00  0.00    -0.356 C  
HETATM    2  C   UNL     1     -10.122  11.994  65.270  1.00  0.00    -0.289 C  
ENDROOT
BRANCH   2   3
HETATM    3  C   UNL     1     -11.246  11.645  66.267  1.00  0.00    -0.271 C  
BRANCH   3   4
HETATM    4  O   UNL     1     -12.381  12.511  65.956  1.00  0.00    -0.615 OA 
BRANCH   4   5
HETATM    5  C   UNL     1     -12.591  12.874  64.663  1.00  0.00    -0.391 C  
HETATM    6  C   UNL     1     -12.265  14.335  64.487  1.00  0.00    -0.476 C  
HETATM    7  O   UNL     1     -13.060  12.161  63.788  1.00  0.00    -0.774 OA 
ENDBRANCH   4   5
ENDBRANCH   3   4
BRANCH   3   8
HETATM    8  C   UNL     1     -10.835  11.821  67.816  1.00  0.00    -0.258 C  
BRANCH   8   9
HETATM    9  C   UNL     1     -10.758  13.359  68.118  1.00  0.00    -0.267 A  
HETATM   10  C   UNL     1      -9.833  14.238  67.529  1.00  0.00    -0.231 A  
HETATM   11  C   UNL     1      -9.884  15.622  67.760  1.00  0.00    -0.220 A  
HETATM   12  C   UNL     1     -10.808  16.160  68.648  1.00  0.00    -0.311 A  
HETATM   13  C   UNL     1     -11.696  15.315  69.293  1.00  0.00    -0.359 A  
HETATM   14  C   UNL     1     -11.685  13.947  69.006  1.00  0.00    -0.378 A  
ENDBRANCH   8   9
BRANCH   8  15
HETATM   15  C   UNL     1      -9.414  11.084  67.995  1.00  0.00    -0.169 A  
HETATM   16  C   UNL     1      -8.265  11.716  68.511  1.00  0.00    -0.144 A  
HETATM   17  C   UNL     1      -7.068  11.010  68.734  1.00  0.00    -0.086 A  
HETATM   18  C   UNL     1      -6.981   9.647  68.453  1.00  0.00    -0.065 A  
HETATM   19  C   UNL     1      -9.265   9.707  67.695  1.00  0.00    -0.144 A  
HETATM   20  C   UNL     1      -8.082   8.998  67.923  1.00  0.00    -0.106 A  
ENDBRANCH   8  15
BRANCH   8  21
HETATM   21  C   UNL     1     -11.894  11.131  68.815  1.00  0.00    -0.388 C  
BRANCH  21  22
HETATM   22  C   UNL     1     -11.786  10.930  70.371  1.00  0.00    -0.350 C  
HETATM   23  C   UNL     1     -10.888   9.731  70.728  1.00  0.00    -0.403 C  
BRANCH  22  24
HETATM   24  N   UNL     1     -13.049  10.951  71.143  1.00  0.00    -0.322 NA 
HETATM   25  C   UNL     1     -13.245   9.774  72.001  1.00  0.00    -0.460 C  
HETATM   26  C   UNL     1     -13.195  12.144  71.999  1.00  0.00    -0.391 C  
ENDBRANCH  22  24
ENDBRANCH  21  22
ENDBRANCH   8  21
ENDBRANCH   3   8
ENDBRANCH   2   3
TORSDOF 9
ENDMDL
MODEL       41
REMARK 921   NORMALIZED FREE ENERGY PREDICTED BY IDOCK:   -4.97 KCAL/MOL
REMARK 922        TOTAL FREE ENERGY PREDICTED BY IDOCK:   -9.27 KCAL/MOL
REMARK 923 INTER-LIGAND FREE ENERGY PREDICTED BY IDOCK:   -7.93 KCAL/MOL
REMARK 924 INTRA-LIGAND FREE ENERGY PREDICTED BY IDOCK:   -1.34 KCAL/MOL
REMARK 927      BINDING AFFINITY PREDICTED BY RF-SCORE:    0.00 PKD
ROOT
HETATM    1  C   UNL     1     -12.122  14.289  64.518  1.00  0.00    -0.499 C  
HETATM    2  C   UNL     1     -12.341  14.313  66.026  1.00  0.00    -0.416 C  
ENDROOT
BRANCH   2   3
HETATM    3  C   UNL     1     -11.076  13.898  66.806  1.00  0.00    -0.303 C  
BRANCH   3   4
HETATM    4  O   UNL     1     -11.351  12.595  67.409  1.00  0.00    -0.276 OA 
BRANCH   4   5
HETATM    5  C   UNL     1     -10.798  11.487  66.850  1.00  0.00    -0.284 C  
HETATM    6  C   UNL     1     -10.147  10.650  67.920  1.00  0.00    -0.194 C  
HETATM    7  O   UNL     1     -10.747  11.241  65.653  1.00  0.00    -0.261 OA 
ENDBRANCH   4   5
ENDBRANCH   3   4
BRANCH   3   8
HETATM    8  C   UNL     1     -10.630  14.944  67.949  1.00  0.00    -0.254 C  
BRANCH   8   9
HETATM    9  C   UNL     1      -9.110  14.701  68.252  1.00  0.00    -0.189 A  
HETATM   10  C   UNL     1      -8.460  15.112  69.429  1.00  0.00    -0.190 A  
HETATM   11  C   UNL     1      -7.123  14.770  69.688  1.00  0.00    -0.158 A  
HETATM   12  C   UNL     1      -6.372  14.079  68.745  1.00  0.00    -0.090 A  
HETATM   13  C   UNL     1      -6.963  13.712  67.548  1.00  0.00    -0.157 A  
HETATM   14  C   UNL     1      -8.314  13.993  67.325  1.00  0.00    -0.209 A  
ENDBRANCH   8   9
BRANCH   8  15
HETATM   15  C   UNL     1     -11.569  14.652  69.224  1.00  0.00    -0.335 A  
HETATM   16  C   UNL     1     -11.742  13.373  69.791  1.00  0.00    -0.355 A  
HETATM   17  C   UNL     1     -12.502  13.177  70.959  1.00  0.00    -0.406 A  
HETATM   18  C   UNL     1     -13.112  14.253  71.602  1.00  0.00    -0.417 A  
HETATM   19  C   UNL     1     -12.236  15.706  69.895  1.00  0.00    -0.317 A  
HETATM   20  C   UNL     1     -12.984  15.520  71.060  1.00  0.00    -0.550 A  
ENDBRANCH   8  15
BRANCH   8  21
HETATM   21  C   UNL     1     -10.848  16.476  67.498  1.00  0.00    -0.237 C  
BRANCH  21  22
HETATM   22  C   UNL     1      -9.819  17.664  67.537  1.00  0.00    -0.299 C  
HETATM   23  C   UNL     1     -10.075  18.599  68.733  1.00  0.00    -0.398 C  
BRANCH  22  24
HETATM   24  N   UNL     1      -9.590  18.400  66.272  1.00  0.00    -0.442 NA 
HETATM   25  C   UNL     1     -10.722  19.240  65.857  1.00  0.00    -0.372 C  
HETATM   26  C   UNL     1      -8.394  19.262  66.303  1.00  0.00    -0.319 C  
ENDBRANCH  22  24
ENDBRANCH  21  22
ENDBRANCH   8  21
ENDBRANCH   3   8
ENDBRANCH   2   3
TORSDOF 9
ENDMDL
MODEL       42
REMARK 921   NORMALIZED FREE ENERGY PREDICTED BY IDOCK:   -4.96 KCAL/MOL
REMARK 922        TOTAL FREE ENERGY PREDICTED BY IDOCK:   -9.26 KCAL/MOL
REMARK 923 INTER-LIGAND FREE ENERGY PREDICTED BY IDOCK:   -8.10 KCAL/MOL
REMARK 924 INTRA-LIGAND FREE ENERGY PREDICTED BY IDOCK:   -1.16 KCAL/MOL
REMARK 927      BINDING AFFINITY PREDICTED BY RF-SCORE:    0.00 PKD
ROOT
HETATM    1  C   UNL     1     -10.087  10.785  65.014  1.00  0.00    -0.377 C  
HETATM    2  C   UNL     1     -10.071  12.193  65.599  1.00  0.00    -0.274 C  
ENDROOT
BRANCH   2   3
HETATM    3  C   UNL     1     -11.015  12.332  66.811  1.00  0.00    -0.276 C  
BRANCH   3   4
HETATM    4  O   UNL     1     -11.994  13.365  66.477  1.00  0.00    -0.374 OA 
BRANCH   4   5
HETATM    5  C   UNL     1     -12.525  13.381  65.226  1.00  0.00    -0.483 C  
HETATM    6  C   UNL     1     -12.154  14.666  64.534  1.00  0.00    -0.490 C  
HETATM    7  O   UNL     1     -13.269  12.533  64.755  1.00  0.00    -0.839 OA 
ENDBRANCH   4   5
ENDBRANCH   3   4
BRANCH   3   8
HETATM    8  C   UNL     1     -10.272  12.712  68.189  1.00  0.00    -0.240 C  
BRANCH   8   9
HETATM    9  C   UNL     1      -9.034  11.760  68.344  1.00  0.00    -0.168 A  
HETATM   10  C   UNL     1      -7.695  12.184  68.287  1.00  0.00    -0.135 A  
HETATM   11  C   UNL     1      -6.633  11.301  68.540  1.00  0.00    -0.060 A  
HETATM   12  C   UNL     1      -6.872   9.953  68.776  1.00  0.00    -0.054 A  
HETATM   13  C   UNL     1      -8.176   9.489  68.780  1.00  0.00    -0.112 A  
HETATM   14  C   UNL     1      -9.233  10.385  68.597  1.00  0.00    -0.164 A  
ENDBRANCH   8   9
BRANCH   8  15
HETATM   15  C   UNL     1     -11.357  12.511  69.361  1.00  0.00    -0.275 A  
HETATM   16  C   UNL     1     -11.850  11.253  69.763  1.00  0.00    -0.437 A  
HETATM   17  C   UNL     1     -12.731  11.115  70.851  1.00  0.00    -0.438 A  
HETATM   18  C   UNL     1     -13.147  12.230  71.578  1.00  0.00    -0.356 A  
HETATM   19  C   UNL     1     -11.835  13.614  70.110  1.00  0.00    -0.351 A  
HETATM   20  C   UNL     1     -12.703  13.484  71.198  1.00  0.00    -0.425 A  
ENDBRANCH   8  15
BRANCH   8  21
HETATM   21  C   UNL     1      -9.774  14.246  68.217  1.00  0.00    -0.221 C  
BRANCH  21  22
HETATM   22  C   UNL     1      -9.902  15.336  67.091  1.00  0.00    -0.224 C  
HETATM   23  C   UNL     1      -8.542  15.641  66.438  1.00  0.00    -0.319 C  
BRANCH  22  24
HETATM   24  N   UNL     1     -10.666  16.561  67.424  1.00  0.00    -0.296 NA 
HETATM   25  C   UNL     1     -10.638  16.915  68.849  1.00  0.00    -0.353 C  
HETATM   26  C   UNL     1     -10.225  17.750  66.670  1.00  0.00    -0.361 C  
ENDBRANCH  22  24
ENDBRANCH  21  22
ENDBRANCH   8  21
ENDBRANCH   3   8
ENDBRANCH   2   3
TORSDOF 9
ENDMDL
MODEL       43
REMARK 921   NORMALIZED FREE ENERGY PREDICTED BY IDOCK:   -4.96 KCAL/MOL
REMARK 922        TOTAL FREE ENERGY PREDICTED BY IDOCK:   -9.25 KCAL/MOL
REMARK 923 INTER-LIGAND FREE ENERGY PREDICTED BY IDOCK:   -7.90 KCAL/MOL
REMARK 924 INTRA-LIGAND FREE ENERGY PREDICTED BY IDOCK:   -1.35 KCAL/MOL
REMARK 927      BINDING AFFINITY PREDICTED BY RF-SCORE:    0.00 PKD
ROOT
HETATM    1  C   UNL     1      -8.232  11.008  67.366  1.00  0.00    -0.122 C  
HETATM    2  C   UNL     1      -9.397  11.775  67.982  1.00  0.00    -0.184 C  
ENDROOT
BRANCH   2   3
HETATM    3  C   UNL     1      -9.398  13.263  67.574  1.00  0.00    -0.218 C  
BRANCH   3   4
HETATM    4  O   UNL     1      -8.877  14.021  68.710  1.00  0.00    -0.140 OA 
BRANCH   4   5
HETATM    5  C   UNL     1      -7.642  14.579  68.612  1.00  0.00    -0.131 C  
HETATM    6  C   UNL     1      -7.627  15.905  69.328  1.00  0.00    -0.221 C  
HETATM    7  O   UNL     1      -6.705  14.132  67.967  1.00  0.00    -0.114 OA 
ENDBRANCH   4   5
ENDBRANCH   3   4
BRANCH   3   8
HETATM    8  C   UNL     1     -10.845  13.834  67.155  1.00  0.00    -0.288 C  
BRANCH   8   9
HETATM    9  C   UNL     1     -11.250  13.160  65.797  1.00  0.00    -0.309 A  
HETATM   10  C   UNL     1     -12.573  12.872  65.417  1.00  0.00    -0.440 A  
HETATM   11  C   UNL     1     -12.879  12.368  64.143  1.00  0.00    -0.364 A  
HETATM   12  C   UNL     1     -11.868  12.059  63.240  1.00  0.00    -0.450 A  
HETATM   13  C   UNL     1     -10.549  12.273  63.604  1.00  0.00    -0.501 A  
HETATM   14  C   UNL     1     -10.255  12.841  64.847  1.00  0.00    -0.294 A  
ENDBRANCH   8   9
BRANCH   8  15
HETATM   15  C   UNL     1     -10.685  15.431  67.029  1.00  0.00    -0.321 A  
HETATM   16  C   UNL     1     -10.377  16.094  65.824  1.00  0.00    -0.398 A  
HETATM   17  C   UNL     1     -10.333  17.497  65.741  1.00  0.00    -0.217 A  
HETATM   18  C   UNL     1     -10.601  18.288  66.859  1.00  0.00    -0.356 A  
HETATM   19  C   UNL     1     -10.915  16.276  68.143  1.00  0.00    -0.343 A  
HETATM   20  C   UNL     1     -10.882  17.671  68.065  1.00  0.00    -0.240 A  
ENDBRANCH   8  15
BRANCH   8  21
HETATM   21  C   UNL     1     -11.973  13.522  68.264  1.00  0.00    -0.377 C  
BRANCH  21  22
HETATM   22  C   UNL     1     -11.787  13.275  69.806  1.00  0.00    -0.325 C  
HETATM   23  C   UNL     1     -12.007  11.796  70.174  1.00  0.00    -0.421 C  
BRANCH  22  24
HETATM   24  N   UNL     1     -12.483  14.205  70.726  1.00  0.00    -0.343 NA 
HETATM   25  C   UNL     1     -13.331  13.537  71.722  1.00  0.00    -0.397 C  
HETATM   26  C   UNL     1     -11.566  15.098  71.460  1.00  0.00    -0.387 C  
ENDBRANCH  22  24
ENDBRANCH  21  22
ENDBRANCH   8  21
ENDBRANCH   3   8
ENDBRANCH   2   3
TORSDOF 9
ENDMDL
MODEL       44
REMARK 921   NORMALIZED FREE ENERGY PREDICTED BY IDOCK:   -4.95 KCAL/MOL
REMARK 922        TOTAL FREE ENERGY PREDICTED BY IDOCK:   -9.24 KCAL/MOL
REMARK 923 INTER-LIGAND FREE ENERGY PREDICTED BY IDOCK:   -7.63 KCAL/MOL
REMARK 924 INTRA-LIGAND FREE ENERGY PREDICTED BY IDOCK:   -1.61 KCAL/MOL
REMARK 927      BINDING AFFINITY PREDICTED BY RF-SCORE:    0.00 PKD
ROOT
HETATM    1  C   UNL     1     -11.004  15.482  64.899  1.00  0.00    -0.452 C  
HETATM    2  C   UNL     1     -11.705  14.584  65.911  1.00  0.00    -0.345 C  
ENDROOT
BRANCH   2   3
HETATM    3  C   UNL     1     -11.019  13.209  66.047  1.00  0.00    -0.279 C  
BRANCH   3   4
HETATM    4  O   UNL     1     -11.961  12.208  65.551  1.00  0.00    -0.461 OA 
BRANCH   4   5
HETATM    5  C   UNL     1     -12.140  12.086  64.210  1.00  0.00    -0.322 C  
HETATM    6  C   UNL     1     -10.819  11.789  63.547  1.00  0.00    -0.496 C  
HETATM    7  O   UNL     1     -13.187  12.277  63.608  1.00  0.00    -0.758 OA 
ENDBRANCH   4   5
ENDBRANCH   3   4
BRANCH   3   8
HETATM    8  C   UNL     1     -10.569  12.838  67.549  1.00  0.00    -0.240 C  
BRANCH   8   9
HETATM    9  C   UNL     1     -10.658  14.146  68.412  1.00  0.00    -0.263 A  
HETATM   10  C   UNL     1      -9.723  15.194  68.362  1.00  0.00    -0.212 A  
HETATM   11  C   UNL     1      -9.916  16.387  69.079  1.00  0.00    -0.267 A  
HETATM   12  C   UNL     1     -11.004  16.535  69.930  1.00  0.00    -0.273 A  
HETATM   13  C   UNL     1     -11.914  15.497  70.050  1.00  0.00    -0.385 A  
HETATM   14  C   UNL     1     -11.755  14.341  69.280  1.00  0.00    -0.363 A  
ENDBRANCH   8   9
BRANCH   8  15
HETATM   15  C   UNL     1      -9.068  12.266  67.446  1.00  0.00    -0.184 A  
HETATM   16  C   UNL     1      -8.609  11.460  66.385  1.00  0.00    -0.174 A  
HETATM   17  C   UNL     1      -7.265  11.055  66.289  1.00  0.00    -0.095 A  
HETATM   18  C   UNL     1      -6.332  11.446  67.248  1.00  0.00    -0.097 A  
HETATM   19  C   UNL     1      -8.089  12.610  68.411  1.00  0.00    -0.137 A  
HETATM   20  C   UNL     1      -6.751  12.219  68.317  1.00  0.00    -0.064 A  
ENDBRANCH   8  15
BRANCH   8  21
HETATM   21  C   UNL     1     -11.502  11.699  68.206  1.00  0.00    -0.369 C  
BRANCH  21  22
HETATM   22  C   UNL     1     -11.067  10.437  69.037  1.00  0.00    -0.248 C  
HETATM   23  C   UNL     1     -10.764   9.234  68.126  1.00  0.00    -0.205 C  
BRANCH  22  24
HETATM   24  N   UNL     1     -11.906  10.076  70.203  1.00  0.00    -0.212 NA 
HETATM   25  C   UNL     1     -11.189   9.335  71.250  1.00  0.00    -0.355 C  
HETATM   26  C   UNL     1     -12.542  11.239  70.851  1.00  0.00    -0.371 C  
ENDBRANCH  22  24
ENDBRANCH  21  22
ENDBRANCH   8  21
ENDBRANCH   3   8
ENDBRANCH   2   3
TORSDOF 9
ENDMDL
MODEL       45
REMARK 921   NORMALIZED FREE ENERGY PREDICTED BY IDOCK:   -4.94 KCAL/MOL
REMARK 922        TOTAL FREE ENERGY PREDICTED BY IDOCK:   -9.23 KCAL/MOL
REMARK 923 INTER-LIGAND FREE ENERGY PREDICTED BY IDOCK:   -7.36 KCAL/MOL
REMARK 924 INTRA-LIGAND FREE ENERGY PREDICTED BY IDOCK:   -1.87 KCAL/MOL
REMARK 927      BINDING AFFINITY PREDICTED BY RF-SCORE:    0.00 PKD
ROOT
HETATM    1  C   UNL     1     -10.601  16.895  65.217  1.00  0.00    -0.137 C  
HETATM    2  C   UNL     1      -9.606  16.145  66.096  1.00  0.00    -0.359 C  
ENDROOT
BRANCH   2   3
HETATM    3  C   UNL     1     -10.139  15.928  67.527  1.00  0.00    -0.247 C  
BRANCH   3   4
HETATM    4  O   UNL     1      -9.176  16.539  68.441  1.00  0.00    -0.208 OA 
BRANCH   4   5
HETATM    5  C   UNL     1      -8.954  17.877  68.358  1.00  0.00    -0.282 C  
HETATM    6  C   UNL     1     -10.253  18.619  68.543  1.00  0.00    -0.398 C  
HETATM    7  O   UNL     1      -7.888  18.408  68.082  1.00  0.00    -0.271 OA 
ENDBRANCH   4   5
ENDBRANCH   3   4
BRANCH   3   8
HETATM    8  C   UNL     1     -10.361  14.382  67.923  1.00  0.00    -0.232 C  
BRANCH   8   9
HETATM    9  C   UNL     1     -10.981  13.653  66.679  1.00  0.00    -0.295 A  
HETATM   10  C   UNL     1     -10.323  12.661  65.931  1.00  0.00    -0.295 A  
HETATM   11  C   UNL     1     -10.972  11.970  64.895  1.00  0.00    -0.356 A  
HETATM   12  C   UNL     1     -12.268  12.306  64.521  1.00  0.00    -0.469 A  
HETATM   13  C   UNL     1     -12.924  13.321  65.196  1.00  0.00    -0.231 A  
HETATM   14  C   UNL     1     -12.299  13.957  66.273  1.00  0.00    -0.489 A  
ENDBRANCH   8   9
BRANCH   8  15
HETATM   15  C   UNL     1     -11.345  14.376  69.197  1.00  0.00    -0.308 A  
HETATM   16  C   UNL     1     -11.982  15.529  69.698  1.00  0.00    -0.380 A  
HETATM   17  C   UNL     1     -12.903  15.464  70.760  1.00  0.00    -0.524 A  
HETATM   18  C   UNL     1     -13.224  14.244  71.354  1.00  0.00    -0.419 A  
HETATM   19  C   UNL     1     -11.678  13.166  69.855  1.00  0.00    -0.327 A  
HETATM   20  C   UNL     1     -12.599  13.094  70.904  1.00  0.00    -0.377 A  
ENDBRANCH   8  15
BRANCH   8  21
HETATM   21  C   UNL     1      -8.986  13.651  68.341  1.00  0.00    -0.160 C  
BRANCH  21  22
HETATM   22  C   UNL     1      -7.549  13.847  67.732  1.00  0.00    -0.169 C  
HETATM   23  C   UNL     1      -6.908  12.502  67.343  1.00  0.00    -0.145 C  
BRANCH  22  24
HETATM   24  N   UNL     1      -6.619  14.733  68.470  1.00  0.00    -0.089 NA 
HETATM   25  C   UNL     1      -5.703  14.021  69.371  1.00  0.00    -0.088 C  
HETATM   26  C   UNL     1      -5.794  15.581  67.590  1.00  0.00    -0.107 C  
ENDBRANCH  22  24
ENDBRANCH  21  22
ENDBRANCH   8  21
ENDBRANCH   3   8
ENDBRANCH   2   3
TORSDOF 9
ENDMDL
MODEL       46
REMARK 921   NORMALIZED FREE ENERGY PREDICTED BY IDOCK:   -4.94 KCAL/MOL
REMARK 922        TOTAL FREE ENERGY PREDICTED BY IDOCK:   -9.22 KCAL/MOL
REMARK 923 INTER-LIGAND FREE ENERGY PREDICTED BY IDOCK:   -7.41 KCAL/MOL
REMARK 924 INTRA-LIGAND FREE ENERGY PREDICTED BY IDOCK:   -1.81 KCAL/MOL
REMARK 927      BINDING AFFINITY PREDICTED BY RF-SCORE:    0.00 PKD
ROOT
HETATM    1  C   UNL     1      -6.951  10.313  68.752  1.00  0.00    -0.067 C  
HETATM    2  C   UNL     1      -8.401  10.713  68.999  1.00  0.00    -0.153 C  
ENDROOT
BRANCH   2   3
HETATM    3  C   UNL     1      -9.038  11.389  67.767  1.00  0.00    -0.158 C  
BRANCH   3   4
HETATM    4  O   UNL     1      -9.310  12.778  68.132  1.00  0.00    -0.206 OA 
BRANCH   4   5
HETATM    5  C   UNL     1      -8.522  13.756  67.615  1.00  0.00    -0.183 C  
HETATM    6  C   UNL     1      -9.383  14.828  66.997  1.00  0.00    -0.245 C  
HETATM    7  O   UNL     1      -7.300  13.739  67.567  1.00  0.00    -0.165 OA 
ENDBRANCH   4   5
ENDBRANCH   3   4
BRANCH   3   8
HETATM    8  C   UNL     1     -10.393  10.686  67.252  1.00  0.00    -0.265 C  
BRANCH   8   9
HETATM    9  C   UNL     1     -10.056   9.192  66.909  1.00  0.00    -0.328 A  
HETATM   10  C   UNL     1      -9.086   8.793  65.972  1.00  0.00    -0.265 A  
HETATM   11  C   UNL     1      -8.755   7.440  65.788  1.00  0.00    -0.132 A  
HETATM   12  C   UNL     1      -9.439   6.443  66.473  1.00  0.00    -0.189 A  
HETATM   13  C   UNL     1     -10.442   6.798  67.359  1.00  0.00    -0.330 A  
HETATM   14  C   UNL     1     -10.719   8.148  67.590  1.00  0.00    -0.203 A  
ENDBRANCH   8   9
BRANCH   8  15
HETATM   15  C   UNL     1     -10.877  11.522  65.964  1.00  0.00    -0.330 A  
HETATM   16  C   UNL     1     -10.253  11.447  64.702  1.00  0.00    -0.347 A  
HETATM   17  C   UNL     1     -10.762  12.127  63.581  1.00  0.00    -0.518 A  
HETATM   18  C   UNL     1     -11.918  12.902  63.681  1.00  0.00    -0.613 A  
HETATM   19  C   UNL     1     -12.027  12.348  66.021  1.00  0.00    -0.419 A  
HETATM   20  C   UNL     1     -12.544  13.019  64.909  1.00  0.00    -0.490 A  
ENDBRANCH   8  15
BRANCH   8  21
HETATM   21  C   UNL     1     -11.567  10.730  68.356  1.00  0.00    -0.311 C  
BRANCH  21  22
HETATM   22  C   UNL     1     -11.486  11.211  69.851  1.00  0.00    -0.306 C  
HETATM   23  C   UNL     1     -11.438  10.022  70.828  1.00  0.00    -0.438 C  
BRANCH  22  24
HETATM   24  N   UNL     1     -12.441  12.261  70.273  1.00  0.00    -0.147 NA 
HETATM   25  C   UNL     1     -13.035  12.033  71.597  1.00  0.00    -0.334 C  
HETATM   26  C   UNL     1     -11.856  13.615  70.285  1.00  0.00    -0.266 C  
ENDBRANCH  22  24
ENDBRANCH  21  22
ENDBRANCH   8  21
ENDBRANCH   3   8
ENDBRANCH   2   3
TORSDOF 9
ENDMDL
MODEL       47
REMARK 921   NORMALIZED FREE ENERGY PREDICTED BY IDOCK:   -4.92 KCAL/MOL
REMARK 922        TOTAL FREE ENERGY PREDICTED BY IDOCK:   -9.20 KCAL/MOL
REMARK 923 INTER-LIGAND FREE ENERGY PREDICTED BY IDOCK:   -7.52 KCAL/MOL
REMARK 924 INTRA-LIGAND FREE ENERGY PREDICTED BY IDOCK:   -1.67 KCAL/MOL
REMARK 927      BINDING AFFINITY PREDICTED BY RF-SCORE:    0.00 PKD
ROOT
HETATM    1  C   UNL     1      -9.904  15.788  69.597  1.00  0.00    -0.275 C  
HETATM    2  C   UNL     1     -11.009  15.623  68.560  1.00  0.00    -0.303 C  
ENDROOT
BRANCH   2   3
HETATM    3  C   UNL     1     -11.012  14.214  67.930  1.00  0.00    -0.251 C  
BRANCH   3   4
HETATM    4  O   UNL     1     -10.598  13.277  68.973  1.00  0.00    -0.181 OA 
BRANCH   4   5
HETATM    5  C   UNL     1     -11.553  12.575  69.637  1.00  0.00    -0.253 C  
HETATM    6  C   UNL     1     -11.673  11.195  69.044  1.00  0.00    -0.408 C  
HETATM    7  O   UNL     1     -12.277  13.012  70.520  1.00  0.00    -0.357 OA 
ENDBRANCH   4   5
ENDBRANCH   3   4
BRANCH   3   8
HETATM    8  C   UNL     1     -10.051  14.061  66.646  1.00  0.00    -0.276 C  
BRANCH   8   9
HETATM    9  C   UNL     1     -10.847  13.276  65.544  1.00  0.00    -0.297 A  
HETATM   10  C   UNL     1     -12.240  13.091  65.552  1.00  0.00    -0.521 A  
HETATM   11  C   UNL     1     -12.906  12.472  64.482  1.00  0.00    -0.352 A  
HETATM   12  C   UNL     1     -12.193  11.948  63.411  1.00  0.00    -0.561 A  
HETATM   13  C   UNL     1     -10.813  12.058  63.400  1.00  0.00    -0.471 A  
HETATM   14  C   UNL     1     -10.162  12.737  64.433  1.00  0.00    -0.344 A  
ENDBRANCH   8   9
BRANCH   8  15
HETATM   15  C   UNL     1      -8.744  13.266  67.149  1.00  0.00    -0.215 A  
HETATM   16  C   UNL     1      -8.659  11.860  67.209  1.00  0.00    -0.170 A  
HETATM   17  C   UNL     1      -7.468  11.205  67.571  1.00  0.00    -0.104 A  
HETATM   18  C   UNL     1      -6.318  11.932  67.880  1.00  0.00    -0.064 A  
HETATM   19  C   UNL     1      -7.561  13.959  67.504  1.00  0.00    -0.190 A  
HETATM   20  C   UNL     1      -6.372  13.315  67.855  1.00  0.00    -0.144 A  
ENDBRANCH   8  15
BRANCH   8  21
HETATM   21  C   UNL     1      -9.582  15.485  66.055  1.00  0.00    -0.380 C  
BRANCH  21  22
HETATM   22  C   UNL     1     -10.464  16.743  65.717  1.00  0.00    -0.292 C  
HETATM   23  C   UNL     1     -11.210  16.570  64.381  1.00  0.00     0.087 C  
BRANCH  22  24
HETATM   24  N   UNL     1      -9.822  18.071  65.848  1.00  0.00    -0.553 NA 
HETATM   25  C   UNL     1     -10.592  19.030  66.652  1.00  0.00    -0.416 C  
HETATM   26  C   UNL     1      -8.464  18.012  66.422  1.00  0.00    -0.235 C  
ENDBRANCH  22  24
ENDBRANCH  21  22
ENDBRANCH   8  21
ENDBRANCH   3   8
ENDBRANCH   2   3
TORSDOF 9
ENDMDL
MODEL       48
REMARK 921   NORMALIZED FREE ENERGY PREDICTED BY IDOCK:   -4.91 KCAL/MOL
REMARK 922        TOTAL FREE ENERGY PREDICTED BY IDOCK:   -9.18 KCAL/MOL
REMARK 923 INTER-LIGAND FREE ENERGY PREDICTED BY IDOCK:   -8.16 KCAL/MOL
REMARK 924 INTRA-LIGAND FREE ENERGY PREDICTED BY IDOCK:   -1.02 KCAL/MOL
REMARK 927      BINDING AFFINITY PREDICTED BY RF-SCORE:    0.00 PKD
ROOT
HETATM    1  C   UNL     1     -12.888  14.289  65.397  1.00  0.00    -0.321 C  
HETATM    2  C   UNL     1     -12.231  13.912  66.720  1.00  0.00    -0.438 C  
ENDROOT
BRANCH   2   3
HETATM    3  C   UNL     1     -10.751  14.344  66.780  1.00  0.00    -0.292 C  
BRANCH   3   4
HETATM    4  O   UNL     1      -9.945  13.129  66.678  1.00  0.00    -0.256 OA 
BRANCH   4   5
HETATM    5  C   UNL     1     -10.154  12.292  65.629  1.00  0.00    -0.252 C  
HETATM    6  C   UNL     1     -10.300  10.878  66.129  1.00  0.00    -0.305 C  
HETATM    7  O   UNL     1     -10.137  12.608  64.448  1.00  0.00    -0.314 OA 
ENDBRANCH   4   5
ENDBRANCH   3   4
BRANCH   3   8
HETATM    8  C   UNL     1     -10.351  15.153  68.115  1.00  0.00    -0.239 C  
BRANCH   8   9
HETATM    9  C   UNL     1     -11.373  14.758  69.238  1.00  0.00    -0.317 A  
HETATM   10  C   UNL     1     -11.576  13.446  69.700  1.00  0.00    -0.334 A  
HETATM   11  C   UNL     1     -12.426  13.171  70.783  1.00  0.00    -0.389 A  
HETATM   12  C   UNL     1     -13.162  14.185  71.383  1.00  0.00    -0.418 A  
HETATM   13  C   UNL     1     -13.034  15.481  70.913  1.00  0.00    -0.526 A  
HETATM   14  C   UNL     1     -12.132  15.760  69.881  1.00  0.00    -0.315 A  
ENDBRANCH   8   9
BRANCH   8  15
HETATM   15  C   UNL     1     -10.423  16.717  67.737  1.00  0.00    -0.316 A  
HETATM   16  C   UNL     1     -10.379  17.755  68.690  1.00  0.00    -0.351 A  
HETATM   17  C   UNL     1     -10.355  19.109  68.310  1.00  0.00    -0.448 A  
HETATM   18  C   UNL     1     -10.369  19.473  66.963  1.00  0.00    -0.568 A  
HETATM   19  C   UNL     1     -10.469  17.138  66.385  1.00  0.00    -0.255 A  
HETATM   20  C   UNL     1     -10.436  18.482  66.000  1.00  0.00    -0.433 A  
ENDBRANCH   8  15
BRANCH   8  21
HETATM   21  C   UNL     1      -8.854  14.819  68.611  1.00  0.00    -0.180 C  
BRANCH  21  22
HETATM   22  C   UNL     1      -7.523  15.597  68.300  1.00  0.00    -0.115 C  
HETATM   23  C   UNL     1      -6.492  14.698  67.594  1.00  0.00    -0.157 C  
BRANCH  22  24
HETATM   24  N   UNL     1      -6.934  16.391  69.402  1.00  0.00    -0.223 NA 
HETATM   25  C   UNL     1      -5.704  15.814  69.962  1.00  0.00    -0.153 C  
HETATM   26  C   UNL     1      -6.630  17.784  69.025  1.00  0.00    -0.244 C  
ENDBRANCH  22  24
ENDBRANCH  21  22
ENDBRANCH   8  21
ENDBRANCH   3   8
ENDBRANCH   2   3
TORSDOF 9
ENDMDL
MODEL       49
REMARK 921   NORMALIZED FREE ENERGY PREDICTED BY IDOCK:   -4.90 KCAL/MOL
REMARK 922        TOTAL FREE ENERGY PREDICTED BY IDOCK:   -9.17 KCAL/MOL
REMARK 923 INTER-LIGAND FREE ENERGY PREDICTED BY IDOCK:   -8.06 KCAL/MOL
REMARK 924 INTRA-LIGAND FREE ENERGY PREDICTED BY IDOCK:   -1.10 KCAL/MOL
REMARK 927      BINDING AFFINITY PREDICTED BY RF-SCORE:    0.00 PKD
ROOT
HETATM    1  C   UNL     1      -7.987  15.045  69.309  1.00  0.00    -0.190 C  
HETATM    2  C   UNL     1      -7.957  13.779  68.460  1.00  0.00    -0.131 C  
ENDROOT
BRANCH   2   3
HETATM    3  C   UNL     1      -8.986  13.823  67.311  1.00  0.00    -0.224 C  
BRANCH   3   4
HETATM    4  O   UNL     1      -9.483  15.195  67.231  1.00  0.00    -0.204 OA 
BRANCH   4   5
HETATM    5  C   UNL     1      -9.319  15.883  66.071  1.00  0.00    -0.349 C  
HETATM    6  C   UNL     1      -8.106  16.771  66.176  1.00  0.00    -0.293 C  
HETATM    7  O   UNL     1     -10.082  15.865  65.116  1.00  0.00    -0.451 OA 
ENDBRANCH   4   5
ENDBRANCH   3   4
BRANCH   3   8
HETATM    8  C   UNL     1     -10.222  12.804  67.490  1.00  0.00    -0.216 C  
BRANCH   8   9
HETATM    9  C   UNL     1     -10.939  12.674  66.100  1.00  0.00    -0.313 A  
HETATM   10  C   UNL     1     -12.300  12.949  65.881  1.00  0.00    -0.378 A  
HETATM   11  C   UNL     1     -12.858  12.917  64.593  1.00  0.00    -0.323 A  
HETATM   12  C   UNL     1     -12.095  12.532  63.498  1.00  0.00    -0.653 A  
HETATM   13  C   UNL     1     -10.765  12.195  63.687  1.00  0.00    -0.518 A  
HETATM   14  C   UNL     1     -10.197  12.296  64.960  1.00  0.00    -0.312 A  
ENDBRANCH   8   9
BRANCH   8  15
HETATM   15  C   UNL     1     -11.175  13.441  68.620  1.00  0.00    -0.304 A  
HETATM   16  C   UNL     1     -11.699  12.709  69.705  1.00  0.00    -0.373 A  
HETATM   17  C   UNL     1     -12.456  13.324  70.718  1.00  0.00    -0.403 A  
HETATM   18  C   UNL     1     -12.711  14.695  70.686  1.00  0.00    -0.417 A  
HETATM   19  C   UNL     1     -11.490  14.822  68.615  1.00  0.00    -0.325 A  
HETATM   20  C   UNL     1     -12.233  15.442  69.624  1.00  0.00    -0.312 A  
ENDBRANCH   8  15
BRANCH   8  21
HETATM   21  C   UNL     1      -9.749  11.346  67.987  1.00  0.00    -0.190 C  
BRANCH  21  22
HETATM   22  C   UNL     1     -10.513   9.976  67.868  1.00  0.00    -0.231 C  
HETATM   23  C   UNL     1     -10.517   9.210  69.205  1.00  0.00    -0.230 C  
BRANCH  22  24
HETATM   24  N   UNL     1     -10.173   9.113  66.714  1.00  0.00    -0.262 NA 
HETATM   25  C   UNL     1      -8.759   9.171  66.320  1.00  0.00    -0.140 C  
HETATM   26  C   UNL     1     -10.509   7.692  66.924  1.00  0.00    -0.318 C  
ENDBRANCH  22  24
ENDBRANCH  21  22
ENDBRANCH   8  21
ENDBRANCH   3   8
ENDBRANCH   2   3
TORSDOF 9
ENDMDL
MODEL       50
REMARK 921   NORMALIZED FREE ENERGY PREDICTED BY IDOCK:   -4.89 KCAL/MOL
REMARK 922        TOTAL FREE ENERGY PREDICTED BY IDOCK:   -9.15 KCAL/MOL
REMARK 923 INTER-LIGAND FREE ENERGY PREDICTED BY IDOCK:   -8.23 KCAL/MOL
REMARK 924 INTRA-LIGAND FREE ENERGY PREDICTED BY IDOCK:   -0.92 KCAL/MOL
REMARK 927      BINDING AFFINITY PREDICTED BY RF-SCORE:    0.00 PKD
ROOT
HETATM    1  C   UNL     1     -13.017  14.078  65.237  1.00  0.00    -0.315 C  
HETATM    2  C   UNL     1     -12.527  14.090  66.681  1.00  0.00    -0.296 C  
ENDROOT
BRANCH   2   3
HETATM    3  C   UNL     1     -11.059  14.549  66.795  1.00  0.00    -0.325 C  
BRANCH   3   4
HETATM    4  O   UNL     1     -10.628  14.949  65.457  1.00  0.00    -0.309 OA 
BRANCH   4   5
HETATM    5  C   UNL     1     -10.664  16.266  65.126  1.00  0.00    -0.331 C  
HETATM    6  C   UNL     1      -9.832  17.057  66.103  1.00  0.00    -0.297 C  
HETATM    7  O   UNL     1     -11.337  16.761  64.234  1.00  0.00    -1.170 OA 
ENDBRANCH   4   5
ENDBRANCH   3   4
BRANCH   3   8
HETATM    8  C   UNL     1     -10.058  13.427  67.377  1.00  0.00    -0.237 C  
BRANCH   8   9
HETATM    9  C   UNL     1     -10.828  12.628  68.486  1.00  0.00    -0.279 A  
HETATM   10  C   UNL     1     -10.711  11.242  68.690  1.00  0.00    -0.241 A  
HETATM   11  C   UNL     1     -11.344  10.602  69.768  1.00  0.00    -0.371 A  
HETATM   12  C   UNL     1     -12.177  11.311  70.625  1.00  0.00    -0.489 A  
HETATM   13  C   UNL     1     -12.363  12.667  70.416  1.00  0.00    -0.315 A  
HETATM   14  C   UNL     1     -11.675  13.312  69.385  1.00  0.00    -0.383 A  
ENDBRANCH   8   9
BRANCH   8  15
HETATM   15  C   UNL     1      -8.780  14.216  67.958  1.00  0.00    -0.177 A  
HETATM   16  C   UNL     1      -7.460  14.003  67.513  1.00  0.00    -0.186 A  
HETATM   17  C   UNL     1      -6.384  14.776  67.985  1.00  0.00    -0.164 A  
HETATM   18  C   UNL     1      -6.592  15.794  68.916  1.00  0.00    -0.119 A  
HETATM   19  C   UNL     1      -8.934  15.238  68.928  1.00  0.00    -0.209 A  
HETATM   20  C   UNL     1      -7.871  16.017  69.394  1.00  0.00    -0.167 A  
ENDBRANCH   8  15
BRANCH   8  21
HETATM   21  C   UNL     1      -9.549  12.407  66.237  1.00  0.00    -0.245 C  
BRANCH  21  22
HETATM   22  C   UNL     1     -10.407  11.505  65.277  1.00  0.00    -0.272 C  
HETATM   23  C   UNL     1     -10.027  10.018  65.403  1.00  0.00    -0.364 C  
BRANCH  22  24
HETATM   24  N   UNL     1     -10.531  11.948  63.869  1.00  0.00    -0.355 NA 
HETATM   25  C   UNL     1      -9.569  11.315  62.956  1.00  0.00    -0.377 C  
HETATM   26  C   UNL     1     -11.876  11.733  63.302  1.00  0.00    -0.240 C  
ENDBRANCH  22  24
ENDBRANCH  21  22
ENDBRANCH   8  21
ENDBRANCH   3   8
ENDBRANCH   2   3
TORSDOF 9
ENDMDL
MODEL       51
REMARK 921   NORMALIZED FREE ENERGY PREDICTED BY IDOCK:   -4.88 KCAL/MOL
REMARK 922        TOTAL FREE ENERGY PREDICTED BY IDOCK:   -9.13 KCAL/MOL
REMARK 923 INTER-LIGAND FREE ENERGY PREDICTED BY IDOCK:   -7.38 KCAL/MOL
REMARK 924 INTRA-LIGAND FREE ENERGY PREDICTED BY IDOCK:   -1.75 KCAL/MOL
REMARK 927      BINDING AFFINITY PREDICTED BY RF-SCORE:    0.00 PKD
ROOT
HETATM    1  C   UNL     1      -6.163  13.077  67.733  1.00  0.00    -0.149 C  
HETATM    2  C   UNL     1      -7.444  12.752  68.493  1.00  0.00    -0.120 C  
ENDROOT
BRANCH   2   3
HETATM    3  C   UNL     1      -8.681  13.429  67.868  1.00  0.00    -0.187 C  
BRANCH   3   4
HETATM    4  O   UNL     1      -9.291  14.255  68.909  1.00  0.00    -0.160 OA 
BRANCH   4   5
HETATM    5  C   UNL     1      -9.096  15.599  68.874  1.00  0.00    -0.217 C  
HETATM    6  C   UNL     1     -10.398  16.292  68.564  1.00  0.00    -0.261 C  
HETATM    7  O   UNL     1      -8.020  16.168  68.983  1.00  0.00    -0.214 OA 
ENDBRANCH   4   5
ENDBRANCH   3   4
BRANCH   3   8
HETATM    8  C   UNL     1      -9.773  12.400  67.279  1.00  0.00    -0.201 C  
BRANCH   8   9
HETATM    9  C   UNL     1     -10.698  13.197  66.293  1.00  0.00    -0.295 A  
HETATM   10  C   UNL     1     -12.054  12.906  66.068  1.00  0.00    -0.484 A  
HETATM   11  C   UNL     1     -12.857  13.723  65.255  1.00  0.00    -0.430 A  
HETATM   12  C   UNL     1     -12.309  14.806  64.577  1.00  0.00    -0.384 A  
HETATM   13  C   UNL     1     -10.962  15.085  64.728  1.00  0.00    -0.389 A  
HETATM   14  C   UNL     1     -10.184  14.311  65.594  1.00  0.00    -0.366 A  
ENDBRANCH   8   9
BRANCH   8  15
HETATM   15  C   UNL     1     -10.577  11.817  68.546  1.00  0.00    -0.242 A  
HETATM   16  C   UNL     1     -10.306  10.565  69.135  1.00  0.00    -0.240 A  
HETATM   17  C   UNL     1     -10.973  10.133  70.295  1.00  0.00    -0.380 A  
HETATM   18  C   UNL     1     -11.932  10.938  70.910  1.00  0.00    -0.416 A  
HETATM   19  C   UNL     1     -11.581  12.583  69.187  1.00  0.00    -0.375 A  
HETATM   20  C   UNL     1     -12.241  12.163  70.346  1.00  0.00    -0.378 A  
ENDBRANCH   8  15
BRANCH   8  21
HETATM   21  C   UNL     1      -9.094  11.166  66.496  1.00  0.00    -0.193 C  
BRANCH  21  22
HETATM   22  C   UNL     1      -9.769  10.136  65.518  1.00  0.00    -0.281 C  
HETATM   23  C   UNL     1      -9.749   8.708  66.094  1.00  0.00    -0.292 C  
BRANCH  22  24
HETATM   24  N   UNL     1      -9.357  10.187  64.096  1.00  0.00    -0.270 NA 
HETATM   25  C   UNL     1     -10.060  11.209  63.307  1.00  0.00    -0.380 C  
HETATM   26  C   UNL     1      -7.911  10.412  63.912  1.00  0.00    -0.075 C  
ENDBRANCH  22  24
ENDBRANCH  21  22
ENDBRANCH   8  21
ENDBRANCH   3   8
ENDBRANCH   2   3
TORSDOF 9
ENDMDL
MODEL       52
REMARK 921   NORMALIZED FREE ENERGY PREDICTED BY IDOCK:   -4.84 KCAL/MOL
REMARK 922        TOTAL FREE ENERGY PREDICTED BY IDOCK:   -9.08 KCAL/MOL
REMARK 923 INTER-LIGAND FREE ENERGY PREDICTED BY IDOCK:   -7.93 KCAL/MOL
REMARK 924 INTRA-LIGAND FREE ENERGY PREDICTED BY IDOCK:   -1.15 KCAL/MOL
REMARK 927      BINDING AFFINITY PREDICTED BY RF-SCORE:    0.00 PKD
ROOT
HETATM    1  C   UNL     1      -7.623  16.876  67.756  1.00  0.00    -0.180 C  
HETATM    2  C   UNL     1      -7.851  16.312  66.358  1.00  0.00    -0.249 C  
ENDROOT
BRANCH   2   3
HETATM    3  C   UNL     1      -9.316  15.885  66.133  1.00  0.00    -0.350 C  
BRANCH   3   4
HETATM    4  O   UNL     1     -10.160  16.881  66.790  1.00  0.00    -0.275 OA 
BRANCH   4   5
HETATM    5  C   UNL     1     -10.646  17.914  66.053  1.00  0.00    -0.234 C  
HETATM    6  C   UNL     1     -10.640  19.174  66.879  1.00  0.00    -0.540 C  
HETATM    7  O   UNL     1     -11.108  17.831  64.924  1.00  0.00    -0.821 OA 
ENDBRANCH   4   5
ENDBRANCH   3   4
BRANCH   3   8
HETATM    8  C   UNL     1      -9.671  14.416  66.693  1.00  0.00    -0.289 C  
BRANCH   8   9
HETATM    9  C   UNL     1     -10.477  13.661  65.578  1.00  0.00    -0.314 A  
HETATM   10  C   UNL     1     -11.440  14.264  64.749  1.00  0.00    -0.394 A  
HETATM   11  C   UNL     1     -12.050  13.560  63.698  1.00  0.00    -0.459 A  
HETATM   12  C   UNL     1     -11.777  12.213  63.494  1.00  0.00    -0.579 A  
HETATM   13  C   UNL     1     -10.879  11.572  64.330  1.00  0.00    -0.421 A  
HETATM   14  C   UNL     1     -10.223  12.295  65.330  1.00  0.00    -0.297 A  
ENDBRANCH   8   9
BRANCH   8  15
HETATM   15  C   UNL     1     -10.532  14.637  68.035  1.00  0.00    -0.236 A  
HETATM   16  C   UNL     1     -11.733  13.954  68.316  1.00  0.00    -0.396 A  
HETATM   17  C   UNL     1     -12.406  14.113  69.541  1.00  0.00    -0.275 A  
HETATM   18  C   UNL     1     -11.900  14.956  70.530  1.00  0.00    -0.358 A  
HETATM   19  C   UNL     1     -10.077  15.506  69.057  1.00  0.00    -0.234 A  
HETATM   20  C   UNL     1     -10.737  15.661  70.280  1.00  0.00    -0.354 A  
ENDBRANCH   8  15
BRANCH   8  21
HETATM   21  C   UNL     1      -8.354  13.566  67.069  1.00  0.00    -0.096 C  
BRANCH  21  22
HETATM   22  C   UNL     1      -8.046  12.772  68.390  1.00  0.00    -0.129 C  
HETATM   23  C   UNL     1      -6.886  13.408  69.178  1.00  0.00    -0.076 C  
BRANCH  22  24
HETATM   24  N   UNL     1      -7.925  11.300  68.279  1.00  0.00    -0.126 NA 
HETATM   25  C   UNL     1      -7.158  10.850  67.109  1.00  0.00    -0.103 C  
HETATM   26  C   UNL     1      -7.319  10.669  69.467  1.00  0.00    -0.141 C  
ENDBRANCH  22  24
ENDBRANCH  21  22
ENDBRANCH   8  21
ENDBRANCH   3   8
ENDBRANCH   2   3
TORSDOF 9
ENDMDL
MODEL       53
REMARK 921   NORMALIZED FREE ENERGY PREDICTED BY IDOCK:   -4.80 KCAL/MOL
REMARK 922        TOTAL FREE ENERGY PREDICTED BY IDOCK:   -9.02 KCAL/MOL
REMARK 923 INTER-LIGAND FREE ENERGY PREDICTED BY IDOCK:   -8.03 KCAL/MOL
REMARK 924 INTRA-LIGAND FREE ENERGY PREDICTED BY IDOCK:   -0.99 KCAL/MOL
REMARK 927      BINDING AFFINITY PREDICTED BY RF-SCORE:    0.00 PKD
ROOT
HETATM    1  C   UNL     1      -7.273  16.574  68.601  1.00  0.00    -0.186 C  
HETATM    2  C   UNL     1      -8.737  16.296  68.926  1.00  0.00    -0.253 C  
ENDROOT
BRANCH   2   3
HETATM    3  C   UNL     1      -9.518  15.776  67.703  1.00  0.00    -0.218 C  
BRANCH   3   4
HETATM    4  O   UNL     1     -10.600  16.725  67.448  1.00  0.00    -0.321 OA 
BRANCH   4   5
HETATM    5  C   UNL     1     -10.485  17.580  66.398  1.00  0.00    -0.277 C  
HETATM    6  C   UNL     1     -10.450  19.000  66.901  1.00  0.00    -0.505 C  
HETATM    7  O   UNL     1     -10.501  17.266  65.216  1.00  0.00    -0.661 OA 
ENDBRANCH   4   5
ENDBRANCH   3   4
BRANCH   3   8
HETATM    8  C   UNL     1     -10.126  14.294  67.887  1.00  0.00    -0.233 C  
BRANCH   8   9
HETATM    9  C   UNL     1     -10.765  13.866  66.519  1.00  0.00    -0.277 A  
HETATM   10  C   UNL     1     -10.065  13.799  65.302  1.00  0.00    -0.312 A  
HETATM   11  C   UNL     1     -10.667  13.305  64.133  1.00  0.00    -0.350 A  
HETATM   12  C   UNL     1     -12.008  12.941  64.126  1.00  0.00    -0.491 A  
HETATM   13  C   UNL     1     -12.745  13.053  65.293  1.00  0.00    -0.432 A  
HETATM   14  C   UNL     1     -12.122  13.478  66.469  1.00  0.00    -0.460 A  
ENDBRANCH   8   9
BRANCH   8  15
HETATM   15  C   UNL     1     -11.210  14.392  69.073  1.00  0.00    -0.288 A  
HETATM   16  C   UNL     1     -11.943  15.559  69.369  1.00  0.00    -0.358 A  
HETATM   17  C   UNL     1     -12.944  15.575  70.357  1.00  0.00    -0.252 A  
HETATM   18  C   UNL     1     -13.251  14.423  71.080  1.00  0.00    -0.414 A  
HETATM   19  C   UNL     1     -11.536  13.258  69.857  1.00  0.00    -0.260 A  
HETATM   20  C   UNL     1     -12.536  13.264  70.834  1.00  0.00    -0.386 A  
ENDBRANCH   8  15
BRANCH   8  21
HETATM   21  C   UNL     1      -9.003  13.218  68.312  1.00  0.00    -0.176 C  
BRANCH  21  22
HETATM   22  C   UNL     1      -8.896  11.702  67.907  1.00  0.00    -0.155 C  
HETATM   23  C   UNL     1      -7.845  11.482  66.804  1.00  0.00    -0.146 C  
BRANCH  22  24
HETATM   24  N   UNL     1     -10.165  10.985  67.643  1.00  0.00    -0.177 NA 
HETATM   25  C   UNL     1     -10.164  10.208  66.396  1.00  0.00    -0.221 C  
HETATM   26  C   UNL     1     -10.556  10.065  68.729  1.00  0.00    -0.217 C  
ENDBRANCH  22  24
ENDBRANCH  21  22
ENDBRANCH   8  21
ENDBRANCH   3   8
ENDBRANCH   2   3
TORSDOF 9
ENDMDL
MODEL       54
REMARK 921   NORMALIZED FREE ENERGY PREDICTED BY IDOCK:   -4.79 KCAL/MOL
REMARK 922        TOTAL FREE ENERGY PREDICTED BY IDOCK:   -9.00 KCAL/MOL
REMARK 923 INTER-LIGAND FREE ENERGY PREDICTED BY IDOCK:   -7.51 KCAL/MOL
REMARK 924 INTRA-LIGAND FREE ENERGY PREDICTED BY IDOCK:   -1.49 KCAL/MOL
REMARK 927      BINDING AFFINITY PREDICTED BY RF-SCORE:    0.00 PKD
ROOT
HETATM    1  C   UNL     1      -6.730  14.313  67.912  1.00  0.00    -0.177 C  
HETATM    2  C   UNL     1      -8.204  14.185  68.280  1.00  0.00    -0.148 C  
ENDROOT
BRANCH   2   3
HETATM    3  C   UNL     1      -9.090  13.895  67.051  1.00  0.00    -0.250 C  
BRANCH   3   4
HETATM    4  O   UNL     1      -9.998  15.030  66.899  1.00  0.00    -0.238 OA 
BRANCH   4   5
HETATM    5  C   UNL     1      -9.771  15.918  65.895  1.00  0.00    -0.351 C  
HETATM    6  C   UNL     1     -10.864  15.808  64.864  1.00  0.00    -0.433 C  
HETATM    7  O   UNL     1      -8.787  16.636  65.785  1.00  0.00    -0.493 OA 
ENDBRANCH   4   5
ENDBRANCH   3   4
BRANCH   3   8
HETATM    8  C   UNL     1      -9.938  12.529  67.153  1.00  0.00    -0.217 C  
BRANCH   8   9
HETATM    9  C   UNL     1     -10.823  12.417  65.862  1.00  0.00    -0.305 A  
HETATM   10  C   UNL     1     -12.209  12.648  65.828  1.00  0.00    -0.427 A  
HETATM   11  C   UNL     1     -12.926  12.638  64.620  1.00  0.00    -0.225 A  
HETATM   12  C   UNL     1     -12.297  12.317  63.424  1.00  0.00    -0.624 A  
HETATM   13  C   UNL     1     -10.944  12.025  63.430  1.00  0.00    -0.475 A  
HETATM   14  C   UNL     1     -10.221  12.105  64.623  1.00  0.00    -0.312 A  
ENDBRANCH   8   9
BRANCH   8  15
HETATM   15  C   UNL     1     -10.817  12.639  68.497  1.00  0.00    -0.279 A  
HETATM   16  C   UNL     1     -11.398  13.839  68.955  1.00  0.00    -0.333 A  
HETATM   17  C   UNL     1     -12.232  13.874  70.088  1.00  0.00    -0.425 A  
HETATM   18  C   UNL     1     -12.519  12.708  70.799  1.00  0.00    -0.357 A  
HETATM   19  C   UNL     1     -11.111  11.491  69.272  1.00  0.00    -0.305 A  
HETATM   20  C   UNL     1     -11.947  11.516  70.393  1.00  0.00    -0.459 A  
ENDBRANCH   8  15
BRANCH   8  21
HETATM   21  C   UNL     1      -8.995  11.227  67.270  1.00  0.00    -0.149 C  
BRANCH  21  22
HETATM   22  C   UNL     1      -7.465  11.093  66.930  1.00  0.00    -0.138 C  
HETATM   23  C   UNL     1      -7.240  10.331  65.611  1.00  0.00    -0.148 C  
BRANCH  22  24
HETATM   24  N   UNL     1      -6.571  10.633  68.018  1.00  0.00    -0.063 NA 
HETATM   25  C   UNL     1      -7.089  10.894  69.368  1.00  0.00    -0.131 C  
HETATM   26  C   UNL     1      -6.249   9.195  67.944  1.00  0.00    -0.051 C  
ENDBRANCH  22  24
ENDBRANCH  21  22
ENDBRANCH   8  21
ENDBRANCH   3   8
ENDBRANCH   2   3
TORSDOF 9
ENDMDL
MODEL       55
REMARK 921   NORMALIZED FREE ENERGY PREDICTED BY IDOCK:   -4.78 KCAL/MOL
REMARK 922        TOTAL FREE ENERGY PREDICTED BY IDOCK:   -8.99 KCAL/MOL
REMARK 923 INTER-LIGAND FREE ENERGY PREDICTED BY IDOCK:   -7.30 KCAL/MOL
REMARK 924 INTRA-LIGAND FREE ENERGY PREDICTED BY IDOCK:   -1.69 KCAL/MOL
REMARK 927      BINDING AFFINITY PREDICTED BY RF-SCORE:    0.00 PKD
ROOT
HETATM    1  C   UNL     1     -12.705  13.977  65.503  1.00  0.00    -0.517 C  
HETATM    2  C   UNL     1     -12.132  12.716  66.140  1.00  0.00    -0.399 C  
ENDROOT
BRANCH   2   3
HETATM    3  C   UNL     1     -10.609  12.595  65.926  1.00  0.00    -0.273 C  
BRANCH   3   4
HETATM    4  O   UNL     1     -10.351  11.245  65.429  1.00  0.00    -0.253 OA 
BRANCH   4   5
HETATM    5  C   UNL     1     -10.025  11.082  64.120  1.00  0.00    -0.329 C  
HETATM    6  C   UNL     1      -9.140   9.872  63.964  1.00  0.00    -0.300 C  
HETATM    7  O   UNL     1     -10.320  11.843  63.210  1.00  0.00    -0.424 OA 
ENDBRANCH   4   5
ENDBRANCH   3   4
BRANCH   3   8
HETATM    8  C   UNL     1      -9.731  12.865  67.250  1.00  0.00    -0.220 C  
BRANCH   8   9
HETATM    9  C   UNL     1     -10.712  12.912  68.474  1.00  0.00    -0.275 A  
HETATM   10  C   UNL     1     -11.288  11.779  69.073  1.00  0.00    -0.338 A  
HETATM   11  C   UNL     1     -12.073  11.879  70.233  1.00  0.00    -0.409 A  
HETATM   12  C   UNL     1     -12.375  13.120  70.780  1.00  0.00    -0.404 A  
HETATM   13  C   UNL     1     -11.875  14.263  70.179  1.00  0.00    -0.379 A  
HETATM   14  C   UNL     1     -11.036  14.152  69.067  1.00  0.00    -0.286 A  
ENDBRANCH   8   9
BRANCH   8  15
HETATM   15  C   UNL     1      -8.970  14.264  67.013  1.00  0.00    -0.251 A  
HETATM   16  C   UNL     1      -9.472  15.299  66.199  1.00  0.00    -0.361 A  
HETATM   17  C   UNL     1      -8.818  16.540  66.090  1.00  0.00    -0.342 A  
HETATM   18  C   UNL     1      -7.642  16.791  66.795  1.00  0.00    -0.283 A  
HETATM   19  C   UNL     1      -7.756  14.556  67.683  1.00  0.00    -0.194 A  
HETATM   20  C   UNL     1      -7.106  15.790  67.586  1.00  0.00    -0.192 A  
ENDBRANCH   8  15
BRANCH   8  21
HETATM   21  C   UNL     1      -8.623  11.721  67.497  1.00  0.00    -0.157 C  
BRANCH  21  22
HETATM   22  C   UNL     1      -8.115  11.128  68.862  1.00  0.00    -0.115 C  
HETATM   23  C   UNL     1      -6.690  11.607  69.195  1.00  0.00    -0.109 C  
BRANCH  22  24
HETATM   24  N   UNL     1      -8.294   9.673  69.074  1.00  0.00    -0.116 NA 
HETATM   25  C   UNL     1      -8.844   9.323  70.391  1.00  0.00    -0.234 C  
HETATM   26  C   UNL     1      -9.154   9.034  68.059  1.00  0.00    -0.136 C  
ENDBRANCH  22  24
ENDBRANCH  21  22
ENDBRANCH   8  21
ENDBRANCH   3   8
ENDBRANCH   2   3
TORSDOF 9
ENDMDL
MODEL       56
REMARK 921   NORMALIZED FREE ENERGY PREDICTED BY IDOCK:   -4.78 KCAL/MOL
REMARK 922        TOTAL FREE ENERGY PREDICTED BY IDOCK:   -8.98 KCAL/MOL
REMARK 923 INTER-LIGAND FREE ENERGY PREDICTED BY IDOCK:   -7.50 KCAL/MOL
REMARK 924 INTRA-LIGAND FREE ENERGY PREDICTED BY IDOCK:   -1.49 KCAL/MOL
REMARK 927      BINDING AFFINITY PREDICTED BY RF-SCORE:    0.00 PKD
ROOT
HETATM    1  C   UNL     1     -11.381  15.174  70.230  1.00  0.00    -0.315 C  
HETATM    2  C   UNL     1     -11.833  14.407  68.993  1.00  0.00    -0.358 C  
ENDROOT
BRANCH   2   3
HETATM    3  C   UNL     1     -10.654  14.050  68.064  1.00  0.00    -0.247 C  
BRANCH   3   4
HETATM    4  O   UNL     1     -10.779  14.884  66.871  1.00  0.00    -0.295 OA 
BRANCH   4   5
HETATM    5  C   UNL     1      -9.829  15.826  66.629  1.00  0.00    -0.252 C  
HETATM    6  C   UNL     1     -10.403  17.198  66.869  1.00  0.00    -0.308 C  
HETATM    7  O   UNL     1      -8.706  15.613  66.194  1.00  0.00    -0.317 OA 
ENDBRANCH   4   5
ENDBRANCH   3   4
BRANCH   3   8
HETATM    8  C   UNL     1     -10.592  12.496  67.639  1.00  0.00    -0.234 C  
BRANCH   8   9
HETATM    9  C   UNL     1      -9.131  11.987  67.898  1.00  0.00    -0.183 A  
HETATM   10  C   UNL     1      -8.110  12.763  68.475  1.00  0.00    -0.080 A  
HETATM   11  C   UNL     1      -6.853  12.217  68.780  1.00  0.00    -0.095 A  
HETATM   12  C   UNL     1      -6.551  10.903  68.443  1.00  0.00    -0.058 A  
HETATM   13  C   UNL     1      -7.513  10.127  67.819  1.00  0.00    -0.089 A  
HETATM   14  C   UNL     1      -8.785  10.655  67.582  1.00  0.00    -0.121 A  
ENDBRANCH   8   9
BRANCH   8  15
HETATM   15  C   UNL     1     -11.002  12.435  66.084  1.00  0.00    -0.321 A  
HETATM   16  C   UNL     1     -10.090  12.158  65.045  1.00  0.00    -0.289 A  
HETATM   17  C   UNL     1     -10.508  12.026  63.708  1.00  0.00    -0.469 A  
HETATM   18  C   UNL     1     -11.852  12.162  63.363  1.00  0.00    -0.553 A  
HETATM   19  C   UNL     1     -12.350  12.596  65.678  1.00  0.00    -0.390 A  
HETATM   20  C   UNL     1     -12.773  12.457  64.353  1.00  0.00    -0.434 A  
ENDBRANCH   8  15
BRANCH   8  21
HETATM   21  C   UNL     1     -11.631  11.590  68.474  1.00  0.00    -0.377 C  
BRANCH  21  22
HETATM   22  C   UNL     1     -11.586  11.200  69.997  1.00  0.00    -0.338 C  
HETATM   23  C   UNL     1     -10.719   9.950  70.239  1.00  0.00    -0.367 C  
BRANCH  22  24
HETATM   24  N   UNL     1     -12.879  11.150  70.718  1.00  0.00    -0.276 NA 
HETATM   25  C   UNL     1     -13.133   9.874  71.401  1.00  0.00    -0.407 C  
HETATM   26  C   UNL     1     -13.033  12.220  71.721  1.00  0.00    -0.325 C  
ENDBRANCH  22  24
ENDBRANCH  21  22
ENDBRANCH   8  21
ENDBRANCH   3   8
ENDBRANCH   2   3
TORSDOF 9
ENDMDL
MODEL       57
REMARK 921   NORMALIZED FREE ENERGY PREDICTED BY IDOCK:   -4.76 KCAL/MOL
REMARK 922        TOTAL FREE ENERGY PREDICTED BY IDOCK:   -8.95 KCAL/MOL
REMARK 923 INTER-LIGAND FREE ENERGY PREDICTED BY IDOCK:   -8.01 KCAL/MOL
REMARK 924 INTRA-LIGAND FREE ENERGY PREDICTED BY IDOCK:   -0.95 KCAL/MOL
REMARK 927      BINDING AFFINITY PREDICTED BY RF-SCORE:    0.00 PKD
ROOT
HETATM    1  C   UNL     1     -11.068  16.288  64.703  1.00  0.00    -0.259 C  
HETATM    2  C   UNL     1     -10.060  15.660  65.661  1.00  0.00    -0.395 C  
ENDROOT
BRANCH   2   3
HETATM    3  C   UNL     1     -10.699  15.279  67.012  1.00  0.00    -0.313 C  
BRANCH   3   4
HETATM    4  O   UNL     1      -9.908  15.925  68.058  1.00  0.00    -0.216 OA 
BRANCH   4   5
HETATM    5  C   UNL     1      -9.830  17.282  68.075  1.00  0.00    -0.284 C  
HETATM    6  C   UNL     1      -8.406  17.705  68.326  1.00  0.00    -0.274 C  
HETATM    7  O   UNL     1     -10.776  18.053  67.993  1.00  0.00    -0.376 OA 
ENDBRANCH   4   5
ENDBRANCH   3   4
BRANCH   3   8
HETATM    8  C   UNL     1     -10.772  13.693  67.287  1.00  0.00    -0.283 C  
BRANCH   8   9
HETATM    9  C   UNL     1      -9.348  13.220  67.743  1.00  0.00    -0.209 A  
HETATM   10  C   UNL     1      -9.095  12.031  68.450  1.00  0.00    -0.158 A  
HETATM   11  C   UNL     1      -7.787  11.609  68.736  1.00  0.00    -0.096 A  
HETATM   12  C   UNL     1      -6.696  12.401  68.397  1.00  0.00    -0.069 A  
HETATM   13  C   UNL     1      -6.912  13.609  67.755  1.00  0.00    -0.168 A  
HETATM   14  C   UNL     1      -8.212  13.989  67.410  1.00  0.00    -0.203 A  
ENDBRANCH   8   9
BRANCH   8  15
HETATM   15  C   UNL     1     -11.235  13.014  65.902  1.00  0.00    -0.315 A  
HETATM   16  C   UNL     1     -12.560  13.041  65.422  1.00  0.00    -0.481 A  
HETATM   17  C   UNL     1     -12.904  12.512  64.165  1.00  0.00    -0.333 A  
HETATM   18  C   UNL     1     -11.934  11.940  63.341  1.00  0.00    -0.528 A  
HETATM   19  C   UNL     1     -10.294  12.394  65.044  1.00  0.00    -0.319 A  
HETATM   20  C   UNL     1     -10.627  11.874  63.790  1.00  0.00    -0.475 A  
ENDBRANCH   8  15
BRANCH   8  21
HETATM   21  C   UNL     1     -11.852  13.315  68.423  1.00  0.00    -0.395 C  
BRANCH  21  22
HETATM   22  C   UNL     1     -11.846  13.704  69.947  1.00  0.00    -0.320 C  
HETATM   23  C   UNL     1     -12.368  12.554  70.828  1.00  0.00    -0.376 C  
BRANCH  22  24
HETATM   24  N   UNL     1     -12.429  15.016  70.310  1.00  0.00    -0.341 NA 
HETATM   25  C   UNL     1     -13.661  14.923  71.106  1.00  0.00    -0.403 C  
HETATM   26  C   UNL     1     -11.497  15.888  71.049  1.00  0.00    -0.418 C  
ENDBRANCH  22  24
ENDBRANCH  21  22
ENDBRANCH   8  21
ENDBRANCH   3   8
ENDBRANCH   2   3
TORSDOF 9
ENDMDL
MODEL       58
REMARK 921   NORMALIZED FREE ENERGY PREDICTED BY IDOCK:   -4.75 KCAL/MOL
REMARK 922        TOTAL FREE ENERGY PREDICTED BY IDOCK:   -8.94 KCAL/MOL
REMARK 923 INTER-LIGAND FREE ENERGY PREDICTED BY IDOCK:   -7.49 KCAL/MOL
REMARK 924 INTRA-LIGAND FREE ENERGY PREDICTED BY IDOCK:   -1.46 KCAL/MOL
REMARK 927      BINDING AFFINITY PREDICTED BY RF-SCORE:    0.00 PKD
ROOT
HETATM    1  C   UNL     1     -11.321  15.372  64.740  1.00  0.00    -0.381 C  
HETATM    2  C   UNL     1     -10.158  14.590  65.338  1.00  0.00    -0.394 C  
ENDROOT
BRANCH   2   3
HETATM    3  C   UNL     1     -10.494  13.096  65.525  1.00  0.00    -0.288 C  
BRANCH   3   4
HETATM    4  O   UNL     1     -11.859  12.899  65.042  1.00  0.00    -0.333 OA 
BRANCH   4   5
HETATM    5  C   UNL     1     -12.055  12.146  63.928  1.00  0.00    -0.488 C  
HETATM    6  C   UNL     1     -10.734  11.613  63.436  1.00  0.00    -0.460 C  
HETATM    7  O   UNL     1     -13.121  11.991  63.349  1.00  0.00    -0.747 OA 
ENDBRANCH   4   5
ENDBRANCH   3   4
BRANCH   3   8
HETATM    8  C   UNL     1     -10.373  12.575  67.045  1.00  0.00    -0.236 C  
BRANCH   8   9
HETATM    9  C   UNL     1     -10.607  13.805  67.992  1.00  0.00    -0.258 A  
HETATM   10  C   UNL     1     -11.869  14.230  68.442  1.00  0.00    -0.373 A  
HETATM   11  C   UNL     1     -12.004  15.272  69.375  1.00  0.00    -0.342 A  
HETATM   12  C   UNL     1     -10.891  15.973  69.821  1.00  0.00    -0.337 A  
HETATM   13  C   UNL     1      -9.637  15.620  69.351  1.00  0.00    -0.287 A  
HETATM   14  C   UNL     1      -9.502  14.537  68.478  1.00  0.00    -0.211 A  
ENDBRANCH   8   9
BRANCH   8  15
HETATM   15  C   UNL     1      -8.897  11.951  67.196  1.00  0.00    -0.180 A  
HETATM   16  C   UNL     1      -8.145  11.999  68.388  1.00  0.00    -0.154 A  
HETATM   17  C   UNL     1      -6.895  11.364  68.502  1.00  0.00    -0.073 A  
HETATM   18  C   UNL     1      -6.355  10.654  67.430  1.00  0.00    -0.058 A  
HETATM   19  C   UNL     1      -8.291  11.247  66.127  1.00  0.00    -0.111 A  
HETATM   20  C   UNL     1      -7.054  10.605  66.237  1.00  0.00    -0.137 A  
ENDBRANCH   8  15
BRANCH   8  21
HETATM   21  C   UNL     1     -11.448  11.424  67.388  1.00  0.00    -0.328 C  
BRANCH  21  22
HETATM   22  C   UNL     1     -11.398  10.346  68.532  1.00  0.00    -0.220 C  
HETATM   23  C   UNL     1     -11.390  10.998  69.927  1.00  0.00    -0.364 C  
BRANCH  22  24
HETATM   24  N   UNL     1     -10.392   9.267  68.397  1.00  0.00    -0.203 NA 
HETATM   25  C   UNL     1     -10.413   8.290  69.494  1.00  0.00    -0.227 C  
HETATM   26  C   UNL     1     -10.508   8.511  67.136  1.00  0.00    -0.299 C  
ENDBRANCH  22  24
ENDBRANCH  21  22
ENDBRANCH   8  21
ENDBRANCH   3   8
ENDBRANCH   2   3
TORSDOF 9
ENDMDL
MODEL       59
REMARK 921   NORMALIZED FREE ENERGY PREDICTED BY IDOCK:   -4.72 KCAL/MOL
REMARK 922        TOTAL FREE ENERGY PREDICTED BY IDOCK:   -8.89 KCAL/MOL
REMARK 923 INTER-LIGAND FREE ENERGY PREDICTED BY IDOCK:   -7.27 KCAL/MOL
REMARK 924 INTRA-LIGAND FREE ENERGY PREDICTED BY IDOCK:   -1.62 KCAL/MOL
REMARK 927      BINDING AFFINITY PREDICTED BY RF-SCORE:    0.00 PKD
ROOT
HETATM    1  C   UNL     1     -12.352  14.030  69.518  1.00  0.00    -0.275 C  
HETATM    2  C   UNL     1     -11.322  12.908  69.561  1.00  0.00    -0.221 C  
ENDROOT
BRANCH   2   3
HETATM    3  C   UNL     1     -11.467  11.935  68.372  1.00  0.00    -0.299 C  
BRANCH   3   4
HETATM    4  O   UNL     1     -11.546  10.586  68.928  1.00  0.00    -0.253 OA 
BRANCH   4   5
HETATM    5  C   UNL     1     -12.088  10.418  70.163  1.00  0.00    -0.256 C  
HETATM    6  C   UNL     1     -11.093   9.735  71.065  1.00  0.00    -0.431 C  
HETATM    7  O   UNL     1     -13.237  10.690  70.481  1.00  0.00    -0.242 OA 
ENDBRANCH   4   5
ENDBRANCH   3   4
BRANCH   3   8
HETATM    8  C   UNL     1     -10.265  12.014  67.302  1.00  0.00    -0.221 C  
BRANCH   8   9
HETATM    9  C   UNL     1     -10.903  12.197  65.880  1.00  0.00    -0.316 A  
HETATM   10  C   UNL     1     -10.209  12.017  64.670  1.00  0.00    -0.313 A  
HETATM   11  C   UNL     1     -10.863  12.090  63.430  1.00  0.00    -0.471 A  
HETATM   12  C   UNL     1     -12.210  12.425  63.356  1.00  0.00    -0.623 A  
HETATM   13  C   UNL     1     -12.910  12.669  64.526  1.00  0.00    -0.356 A  
HETATM   14  C   UNL     1     -12.271  12.526  65.761  1.00  0.00    -0.361 A  
ENDBRANCH   8   9
BRANCH   8  15
HETATM   15  C   UNL     1      -9.444  10.636  67.439  1.00  0.00    -0.172 A  
HETATM   16  C   UNL     1      -8.377  10.448  68.341  1.00  0.00    -0.119 A  
HETATM   17  C   UNL     1      -7.744   9.200  68.490  1.00  0.00    -0.093 A  
HETATM   18  C   UNL     1      -8.159   8.096  67.746  1.00  0.00    -0.127 A  
HETATM   19  C   UNL     1      -9.805   9.494  66.683  1.00  0.00    -0.293 A  
HETATM   20  C   UNL     1      -9.187   8.249  66.833  1.00  0.00    -0.197 A  
ENDBRANCH   8  15
BRANCH   8  21
HETATM   21  C   UNL     1      -9.257  13.237  67.598  1.00  0.00    -0.209 C  
BRANCH  21  22
HETATM   22  C   UNL     1      -9.160  14.625  66.864  1.00  0.00    -0.252 C  
HETATM   23  C   UNL     1      -7.872  15.378  67.244  1.00  0.00    -0.237 C  
BRANCH  22  24
HETATM   24  N   UNL     1     -10.361  15.490  66.896  1.00  0.00    -0.284 NA 
HETATM   25  C   UNL     1     -10.246  16.639  67.804  1.00  0.00    -0.292 C  
HETATM   26  C   UNL     1     -10.740  16.016  65.571  1.00  0.00    -0.361 C  
ENDBRANCH  22  24
ENDBRANCH  21  22
ENDBRANCH   8  21
ENDBRANCH   3   8
ENDBRANCH   2   3
TORSDOF 9
ENDMDL
MODEL       60
REMARK 921   NORMALIZED FREE ENERGY PREDICTED BY IDOCK:   -4.72 KCAL/MOL
REMARK 922        TOTAL FREE ENERGY PREDICTED BY IDOCK:   -8.89 KCAL/MOL
REMARK 923 INTER-LIGAND FREE ENERGY PREDICTED BY IDOCK:   -7.49 KCAL/MOL
REMARK 924 INTRA-LIGAND FREE ENERGY PREDICTED BY IDOCK:   -1.40 KCAL/MOL
REMARK 927      BINDING AFFINITY PREDICTED BY RF-SCORE:    0.00 PKD
ROOT
HETATM    1  C   UNL     1     -10.142  10.075  65.482  1.00  0.00    -0.325 C  
HETATM    2  C   UNL     1     -10.661  10.641  66.799  1.00  0.00    -0.297 C  
ENDROOT
BRANCH   2   3
HETATM    3  C   UNL     1     -10.979  12.147  66.701  1.00  0.00    -0.282 C  
BRANCH   3   4
HETATM    4  O   UNL     1     -11.161  12.457  65.285  1.00  0.00    -0.299 OA 
BRANCH   4   5
HETATM    5  C   UNL     1     -12.424  12.606  64.806  1.00  0.00    -0.484 C  
HETATM    6  C   UNL     1     -12.485  12.127  63.378  1.00  0.00    -0.625 C  
HETATM    7  O   UNL     1     -13.356  13.132  65.398  1.00  0.00    -0.467 OA 
ENDBRANCH   4   5
ENDBRANCH   3   4
BRANCH   3   8
HETATM    8  C   UNL     1      -9.844  13.106  67.327  1.00  0.00    -0.232 C  
BRANCH   8   9
HETATM    9  C   UNL     1      -8.645  12.198  67.774  1.00  0.00    -0.164 A  
HETATM   10  C   UNL     1      -7.387  12.180  67.147  1.00  0.00    -0.124 A  
HETATM   11  C   UNL     1      -6.320  11.425  67.661  1.00  0.00    -0.062 A  
HETATM   12  C   UNL     1      -6.500  10.604  68.767  1.00  0.00    -0.051 A  
HETATM   13  C   UNL     1      -7.744  10.551  69.374  1.00  0.00    -0.157 A  
HETATM   14  C   UNL     1      -8.783  11.358  68.900  1.00  0.00    -0.012 A  
ENDBRANCH   8   9
BRANCH   8  15
HETATM   15  C   UNL     1     -10.532  13.876  68.563  1.00  0.00    -0.253 A  
HETATM   16  C   UNL     1      -9.948  14.978  69.220  1.00  0.00    -0.218 A  
HETATM   17  C   UNL     1     -10.622  15.677  70.237  1.00  0.00    -0.329 A  
HETATM   18  C   UNL     1     -11.907  15.301  70.631  1.00  0.00    -0.376 A  
HETATM   19  C   UNL     1     -11.822  13.514  69.021  1.00  0.00    -0.385 A  
HETATM   20  C   UNL     1     -12.502  14.209  70.025  1.00  0.00    -0.352 A  
ENDBRANCH   8  15
BRANCH   8  21
HETATM   21  C   UNL     1      -9.319  14.206  66.272  1.00  0.00    -0.215 C  
BRANCH  21  22
HETATM   22  C   UNL     1      -9.833  15.676  66.054  1.00  0.00    -0.333 C  
HETATM   23  C   UNL     1     -10.843  15.758  64.895  1.00  0.00    -0.433 C  
BRANCH  22  24
HETATM   24  N   UNL     1      -8.811  16.746  66.001  1.00  0.00    -0.502 NA 
HETATM   25  C   UNL     1      -9.308  18.069  66.402  1.00  0.00    -0.255 C  
HETATM   26  C   UNL     1      -7.619  16.461  66.822  1.00  0.00    -0.255 C  
ENDBRANCH  22  24
ENDBRANCH  21  22
ENDBRANCH   8  21
ENDBRANCH   3   8
ENDBRANCH   2   3
TORSDOF 9
ENDMDL
MODEL       61
REMARK 921   NORMALIZED FREE ENERGY PREDICTED BY IDOCK:   -4.71 KCAL/MOL
REMARK 922        TOTAL FREE ENERGY PREDICTED BY IDOCK:   -8.88 KCAL/MOL
REMARK 923 INTER-LIGAND FREE ENERGY PREDICTED BY IDOCK:   -7.37 KCAL/MOL
REMARK 924 INTRA-LIGAND FREE ENERGY PREDICTED BY IDOCK:   -1.50 KCAL/MOL
REMARK 927      BINDING AFFINITY PREDICTED BY RF-SCORE:    0.00 PKD
ROOT
HETATM    1  C   UNL     1     -11.307  15.598  64.607  1.00  0.00    -0.355 C  
HETATM    2  C   UNL     1     -11.532  15.052  66.012  1.00  0.00    -0.221 C  
ENDROOT
BRANCH   2   3
HETATM    3  C   UNL     1     -10.709  13.775  66.281  1.00  0.00    -0.285 C  
BRANCH   3   4
HETATM    4  O   UNL     1     -11.638  12.648  66.240  1.00  0.00    -0.343 OA 
BRANCH   4   5
HETATM    5  C   UNL     1     -12.155  12.270  65.042  1.00  0.00    -0.327 C  
HETATM    6  C   UNL     1     -11.072  11.652  64.195  1.00  0.00    -0.435 C  
HETATM    7  O   UNL     1     -13.297  12.478  64.659  1.00  0.00    -0.804 OA 
ENDBRANCH   4   5
ENDBRANCH   3   4
BRANCH   3   8
HETATM    8  C   UNL     1      -9.919  13.780  67.686  1.00  0.00    -0.238 C  
BRANCH   8   9
HETATM    9  C   UNL     1      -8.690  12.814  67.547  1.00  0.00    -0.185 A  
HETATM   10  C   UNL     1      -8.561  11.833  66.548  1.00  0.00    -0.148 A  
HETATM   11  C   UNL     1      -7.389  11.072  66.412  1.00  0.00    -0.128 A  
HETATM   12  C   UNL     1      -6.344  11.210  67.318  1.00  0.00    -0.074 A  
HETATM   13  C   UNL     1      -6.463  12.124  68.351  1.00  0.00    -0.056 A  
HETATM   14  C   UNL     1      -7.602  12.929  68.440  1.00  0.00    -0.133 A  
ENDBRANCH   8   9
BRANCH   8  15
HETATM   15  C   UNL     1     -10.971  13.286  68.800  1.00  0.00    -0.294 A  
HETATM   16  C   UNL     1     -11.204  11.931  69.109  1.00  0.00    -0.314 A  
HETATM   17  C   UNL     1     -12.068  11.547  70.151  1.00  0.00    -0.432 A  
HETATM   18  C   UNL     1     -12.725  12.504  70.924  1.00  0.00    -0.270 A  
HETATM   19  C   UNL     1     -11.687  14.219  69.591  1.00  0.00    -0.362 A  
HETATM   20  C   UNL     1     -12.539  13.844  70.633  1.00  0.00    -0.405 A  
ENDBRANCH   8  15
BRANCH   8  21
HETATM   21  C   UNL     1      -9.400  15.250  68.094  1.00  0.00    -0.198 C  
BRANCH  21  22
HETATM   22  C   UNL     1      -8.885  16.403  67.155  1.00  0.00    -0.195 C  
HETATM   23  C   UNL     1      -7.426  16.172  66.721  1.00  0.00    -0.246 C  
BRANCH  22  24
HETATM   24  N   UNL     1      -9.141  17.794  67.594  1.00  0.00    -0.244 NA 
HETATM   25  C   UNL     1     -10.247  17.925  68.552  1.00  0.00    -0.390 C  
HETATM   26  C   UNL     1      -7.962  18.444  68.197  1.00  0.00    -0.288 C  
ENDBRANCH  22  24
ENDBRANCH  21  22
ENDBRANCH   8  21
ENDBRANCH   3   8
ENDBRANCH   2   3
TORSDOF 9
ENDMDL
MODEL       62
REMARK 921   NORMALIZED FREE ENERGY PREDICTED BY IDOCK:   -4.70 KCAL/MOL
REMARK 922        TOTAL FREE ENERGY PREDICTED BY IDOCK:   -8.85 KCAL/MOL
REMARK 923 INTER-LIGAND FREE ENERGY PREDICTED BY IDOCK:   -8.24 KCAL/MOL
REMARK 924 INTRA-LIGAND FREE ENERGY PREDICTED BY IDOCK:   -0.61 KCAL/MOL
REMARK 927      BINDING AFFINITY PREDICTED BY RF-SCORE:    0.00 PKD
ROOT
HETATM    1  C   UNL     1     -12.742  14.783  70.752  1.00  0.00    -0.422 C  
HETATM    2  C   UNL     1     -12.173  15.111  69.376  1.00  0.00    -0.237 C  
ENDROOT
BRANCH   2   3
HETATM    3  C   UNL     1     -11.835  13.843  68.566  1.00  0.00    -0.366 C  
BRANCH   3   4
HETATM    4  O   UNL     1     -11.479  12.801  69.527  1.00  0.00    -0.267 OA 
BRANCH   4   5
HETATM    5  C   UNL     1     -12.058  11.577  69.409  1.00  0.00    -0.279 C  
HETATM    6  C   UNL     1     -12.430  11.058  70.773  1.00  0.00    -0.491 C  
HETATM    7  O   UNL     1     -12.180  10.943  68.371  1.00  0.00    -0.540 OA 
ENDBRANCH   4   5
ENDBRANCH   3   4
BRANCH   3   8
HETATM    8  C   UNL     1     -10.639  14.036  67.503  1.00  0.00    -0.260 C  
BRANCH   8   9
HETATM    9  C   UNL     1     -10.484  15.573  67.230  1.00  0.00    -0.279 A  
HETATM   10  C   UNL     1     -10.402  16.147  65.950  1.00  0.00    -0.384 A  
HETATM   11  C   UNL     1     -10.373  17.539  65.769  1.00  0.00    -0.217 A  
HETATM   12  C   UNL     1     -10.343  18.397  66.862  1.00  0.00    -0.417 A  
HETATM   13  C   UNL     1     -10.361  17.863  68.139  1.00  0.00    -0.395 A  
HETATM   14  C   UNL     1     -10.461  16.479  68.313  1.00  0.00    -0.313 A  
ENDBRANCH   8   9
BRANCH   8  15
HETATM   15  C   UNL     1     -11.065  13.213  66.186  1.00  0.00    -0.301 A  
HETATM   16  C   UNL     1     -12.371  13.208  65.656  1.00  0.00    -0.519 A  
HETATM   17  C   UNL     1     -12.680  12.547  64.453  1.00  0.00    -0.447 A  
HETATM   18  C   UNL     1     -11.692  11.872  63.736  1.00  0.00    -0.554 A  
HETATM   19  C   UNL     1     -10.106  12.487  65.439  1.00  0.00    -0.284 A  
HETATM   20  C   UNL     1     -10.404  11.836  64.238  1.00  0.00    -0.359 A  
ENDBRANCH   8  15
BRANCH   8  21
HETATM   21  C   UNL     1      -9.239  13.444  68.040  1.00  0.00    -0.209 C  
BRANCH  21  22
HETATM   22  C   UNL     1      -7.779  13.898  67.674  1.00  0.00    -0.184 C  
HETATM   23  C   UNL     1      -6.863  12.694  67.391  1.00  0.00    -0.141 C  
BRANCH  22  24
HETATM   24  N   UNL     1      -7.146  14.906  68.555  1.00  0.00    -0.103 NA 
HETATM   25  C   UNL     1      -6.129  14.354  69.461  1.00  0.00    -0.114 C  
HETATM   26  C   UNL     1      -6.516  16.018  67.817  1.00  0.00    -0.157 C  
ENDBRANCH  22  24
ENDBRANCH  21  22
ENDBRANCH   8  21
ENDBRANCH   3   8
ENDBRANCH   2   3
TORSDOF 9
ENDMDL
MODEL       63
REMARK 921   NORMALIZED FREE ENERGY PREDICTED BY IDOCK:   -4.69 KCAL/MOL
REMARK 922        TOTAL FREE ENERGY PREDICTED BY IDOCK:   -8.84 KCAL/MOL
REMARK 923 INTER-LIGAND FREE ENERGY PREDICTED BY IDOCK:   -7.17 KCAL/MOL
REMARK 924 INTRA-LIGAND FREE ENERGY PREDICTED BY IDOCK:   -1.67 KCAL/MOL
REMARK 927      BINDING AFFINITY PREDICTED BY RF-SCORE:    0.00 PKD
ROOT
HETATM    1  C   UNL     1     -12.833  11.792  71.250  1.00  0.00    -0.409 C  
HETATM    2  C   UNL     1     -12.533  10.600  70.347  1.00  0.00    -0.421 C  
ENDROOT
BRANCH   2   3
HETATM    3  C   UNL     1     -11.352  10.873  69.393  1.00  0.00    -0.280 C  
BRANCH   3   4
HETATM    4  O   UNL     1     -11.922  11.254  68.102  1.00  0.00    -0.610 OA 
BRANCH   4   5
HETATM    5  C   UNL     1     -11.704  12.512  67.638  1.00  0.00    -0.361 C  
HETATM    6  C   UNL     1     -11.318  12.455  66.182  1.00  0.00    -0.398 C  
HETATM    7  O   UNL     1     -11.721  13.535  68.308  1.00  0.00    -0.318 OA 
ENDBRANCH   4   5
ENDBRANCH   3   4
BRANCH   3   8
HETATM    8  C   UNL     1     -10.354   9.622  69.199  1.00  0.00    -0.219 C  
BRANCH   8   9
HETATM    9  C   UNL     1     -10.630   8.606  70.362  1.00  0.00    -0.244 A  
HETATM   10  C   UNL     1     -10.397   8.874  71.723  1.00  0.00    -0.426 A  
HETATM   11  C   UNL     1     -10.766   7.963  72.726  1.00  0.00    -0.435 A  
HETATM   12  C   UNL     1     -11.302   6.724  72.396  1.00  0.00    -0.306 A  
HETATM   13  C   UNL     1     -11.488   6.402  71.062  1.00  0.00    -0.394 A  
HETATM   14  C   UNL     1     -11.185   7.340  70.072  1.00  0.00    -0.234 A  
ENDBRANCH   8   9
BRANCH   8  15
HETATM   15  C   UNL     1      -8.861  10.222  69.243  1.00  0.00    -0.186 A  
HETATM   16  C   UNL     1      -8.482  11.424  68.613  1.00  0.00    -0.131 A  
HETATM   17  C   UNL     1      -7.187  11.957  68.751  1.00  0.00    -0.112 A  
HETATM   18  C   UNL     1      -6.227  11.309  69.527  1.00  0.00    -0.099 A  
HETATM   19  C   UNL     1      -7.841   9.584  69.993  1.00  0.00    -0.157 A  
HETATM   20  C   UNL     1      -6.556  10.113  70.141  1.00  0.00    -0.128 A  
ENDBRANCH   8  15
BRANCH   8  21
HETATM   21  C   UNL     1     -10.563   8.883  67.782  1.00  0.00    -0.266 C  
BRANCH  21  22
HETATM   22  C   UNL     1      -9.472   8.431  66.744  1.00  0.00    -0.197 C  
HETATM   23  C   UNL     1      -9.369   9.414  65.563  1.00  0.00    -0.315 C  
BRANCH  22  24
HETATM   24  N   UNL     1      -9.499   7.015  66.310  1.00  0.00    -0.123 NA 
HETATM   25  C   UNL     1      -8.312   6.245  66.708  1.00  0.00    -0.110 C  
HETATM   26  C   UNL     1     -10.681   6.276  66.795  1.00  0.00    -0.293 C  
ENDBRANCH  22  24
ENDBRANCH  21  22
ENDBRANCH   8  21
ENDBRANCH   3   8
ENDBRANCH   2   3
TORSDOF 9
ENDMDL
MODEL       64
REMARK 921   NORMALIZED FREE ENERGY PREDICTED BY IDOCK:   -4.69 KCAL/MOL
REMARK 922        TOTAL FREE ENERGY PREDICTED BY IDOCK:   -8.84 KCAL/MOL
REMARK 923 INTER-LIGAND FREE ENERGY PREDICTED BY IDOCK:   -7.52 KCAL/MOL
REMARK 924 INTRA-LIGAND FREE ENERGY PREDICTED BY IDOCK:   -1.32 KCAL/MOL
REMARK 927      BINDING AFFINITY PREDICTED BY RF-SCORE:    0.00 PKD
ROOT
HETATM    1  C   UNL     1     -11.779  15.639  69.373  1.00  0.00    -0.395 C  
HETATM    2  C   UNL     1     -10.529  14.792  69.164  1.00  0.00    -0.243 C  
ENDROOT
BRANCH   2   3
HETATM    3  C   UNL     1     -10.791  13.582  68.244  1.00  0.00    -0.259 C  
BRANCH   3   4
HETATM    4  O   UNL     1     -10.668  12.381  69.068  1.00  0.00    -0.192 OA 
BRANCH   4   5
HETATM    5  C   UNL     1     -11.693  11.488  69.078  1.00  0.00    -0.335 C  
HETATM    6  C   UNL     1     -12.188  11.301  70.489  1.00  0.00    -0.474 C  
HETATM    7  O   UNL     1     -12.099  10.856  68.114  1.00  0.00    -0.563 OA 
ENDBRANCH   4   5
ENDBRANCH   3   4
BRANCH   3   8
HETATM    8  C   UNL     1      -9.793  13.481  66.982  1.00  0.00    -0.251 C  
BRANCH   8   9
HETATM    9  C   UNL     1      -9.052  14.857  66.847  1.00  0.00    -0.271 A  
HETATM   10  C   UNL     1      -7.735  15.095  67.277  1.00  0.00    -0.241 A  
HETATM   11  C   UNL     1      -7.090  16.318  67.030  1.00  0.00    -0.259 A  
HETATM   12  C   UNL     1      -7.768  17.367  66.421  1.00  0.00    -0.343 A  
HETATM   13  C   UNL     1      -9.086  17.188  66.038  1.00  0.00    -0.140 A  
HETATM   14  C   UNL     1      -9.700  15.946  66.223  1.00  0.00    -0.332 A  
ENDBRANCH   8   9
BRANCH   8  15
HETATM   15  C   UNL     1     -10.712  13.145  65.702  1.00  0.00    -0.294 A  
HETATM   16  C   UNL     1     -10.213  12.599  64.503  1.00  0.00    -0.331 A  
HETATM   17  C   UNL     1     -11.063  12.239  63.442  1.00  0.00    -0.487 A  
HETATM   18  C   UNL     1     -12.444  12.407  63.545  1.00  0.00    -0.605 A  
HETATM   19  C   UNL     1     -12.116  13.327  65.746  1.00  0.00    -0.491 A  
HETATM   20  C   UNL     1     -12.968  12.962  64.699  1.00  0.00    -0.204 A  
ENDBRANCH   8  15
BRANCH   8  21
HETATM   21  C   UNL     1      -8.707  12.302  67.150  1.00  0.00    -0.193 C  
BRANCH  21  22
HETATM   22  C   UNL     1      -7.322  12.346  67.894  1.00  0.00    -0.112 C  
HETATM   23  C   UNL     1      -6.180  11.830  66.999  1.00  0.00    -0.152 C  
BRANCH  22  24
HETATM   24  N   UNL     1      -7.275  11.785  69.264  1.00  0.00    -0.046 NA 
HETATM   25  C   UNL     1      -7.844  10.435  69.377  1.00  0.00    -0.161 C  
HETATM   26  C   UNL     1      -5.915  11.734  69.831  1.00  0.00    -0.146 C  
ENDBRANCH  22  24
ENDBRANCH  21  22
ENDBRANCH   8  21
ENDBRANCH   3   8
ENDBRANCH   2   3
TORSDOF 9
ENDMDL
MODEL       65
REMARK 921   NORMALIZED FREE ENERGY PREDICTED BY IDOCK:   -4.68 KCAL/MOL
REMARK 922        TOTAL FREE ENERGY PREDICTED BY IDOCK:   -8.83 KCAL/MOL
REMARK 923 INTER-LIGAND FREE ENERGY PREDICTED BY IDOCK:   -7.24 KCAL/MOL
REMARK 924 INTRA-LIGAND FREE ENERGY PREDICTED BY IDOCK:   -1.59 KCAL/MOL
REMARK 927      BINDING AFFINITY PREDICTED BY RF-SCORE:    0.00 PKD
ROOT
HETATM    1  C   UNL     1     -10.225   4.897  70.175  1.00  0.00    -0.310 C  
HETATM    2  C   UNL     1      -9.405   6.178  70.069  1.00  0.00    -0.166 C  
ENDROOT
BRANCH   2   3
HETATM    3  C   UNL     1     -10.180   7.310  69.363  1.00  0.00    -0.192 C  
BRANCH   3   4
HETATM    4  O   UNL     1      -9.482   7.592  68.110  1.00  0.00    -0.144 OA 
BRANCH   4   5
HETATM    5  C   UNL     1      -9.854   6.921  66.989  1.00  0.00    -0.174 C  
HETATM    6  C   UNL     1      -8.695   6.856  66.029  1.00  0.00    -0.151 C  
HETATM    7  O   UNL     1     -10.978   6.508  66.744  1.00  0.00    -0.354 OA 
ENDBRANCH   4   5
ENDBRANCH   3   4
BRANCH   3   8
HETATM    8  C   UNL     1     -10.312   8.662  70.230  1.00  0.00    -0.217 C  
BRANCH   8   9
HETATM    9  C   UNL     1      -9.156   8.665  71.291  1.00  0.00    -0.272 A  
HETATM   10  C   UNL     1      -9.308   8.270  72.631  1.00  0.00    -0.350 A  
HETATM   11  C   UNL     1      -8.211   8.192  73.504  1.00  0.00    -0.276 A  
HETATM   12  C   UNL     1      -6.945   8.585  73.089  1.00  0.00    -0.058 A  
HETATM   13  C   UNL     1      -6.770   9.038  71.792  1.00  0.00    -0.003 A  
HETATM   14  C   UNL     1      -7.852   9.046  70.907  1.00  0.00    -0.172 A  
ENDBRANCH   8   9
BRANCH   8  15
HETATM   15  C   UNL     1     -11.773   8.626  70.907  1.00  0.00    -0.287 A  
HETATM   16  C   UNL     1     -12.566   7.464  70.995  1.00  0.00    -0.264 A  
HETATM   17  C   UNL     1     -13.798   7.458  71.673  1.00  0.00    -0.490 A  
HETATM   18  C   UNL     1     -14.279   8.612  72.291  1.00  0.00    -0.497 A  
HETATM   19  C   UNL     1     -12.320   9.780  71.521  1.00  0.00    -0.495 A  
HETATM   20  C   UNL     1     -13.539   9.778  72.204  1.00  0.00    -0.432 A  
ENDBRANCH   8  15
BRANCH   8  21
HETATM   21  C   UNL     1     -10.207   9.988  69.320  1.00  0.00    -0.229 C  
BRANCH  21  22
HETATM   22  C   UNL     1     -11.053  10.375  68.052  1.00  0.00    -0.298 C  
HETATM   23  C   UNL     1     -10.171  10.494  66.795  1.00  0.00    -0.288 C  
BRANCH  22  24
HETATM   24  N   UNL     1     -12.004  11.501  68.194  1.00  0.00    -0.610 NA 
HETATM   25  C   UNL     1     -11.783  12.323  69.391  1.00  0.00    -0.330 C  
HETATM   26  C   UNL     1     -12.012  12.412  67.034  1.00  0.00    -0.186 C  
ENDBRANCH  22  24
ENDBRANCH  21  22
ENDBRANCH   8  21
ENDBRANCH   3   8
ENDBRANCH   2   3
TORSDOF 9
ENDMDL
MODEL       66
REMARK 921   NORMALIZED FREE ENERGY PREDICTED BY IDOCK:   -4.66 KCAL/MOL
REMARK 922        TOTAL FREE ENERGY PREDICTED BY IDOCK:   -8.81 KCAL/MOL
REMARK 923 INTER-LIGAND FREE ENERGY PREDICTED BY IDOCK:   -7.09 KCAL/MOL
REMARK 924 INTRA-LIGAND FREE ENERGY PREDICTED BY IDOCK:   -1.71 KCAL/MOL
REMARK 927      BINDING AFFINITY PREDICTED BY RF-SCORE:    0.00 PKD
ROOT
HETATM    1  C   UNL     1      -7.301   7.244  67.284  1.00  0.00    -0.098 C  
HETATM    2  C   UNL     1      -8.310   8.379  67.149  1.00  0.00    -0.122 C  
ENDROOT
BRANCH   2   3
HETATM    3  C   UNL     1      -9.311   8.414  68.322  1.00  0.00    -0.134 C  
BRANCH   3   4
HETATM    4  O   UNL     1     -10.614   8.024  67.787  1.00  0.00    -0.223 OA 
BRANCH   4   5
HETATM    5  C   UNL     1     -10.918   6.702  67.704  1.00  0.00    -0.309 C  
HETATM    6  C   UNL     1     -11.062   6.127  69.089  1.00  0.00    -0.448 C  
HETATM    7  O   UNL     1     -10.976   6.046  66.674  1.00  0.00    -0.293 OA 
ENDBRANCH   4   5
ENDBRANCH   3   4
BRANCH   3   8
HETATM    8  C   UNL     1      -9.428   9.846  69.051  1.00  0.00    -0.185 C  
BRANCH   8   9
HETATM    9  C   UNL     1      -8.020  10.195  69.649  1.00  0.00    -0.181 A  
HETATM   10  C   UNL     1      -7.318   9.380  70.555  1.00  0.00    -0.138 A  
HETATM   11  C   UNL     1      -6.015   9.695  70.970  1.00  0.00    -0.080 A  
HETATM   12  C   UNL     1      -5.404  10.873  70.558  1.00  0.00    -0.092 A  
HETATM   13  C   UNL     1      -6.090  11.730  69.714  1.00  0.00    -0.136 A  
HETATM   14  C   UNL     1      -7.360  11.377  69.248  1.00  0.00    -0.042 A  
ENDBRANCH   8   9
BRANCH   8  15
HETATM   15  C   UNL     1     -10.559   9.687  70.186  1.00  0.00    -0.320 A  
HETATM   16  C   UNL     1     -11.766  10.417  70.195  1.00  0.00    -0.394 A  
HETATM   17  C   UNL     1     -12.766  10.183  71.156  1.00  0.00    -0.494 A  
HETATM   18  C   UNL     1     -12.597   9.209  72.139  1.00  0.00    -0.451 A  
HETATM   19  C   UNL     1     -10.422   8.733  71.224  1.00  0.00    -0.326 A  
HETATM   20  C   UNL     1     -11.415   8.490  72.176  1.00  0.00    -0.446 A  
ENDBRANCH   8  15
BRANCH   8  21
HETATM   21  C   UNL     1      -9.884  11.015  68.039  1.00  0.00    -0.183 C  
BRANCH  21  22
HETATM   22  C   UNL     1     -10.888  10.928  66.832  1.00  0.00    -0.249 C  
HETATM   23  C   UNL     1     -10.155  10.677  65.501  1.00  0.00    -0.343 C  
BRANCH  22  24
HETATM   24  N   UNL     1     -11.914  11.991  66.730  1.00  0.00    -0.610 NA 
HETATM   25  C   UNL     1     -11.793  13.038  67.753  1.00  0.00    -0.347 C  
HETATM   26  C   UNL     1     -11.933  12.664  65.417  1.00  0.00    -0.446 C  
ENDBRANCH  22  24
ENDBRANCH  21  22
ENDBRANCH   8  21
ENDBRANCH   3   8
ENDBRANCH   2   3
TORSDOF 9
ENDMDL
MODEL       67
REMARK 921   NORMALIZED FREE ENERGY PREDICTED BY IDOCK:   -4.65 KCAL/MOL
REMARK 922        TOTAL FREE ENERGY PREDICTED BY IDOCK:   -8.79 KCAL/MOL
REMARK 923 INTER-LIGAND FREE ENERGY PREDICTED BY IDOCK:   -7.11 KCAL/MOL
REMARK 924 INTRA-LIGAND FREE ENERGY PREDICTED BY IDOCK:   -1.68 KCAL/MOL
REMARK 927      BINDING AFFINITY PREDICTED BY RF-SCORE:    0.00 PKD
ROOT
HETATM    1  C   UNL     1      -6.772  11.483  67.801  1.00  0.00    -0.072 C  
HETATM    2  C   UNL     1      -8.041  11.878  68.549  1.00  0.00    -0.130 C  
ENDROOT
BRANCH   2   3
HETATM    3  C   UNL     1      -8.881  12.909  67.769  1.00  0.00    -0.188 C  
BRANCH   3   4
HETATM    4  O   UNL     1      -8.873  14.148  68.546  1.00  0.00    -0.187 OA 
BRANCH   4   5
HETATM    5  C   UNL     1      -7.710  14.841  68.656  1.00  0.00    -0.130 C  
HETATM    6  C   UNL     1      -7.342  15.431  67.319  1.00  0.00    -0.239 C  
HETATM    7  O   UNL     1      -7.010  14.908  69.656  1.00  0.00    -0.165 OA 
ENDBRANCH   4   5
ENDBRANCH   3   4
BRANCH   3   8
HETATM    8  C   UNL     1     -10.401  12.451  67.491  1.00  0.00    -0.223 C  
BRANCH   8   9
HETATM    9  C   UNL     1     -10.988  13.388  66.378  1.00  0.00    -0.297 A  
HETATM   10  C   UNL     1     -10.253  14.382  65.708  1.00  0.00    -0.355 A  
HETATM   11  C   UNL     1     -10.805  15.115  64.646  1.00  0.00    -0.285 A  
HETATM   12  C   UNL     1     -12.132  14.937  64.275  1.00  0.00    -0.373 A  
HETATM   13  C   UNL     1     -12.904  14.009  64.955  1.00  0.00    -0.210 A  
HETATM   14  C   UNL     1     -12.329  13.232  65.964  1.00  0.00    -0.449 A  
ENDBRANCH   8   9
BRANCH   8  15
HETATM   15  C   UNL     1     -11.181  12.592  68.893  1.00  0.00    -0.330 A  
HETATM   16  C   UNL     1     -11.665  13.815  69.399  1.00  0.00    -0.379 A  
HETATM   17  C   UNL     1     -12.418  13.880  70.586  1.00  0.00    -0.436 A  
HETATM   18  C   UNL     1     -12.719  12.723  71.304  1.00  0.00    -0.364 A  
HETATM   19  C   UNL     1     -11.485  11.451  69.676  1.00  0.00    -0.380 A  
HETATM   20  C   UNL     1     -12.241  11.507  70.850  1.00  0.00    -0.425 A  
ENDBRANCH   8  15
BRANCH   8  21
HETATM   21  C   UNL     1     -10.501  10.917  67.007  1.00  0.00    -0.291 C  
BRANCH  21  22
HETATM   22  C   UNL     1      -9.643  10.176  65.916  1.00  0.00    -0.218 C  
HETATM   23  C   UNL     1      -9.973  10.676  64.498  1.00  0.00    -0.410 C  
BRANCH  22  24
HETATM   24  N   UNL     1      -9.573   8.700  66.002  1.00  0.00    -0.226 NA 
HETATM   25  C   UNL     1      -8.256   8.143  65.662  1.00  0.00    -0.133 C  
HETATM   26  C   UNL     1      -9.940   8.171  67.330  1.00  0.00    -0.218 C  
ENDBRANCH  22  24
ENDBRANCH  21  22
ENDBRANCH   8  21
ENDBRANCH   3   8
ENDBRANCH   2   3
TORSDOF 9
ENDMDL
MODEL       68
REMARK 921   NORMALIZED FREE ENERGY PREDICTED BY IDOCK:   -4.64 KCAL/MOL
REMARK 922        TOTAL FREE ENERGY PREDICTED BY IDOCK:   -8.77 KCAL/MOL
REMARK 923 INTER-LIGAND FREE ENERGY PREDICTED BY IDOCK:   -7.82 KCAL/MOL
REMARK 924 INTRA-LIGAND FREE ENERGY PREDICTED BY IDOCK:   -0.95 KCAL/MOL
REMARK 927      BINDING AFFINITY PREDICTED BY RF-SCORE:    0.00 PKD
ROOT
HETATM    1  C   UNL     1     -12.107  12.480  64.056  1.00  0.00    -0.557 C  
HETATM    2  C   UNL     1     -12.514  12.900  65.464  1.00  0.00    -0.462 C  
ENDROOT
BRANCH   2   3
HETATM    3  C   UNL     1     -11.589  13.994  66.036  1.00  0.00    -0.357 C  
BRANCH   3   4
HETATM    4  O   UNL     1     -10.960  14.663  64.899  1.00  0.00    -0.374 OA 
BRANCH   4   5
HETATM    5  C   UNL     1     -11.459  15.858  64.487  1.00  0.00    -0.283 C  
HETATM    6  C   UNL     1     -10.737  16.979  65.190  1.00  0.00    -0.066 C  
HETATM    7  O   UNL     1     -12.409  16.014  63.734  1.00  0.00    -0.858 OA 
ENDBRANCH   4   5
ENDBRANCH   3   4
BRANCH   3   8
HETATM    8  C   UNL     1     -10.454  13.443  67.040  1.00  0.00    -0.257 C  
BRANCH   8   9
HETATM    9  C   UNL     1     -11.178  12.736  68.238  1.00  0.00    -0.308 A  
HETATM   10  C   UNL     1     -11.407  11.351  68.321  1.00  0.00    -0.354 A  
HETATM   11  C   UNL     1     -11.964  10.765  69.470  1.00  0.00    -0.364 A  
HETATM   12  C   UNL     1     -12.385  11.552  70.535  1.00  0.00    -0.432 A  
HETATM   13  C   UNL     1     -12.231  12.926  70.461  1.00  0.00    -0.395 A  
HETATM   14  C   UNL     1     -11.611  13.497  69.346  1.00  0.00    -0.369 A  
ENDBRANCH   8   9
BRANCH   8  15
HETATM   15  C   UNL     1      -9.598  14.725  67.505  1.00  0.00    -0.208 A  
HETATM   16  C   UNL     1     -10.090  15.722  68.372  1.00  0.00    -0.222 A  
HETATM   17  C   UNL     1      -9.279  16.779  68.822  1.00  0.00    -0.260 A  
HETATM   18  C   UNL     1      -7.945  16.874  68.426  1.00  0.00    -0.232 A  
HETATM   19  C   UNL     1      -8.248  14.884  67.105  1.00  0.00    -0.244 A  
HETATM   20  C   UNL     1      -7.434  15.927  67.556  1.00  0.00    -0.194 A  
ENDBRANCH   8  15
BRANCH   8  21
HETATM   21  C   UNL     1      -9.456  12.399  66.325  1.00  0.00    -0.220 C  
BRANCH  21  22
HETATM   22  C   UNL     1      -8.790  11.109  66.931  1.00  0.00    -0.157 C  
HETATM   23  C   UNL     1      -7.522  11.449  67.736  1.00  0.00    -0.100 C  
BRANCH  22  24
HETATM   24  N   UNL     1      -8.600   9.957  66.020  1.00  0.00    -0.134 NA 
HETATM   25  C   UNL     1      -9.585   9.887  64.932  1.00  0.00    -0.288 C  
HETATM   26  C   UNL     1      -7.262   9.913  65.402  1.00  0.00    -0.125 C  
ENDBRANCH  22  24
ENDBRANCH  21  22
ENDBRANCH   8  21
ENDBRANCH   3   8
ENDBRANCH   2   3
TORSDOF 9
ENDMDL
MODEL       69
REMARK 921   NORMALIZED FREE ENERGY PREDICTED BY IDOCK:   -4.61 KCAL/MOL
REMARK 922        TOTAL FREE ENERGY PREDICTED BY IDOCK:   -8.73 KCAL/MOL
REMARK 923 INTER-LIGAND FREE ENERGY PREDICTED BY IDOCK:   -7.76 KCAL/MOL
REMARK 924 INTRA-LIGAND FREE ENERGY PREDICTED BY IDOCK:   -0.97 KCAL/MOL
REMARK 927      BINDING AFFINITY PREDICTED BY RF-SCORE:    0.00 PKD
ROOT
HETATM    1  C   UNL     1     -10.034  10.523  64.447  1.00  0.00    -0.410 C  
HETATM    2  C   UNL     1     -10.141  11.856  65.179  1.00  0.00    -0.293 C  
ENDROOT
BRANCH   2   3
HETATM    3  C   UNL     1     -10.962  11.742  66.481  1.00  0.00    -0.295 C  
BRANCH   3   4
HETATM    4  O   UNL     1     -12.061  12.701  66.381  1.00  0.00    -0.530 OA 
BRANCH   4   5
HETATM    5  C   UNL     1     -12.610  12.941  65.161  1.00  0.00    -0.471 C  
HETATM    6  C   UNL     1     -12.395  14.384  64.784  1.00  0.00    -0.427 C  
HETATM    7  O   UNL     1     -13.261  12.144  64.502  1.00  0.00    -0.724 OA 
ENDBRANCH   4   5
ENDBRANCH   3   4
BRANCH   3   8
HETATM    8  C   UNL     1     -10.115  12.022  67.823  1.00  0.00    -0.199 C  
BRANCH   8   9
HETATM    9  C   UNL     1     -11.135  12.312  68.980  1.00  0.00    -0.289 A  
HETATM   10  C   UNL     1     -11.702  11.324  69.804  1.00  0.00    -0.422 A  
HETATM   11  C   UNL     1     -12.525  11.657  70.892  1.00  0.00    -0.440 A  
HETATM   12  C   UNL     1     -12.873  12.980  71.139  1.00  0.00    -0.331 A  
HETATM   13  C   UNL     1     -12.382  13.974  70.310  1.00  0.00    -0.425 A  
HETATM   14  C   UNL     1     -11.507  13.642  69.272  1.00  0.00    -0.344 A  
ENDBRANCH   8   9
BRANCH   8  15
HETATM   15  C   UNL     1      -9.165  13.282  67.507  1.00  0.00    -0.213 A  
HETATM   16  C   UNL     1      -9.627  14.489  66.945  1.00  0.00    -0.258 A  
HETATM   17  C   UNL     1      -8.779  15.597  66.767  1.00  0.00    -0.306 A  
HETATM   18  C   UNL     1      -7.439  15.539  67.149  1.00  0.00    -0.244 A  
HETATM   19  C   UNL     1      -7.790  13.262  67.848  1.00  0.00    -0.152 A  
HETATM   20  C   UNL     1      -6.943  14.362  67.682  1.00  0.00    -0.203 A  
ENDBRANCH   8  15
BRANCH   8  21
HETATM   21  C   UNL     1      -9.182  10.773  68.233  1.00  0.00    -0.157 C  
BRANCH  21  22
HETATM   22  C   UNL     1      -9.221   9.300  67.683  1.00  0.00    -0.124 C  
HETATM   23  C   UNL     1     -10.255   8.440  68.434  1.00  0.00    -0.239 C  
BRANCH  22  24
HETATM   24  N   UNL     1      -7.922   8.612  67.507  1.00  0.00    -0.105 NA 
HETATM   25  C   UNL     1      -7.813   7.851  66.254  1.00  0.00    -0.094 C  
HETATM   26  C   UNL     1      -6.763   9.522  67.567  1.00  0.00    -0.067 C  
ENDBRANCH  22  24
ENDBRANCH  21  22
ENDBRANCH   8  21
ENDBRANCH   3   8
ENDBRANCH   2   3
TORSDOF 9
ENDMDL
MODEL       70
REMARK 921   NORMALIZED FREE ENERGY PREDICTED BY IDOCK:   -4.61 KCAL/MOL
REMARK 922        TOTAL FREE ENERGY PREDICTED BY IDOCK:   -8.72 KCAL/MOL
REMARK 923 INTER-LIGAND FREE ENERGY PREDICTED BY IDOCK:   -7.87 KCAL/MOL
REMARK 924 INTRA-LIGAND FREE ENERGY PREDICTED BY IDOCK:   -0.85 KCAL/MOL
REMARK 927      BINDING AFFINITY PREDICTED BY RF-SCORE:    0.00 PKD
ROOT
HETATM    1  C   UNL     1     -11.119  15.115  67.830  1.00  0.00    -0.322 C  
HETATM    2  C   UNL     1     -11.627  13.718  68.171  1.00  0.00    -0.370 C  
ENDROOT
BRANCH   2   3
HETATM    3  C   UNL     1     -11.128  12.656  67.170  1.00  0.00    -0.280 C  
BRANCH   3   4
HETATM    4  O   UNL     1     -12.285  12.227  66.386  1.00  0.00    -0.613 OA 
BRANCH   4   5
HETATM    5  C   UNL     1     -12.619  12.934  65.274  1.00  0.00    -0.439 C  
HETATM    6  C   UNL     1     -12.036  12.268  64.055  1.00  0.00    -0.563 C  
HETATM    7  O   UNL     1     -13.219  13.999  65.259  1.00  0.00    -0.782 OA 
ENDBRANCH   4   5
ENDBRANCH   3   4
BRANCH   3   8
HETATM    8  C   UNL     1     -10.431  11.375  67.856  1.00  0.00    -0.212 C  
BRANCH   8   9
HETATM    9  C   UNL     1     -11.196  11.073  69.193  1.00  0.00    -0.318 A  
HETATM   10  C   UNL     1     -11.888  12.037  69.946  1.00  0.00    -0.405 A  
HETATM   11  C   UNL     1     -12.644  11.684  71.076  1.00  0.00    -0.431 A  
HETATM   12  C   UNL     1     -12.663  10.372  71.534  1.00  0.00    -0.564 A  
HETATM   13  C   UNL     1     -11.943   9.407  70.851  1.00  0.00    -0.351 A  
HETATM   14  C   UNL     1     -11.250   9.751  69.687  1.00  0.00    -0.216 A  
ENDBRANCH   8   9
BRANCH   8  15
HETATM   15  C   UNL     1      -8.890  11.774  68.102  1.00  0.00    -0.169 A  
HETATM   16  C   UNL     1      -8.227  12.801  67.400  1.00  0.00    -0.186 A  
HETATM   17  C   UNL     1      -6.906  13.175  67.708  1.00  0.00    -0.149 A  
HETATM   18  C   UNL     1      -6.204  12.539  68.732  1.00  0.00    -0.074 A  
HETATM   19  C   UNL     1      -8.124  11.137  69.109  1.00  0.00    -0.030 A  
HETATM   20  C   UNL     1      -6.815  11.510  69.427  1.00  0.00    -0.099 A  
ENDBRANCH   8  15
BRANCH   8  21
HETATM   21  C   UNL     1     -10.473  10.071  66.909  1.00  0.00    -0.284 C  
BRANCH  21  22
HETATM   22  C   UNL     1      -9.284   9.374  66.151  1.00  0.00    -0.190 C  
HETATM   23  C   UNL     1      -9.348   9.632  64.634  1.00  0.00    -0.271 C  
BRANCH  22  24
HETATM   24  N   UNL     1      -9.015   7.955  66.480  1.00  0.00    -0.152 NA 
HETATM   25  C   UNL     1      -7.939   7.763  67.462  1.00  0.00    -0.123 C  
HETATM   26  C   UNL     1     -10.200   7.235  66.985  1.00  0.00    -0.278 C  
ENDBRANCH  22  24
ENDBRANCH  21  22
ENDBRANCH   8  21
ENDBRANCH   3   8
ENDBRANCH   2   3
TORSDOF 9
ENDMDL
MODEL       71
REMARK 921   NORMALIZED FREE ENERGY PREDICTED BY IDOCK:   -4.59 KCAL/MOL
REMARK 922        TOTAL FREE ENERGY PREDICTED BY IDOCK:   -8.70 KCAL/MOL
REMARK 923 INTER-LIGAND FREE ENERGY PREDICTED BY IDOCK:   -7.36 KCAL/MOL
REMARK 924 INTRA-LIGAND FREE ENERGY PREDICTED BY IDOCK:   -1.34 KCAL/MOL
REMARK 927      BINDING AFFINITY PREDICTED BY RF-SCORE:    0.00 PKD
ROOT
HETATM    1  C   UNL     1     -11.772  14.422  69.339  1.00  0.00    -0.362 C  
HETATM    2  C   UNL     1     -11.246  12.998  69.486  1.00  0.00    -0.146 C  
ENDROOT
BRANCH   2   3
HETATM    3  C   UNL     1     -11.867  12.037  68.452  1.00  0.00    -0.300 C  
BRANCH   3   4
HETATM    4  O   UNL     1     -12.466  10.932  69.198  1.00  0.00    -0.409 OA 
BRANCH   4   5
HETATM    5  C   UNL     1     -12.343  10.915  70.551  1.00  0.00    -0.374 C  
HETATM    6  C   UNL     1     -11.299   9.905  70.953  1.00  0.00    -0.446 C  
HETATM    7  O   UNL     1     -13.032  11.547  71.339  1.00  0.00    -0.412 OA 
ENDBRANCH   4   5
ENDBRANCH   3   4
BRANCH   3   8
HETATM    8  C   UNL     1     -10.820  11.461  67.371  1.00  0.00    -0.301 C  
BRANCH   8   9
HETATM    9  C   UNL     1      -9.380  11.887  67.825  1.00  0.00    -0.184 A  
HETATM   10  C   UNL     1      -8.597  11.174  68.750  1.00  0.00    -0.133 A  
HETATM   11  C   UNL     1      -7.273  11.548  69.034  1.00  0.00    -0.106 A  
HETATM   12  C   UNL     1      -6.721  12.690  68.467  1.00  0.00    -0.089 A  
HETATM   13  C   UNL     1      -7.486  13.450  67.598  1.00  0.00    -0.182 A  
HETATM   14  C   UNL     1      -8.778  13.034  67.265  1.00  0.00    -0.209 A  
ENDBRANCH   8   9
BRANCH   8  15
HETATM   15  C   UNL     1     -11.235  12.098  65.952  1.00  0.00    -0.384 A  
HETATM   16  C   UNL     1     -10.808  11.587  64.710  1.00  0.00    -0.360 A  
HETATM   17  C   UNL     1     -11.265  12.122  63.492  1.00  0.00    -0.536 A  
HETATM   18  C   UNL     1     -12.170  13.183  63.473  1.00  0.00    -0.552 A  
HETATM   19  C   UNL     1     -12.127  13.196  65.879  1.00  0.00    -0.501 A  
HETATM   20  C   UNL     1     -12.593  13.726  64.673  1.00  0.00    -0.288 A  
ENDBRANCH   8  15
BRANCH   8  21
HETATM   21  C   UNL     1     -10.889   9.855  67.245  1.00  0.00    -0.268 C  
BRANCH  21  22
HETATM   22  C   UNL     1      -9.702   8.832  67.110  1.00  0.00    -0.191 C  
HETATM   23  C   UNL     1      -9.250   8.676  65.646  1.00  0.00    -0.204 C  
BRANCH  22  24
HETATM   24  N   UNL     1      -9.849   7.533  67.806  1.00  0.00    -0.148 NA 
HETATM   25  C   UNL     1      -9.526   6.368  66.972  1.00  0.00    -0.139 C  
HETATM   26  C   UNL     1      -9.037   7.430  69.033  1.00  0.00    -0.133 C  
ENDBRANCH  22  24
ENDBRANCH  21  22
ENDBRANCH   8  21
ENDBRANCH   3   8
ENDBRANCH   2   3
TORSDOF 9
ENDMDL
MODEL       72
REMARK 921   NORMALIZED FREE ENERGY PREDICTED BY IDOCK:   -4.59 KCAL/MOL
REMARK 922        TOTAL FREE ENERGY PREDICTED BY IDOCK:   -8.69 KCAL/MOL
REMARK 923 INTER-LIGAND FREE ENERGY PREDICTED BY IDOCK:   -6.99 KCAL/MOL
REMARK 924 INTRA-LIGAND FREE ENERGY PREDICTED BY IDOCK:   -1.70 KCAL/MOL
REMARK 927      BINDING AFFINITY PREDICTED BY RF-SCORE:    0.00 PKD
ROOT
HETATM    1  C   UNL     1      -9.648  15.631  67.772  1.00  0.00    -0.209 C  
HETATM    2  C   UNL     1      -9.422  14.432  66.858  1.00  0.00    -0.268 C  
ENDROOT
BRANCH   2   3
HETATM    3  C   UNL     1      -8.961  13.183  67.637  1.00  0.00    -0.192 C  
BRANCH   3   4
HETATM    4  O   UNL     1      -7.579  12.917  67.243  1.00  0.00    -0.153 OA 
BRANCH   4   5
HETATM    5  C   UNL     1      -6.577  13.560  67.899  1.00  0.00    -0.152 C  
HETATM    6  C   UNL     1      -6.347  12.908  69.238  1.00  0.00    -0.108 C  
HETATM    7  O   UNL     1      -6.006  14.570  67.515  1.00  0.00    -0.334 OA 
ENDBRANCH   4   5
ENDBRANCH   3   4
BRANCH   3   8
HETATM    8  C   UNL     1      -9.863  11.872  67.381  1.00  0.00    -0.192 C  
BRANCH   8   9
HETATM    9  C   UNL     1     -10.655  12.090  66.044  1.00  0.00    -0.303 A  
HETATM   10  C   UNL     1     -12.048  12.268  65.967  1.00  0.00    -0.229 A  
HETATM   11  C   UNL     1     -12.685  12.567  64.752  1.00  0.00    -0.415 A  
HETATM   12  C   UNL     1     -11.963  12.616  63.566  1.00  0.00    -0.630 A  
HETATM   13  C   UNL     1     -10.598  12.385  63.596  1.00  0.00    -0.481 A  
HETATM   14  C   UNL     1      -9.959  12.158  64.818  1.00  0.00    -0.224 A  
ENDBRANCH   8   9
BRANCH   8  15
HETATM   15  C   UNL     1     -10.833  11.731  68.659  1.00  0.00    -0.259 A  
HETATM   16  C   UNL     1     -11.148  10.500  69.269  1.00  0.00    -0.298 A  
HETATM   17  C   UNL     1     -11.929  10.431  70.437  1.00  0.00    -0.409 A  
HETATM   18  C   UNL     1     -12.417  11.590  71.039  1.00  0.00    -0.458 A  
HETATM   19  C   UNL     1     -11.379  12.876  69.289  1.00  0.00    -0.303 A  
HETATM   20  C   UNL     1     -12.148  12.815  70.455  1.00  0.00    -0.382 A  
ENDBRANCH   8  15
BRANCH   8  21
HETATM   21  C   UNL     1      -8.978  10.530  67.265  1.00  0.00    -0.145 C  
BRANCH  21  22
HETATM   22  C   UNL     1      -9.121   9.348  66.238  1.00  0.00    -0.163 C  
HETATM   23  C   UNL     1      -9.717   8.091  66.898  1.00  0.00    -0.291 C  
BRANCH  22  24
HETATM   24  N   UNL     1      -7.946   9.047  65.388  1.00  0.00    -0.107 NA 
HETATM   25  C   UNL     1      -8.238   9.033  63.948  1.00  0.00    -0.172 C  
HETATM   26  C   UNL     1      -6.819   9.976  65.596  1.00  0.00    -0.114 C  
ENDBRANCH  22  24
ENDBRANCH  21  22
ENDBRANCH   8  21
ENDBRANCH   3   8
ENDBRANCH   2   3
TORSDOF 9
ENDMDL
MODEL       73
REMARK 921   NORMALIZED FREE ENERGY PREDICTED BY IDOCK:   -4.59 KCAL/MOL
REMARK 922        TOTAL FREE ENERGY PREDICTED BY IDOCK:   -8.69 KCAL/MOL
REMARK 923 INTER-LIGAND FREE ENERGY PREDICTED BY IDOCK:   -7.01 KCAL/MOL
REMARK 924 INTRA-LIGAND FREE ENERGY PREDICTED BY IDOCK:   -1.68 KCAL/MOL
REMARK 927      BINDING AFFINITY PREDICTED BY RF-SCORE:    0.00 PKD
ROOT
HETATM    1  C   UNL     1     -11.930  13.685  64.768  1.00  0.00    -0.426 C  
HETATM    2  C   UNL     1     -12.030  12.951  66.100  1.00  0.00    -0.491 C  
ENDROOT
BRANCH   2   3
HETATM    3  C   UNL     1     -10.688  12.317  66.519  1.00  0.00    -0.246 C  
BRANCH   3   4
HETATM    4  O   UNL     1     -10.865  10.867  66.472  1.00  0.00    -0.242 OA 
BRANCH   4   5
HETATM    5  C   UNL     1     -10.209  10.159  65.516  1.00  0.00    -0.218 C  
HETATM    6  C   UNL     1      -9.574   8.940  66.133  1.00  0.00    -0.335 C  
HETATM    7  O   UNL     1     -10.069  10.495  64.349  1.00  0.00    -0.340 OA 
ENDBRANCH   4   5
ENDBRANCH   3   4
BRANCH   3   8
HETATM    8  C   UNL     1     -10.176  12.756  67.983  1.00  0.00    -0.228 C  
BRANCH   8   9
HETATM    9  C   UNL     1      -8.607  12.785  67.952  1.00  0.00    -0.181 A  
HETATM   10  C   UNL     1      -7.817  12.017  67.079  1.00  0.00    -0.138 A  
HETATM   11  C   UNL     1      -6.421  12.168  67.026  1.00  0.00    -0.088 A  
HETATM   12  C   UNL     1      -5.767  13.029  67.899  1.00  0.00    -0.126 A  
HETATM   13  C   UNL     1      -6.510  13.756  68.814  1.00  0.00    -0.096 A  
HETATM   14  C   UNL     1      -7.904  13.655  68.814  1.00  0.00    -0.043 A  
ENDBRANCH   8   9
BRANCH   8  15
HETATM   15  C   UNL     1     -10.754  11.663  69.014  1.00  0.00    -0.217 A  
HETATM   16  C   UNL     1     -10.037  10.522  69.427  1.00  0.00    -0.233 A  
HETATM   17  C   UNL     1     -10.545   9.639  70.397  1.00  0.00    -0.354 A  
HETATM   18  C   UNL     1     -11.786   9.868  70.992  1.00  0.00    -0.466 A  
HETATM   19  C   UNL     1     -12.022  11.833  69.621  1.00  0.00    -0.378 A  
HETATM   20  C   UNL     1     -12.529  10.965  70.593  1.00  0.00    -0.460 A  
ENDBRANCH   8  15
BRANCH   8  21
HETATM   21  C   UNL     1     -10.730  14.206  68.417  1.00  0.00    -0.264 C  
BRANCH  21  22
HETATM   22  C   UNL     1     -10.095  15.619  68.144  1.00  0.00    -0.222 C  
HETATM   23  C   UNL     1     -10.551  16.658  69.186  1.00  0.00    -0.340 C  
BRANCH  22  24
HETATM   24  N   UNL     1     -10.162  16.131  66.756  1.00  0.00    -0.274 NA 
HETATM   25  C   UNL     1     -10.406  17.577  66.663  1.00  0.00    -0.319 C  
HETATM   26  C   UNL     1      -8.951  15.841  65.965  1.00  0.00    -0.287 C  
ENDBRANCH  22  24
ENDBRANCH  21  22
ENDBRANCH   8  21
ENDBRANCH   3   8
ENDBRANCH   2   3
TORSDOF 9
ENDMDL
MODEL       74
REMARK 921   NORMALIZED FREE ENERGY PREDICTED BY IDOCK:   -4.59 KCAL/MOL
REMARK 922        TOTAL FREE ENERGY PREDICTED BY IDOCK:   -8.69 KCAL/MOL
REMARK 923 INTER-LIGAND FREE ENERGY PREDICTED BY IDOCK:   -7.96 KCAL/MOL
REMARK 924 INTRA-LIGAND FREE ENERGY PREDICTED BY IDOCK:   -0.72 KCAL/MOL
REMARK 927      BINDING AFFINITY PREDICTED BY RF-SCORE:    0.00 PKD
ROOT
HETATM    1  C   UNL     1      -8.037  16.867  66.085  1.00  0.00    -0.295 C  
HETATM    2  C   UNL     1      -9.488  16.448  65.872  1.00  0.00    -0.289 C  
ENDROOT
BRANCH   2   3
HETATM    3  C   UNL     1     -10.225  16.198  67.204  1.00  0.00    -0.281 C  
BRANCH   3   4
HETATM    4  O   UNL     1      -9.659  17.119  68.188  1.00  0.00    -0.254 OA 
BRANCH   4   5
HETATM    5  C   UNL     1      -9.945  18.443  68.084  1.00  0.00    -0.364 C  
HETATM    6  C   UNL     1      -8.892  19.247  68.802  1.00  0.00    -0.387 C  
HETATM    7  O   UNL     1     -10.947  18.919  67.571  1.00  0.00    -0.422 OA 
ENDBRANCH   4   5
ENDBRANCH   3   4
BRANCH   3   8
HETATM    8  C   UNL     1     -10.115  14.685  67.747  1.00  0.00    -0.228 C  
BRANCH   8   9
HETATM    9  C   UNL     1     -11.161  14.516  68.905  1.00  0.00    -0.273 A  
HETATM   10  C   UNL     1     -11.540  13.280  69.457  1.00  0.00    -0.349 A  
HETATM   11  C   UNL     1     -12.400  13.202  70.565  1.00  0.00    -0.380 A  
HETATM   12  C   UNL     1     -12.971  14.350  71.102  1.00  0.00    -0.419 A  
HETATM   13  C   UNL     1     -12.667  15.580  70.543  1.00  0.00    -0.436 A  
HETATM   14  C   UNL     1     -11.755  15.657  69.487  1.00  0.00    -0.382 A  
ENDBRANCH   8   9
BRANCH   8  15
HETATM   15  C   UNL     1      -8.598  14.492  68.251  1.00  0.00    -0.171 A  
HETATM   16  C   UNL     1      -8.074  15.103  69.408  1.00  0.00    -0.200 A  
HETATM   17  C   UNL     1      -6.769  14.838  69.860  1.00  0.00    -0.172 A  
HETATM   18  C   UNL     1      -5.943  13.947  69.175  1.00  0.00    -0.092 A  
HETATM   19  C   UNL     1      -7.710  13.622  67.572  1.00  0.00    -0.183 A  
HETATM   20  C   UNL     1      -6.415  13.346  68.021  1.00  0.00    -0.131 A  
ENDBRANCH   8  15
BRANCH   8  21
HETATM   21  C   UNL     1     -10.410  13.596  66.596  1.00  0.00    -0.275 C  
BRANCH  21  22
HETATM   22  C   UNL     1     -11.312  13.744  65.316  1.00  0.00    -0.304 C  
HETATM   23  C   UNL     1     -12.804  13.847  65.682  1.00  0.00    -0.467 C  
BRANCH  22  24
HETATM   24  N   UNL     1     -11.058  12.803  64.201  1.00  0.00    -0.364 NA 
HETATM   25  C   UNL     1     -10.279  11.618  64.584  1.00  0.00    -0.281 C  
HETATM   26  C   UNL     1     -12.290  12.323  63.546  1.00  0.00    -0.565 C  
ENDBRANCH  22  24
ENDBRANCH  21  22
ENDBRANCH   8  21
ENDBRANCH   3   8
ENDBRANCH   2   3
TORSDOF 9
ENDMDL
MODEL       75
REMARK 921   NORMALIZED FREE ENERGY PREDICTED BY IDOCK:   -4.57 KCAL/MOL
REMARK 922        TOTAL FREE ENERGY PREDICTED BY IDOCK:   -8.66 KCAL/MOL
REMARK 923 INTER-LIGAND FREE ENERGY PREDICTED BY IDOCK:   -7.41 KCAL/MOL
REMARK 924 INTRA-LIGAND FREE ENERGY PREDICTED BY IDOCK:   -1.26 KCAL/MOL
REMARK 927      BINDING AFFINITY PREDICTED BY RF-SCORE:    0.00 PKD
ROOT
HETATM    1  C   UNL     1      -8.547  15.314  67.045  1.00  0.00    -0.256 C  
HETATM    2  C   UNL     1      -8.752  13.822  66.808  1.00  0.00    -0.108 C  
ENDROOT
BRANCH   2   3
HETATM    3  C   UNL     1      -9.164  13.078  68.095  1.00  0.00    -0.212 C  
BRANCH   3   4
HETATM    4  O   UNL     1      -8.413  11.825  68.127  1.00  0.00    -0.144 OA 
BRANCH   4   5
HETATM    5  C   UNL     1      -7.072  11.872  68.346  1.00  0.00    -0.086 C  
HETATM    6  C   UNL     1      -6.340  11.420  67.110  1.00  0.00    -0.109 C  
HETATM    7  O   UNL     1      -6.532  12.146  69.408  1.00  0.00    -0.104 OA 
ENDBRANCH   4   5
ENDBRANCH   3   4
BRANCH   3   8
HETATM    8  C   UNL     1     -10.742  12.770  68.206  1.00  0.00    -0.257 C  
BRANCH   8   9
HETATM    9  C   UNL     1     -11.376  13.006  66.790  1.00  0.00    -0.365 A  
HETATM   10  C   UNL     1     -12.085  14.162  66.421  1.00  0.00    -0.475 A  
HETATM   11  C   UNL     1     -12.535  14.361  65.106  1.00  0.00    -0.360 A  
HETATM   12  C   UNL     1     -12.363  13.376  64.141  1.00  0.00    -0.395 A  
HETATM   13  C   UNL     1     -11.722  12.198  64.486  1.00  0.00    -0.410 A  
HETATM   14  C   UNL     1     -11.214  12.035  65.777  1.00  0.00    -0.383 A  
ENDBRANCH   8   9
BRANCH   8  15
HETATM   15  C   UNL     1     -11.324  13.776  69.320  1.00  0.00    -0.325 A  
HETATM   16  C   UNL     1     -10.700  14.986  69.683  1.00  0.00    -0.270 A  
HETATM   17  C   UNL     1     -11.289  15.878  70.598  1.00  0.00    -0.421 A  
HETATM   18  C   UNL     1     -12.525  15.594  71.178  1.00  0.00    -0.505 A  
HETATM   19  C   UNL     1     -12.561  13.517  69.961  1.00  0.00    -0.131 A  
HETATM   20  C   UNL     1     -13.156  14.403  70.863  1.00  0.00    -0.390 A  
ENDBRANCH   8  15
BRANCH   8  21
HETATM   21  C   UNL     1     -11.041  11.259  68.681  1.00  0.00    -0.286 C  
BRANCH  21  22
HETATM   22  C   UNL     1     -10.915  10.642  70.122  1.00  0.00    -0.222 C  
HETATM   23  C   UNL     1      -9.577   9.904  70.309  1.00  0.00    -0.184 C  
BRANCH  22  24
HETATM   24  N   UNL     1     -12.072   9.870  70.629  1.00  0.00    -0.273 NA 
HETATM   25  C   UNL     1     -11.726   8.530  71.123  1.00  0.00    -0.281 C  
HETATM   26  C   UNL     1     -12.809  10.555  71.707  1.00  0.00    -0.454 C  
ENDBRANCH  22  24
ENDBRANCH  21  22
ENDBRANCH   8  21
ENDBRANCH   3   8
ENDBRANCH   2   3
TORSDOF 9
ENDMDL
MODEL       76
REMARK 921   NORMALIZED FREE ENERGY PREDICTED BY IDOCK:   -4.53 KCAL/MOL
REMARK 922        TOTAL FREE ENERGY PREDICTED BY IDOCK:   -8.61 KCAL/MOL
REMARK 923 INTER-LIGAND FREE ENERGY PREDICTED BY IDOCK:   -7.25 KCAL/MOL
REMARK 924 INTRA-LIGAND FREE ENERGY PREDICTED BY IDOCK:   -1.36 KCAL/MOL
REMARK 927      BINDING AFFINITY PREDICTED BY RF-SCORE:    0.00 PKD
ROOT
HETATM    1  C   UNL     1      -7.419  12.787  68.531  1.00  0.00    -0.120 C  
HETATM    2  C   UNL     1      -8.566  12.548  67.555  1.00  0.00    -0.183 C  
ENDROOT
BRANCH   2   3
HETATM    3  C   UNL     1      -8.721  11.057  67.190  1.00  0.00    -0.135 C  
BRANCH   3   4
HETATM    4  O   UNL     1      -8.067  10.861  65.898  1.00  0.00    -0.160 OA 
BRANCH   4   5
HETATM    5  C   UNL     1      -6.865  10.228  65.863  1.00  0.00    -0.125 C  
HETATM    6  C   UNL     1      -6.467   9.973  64.433  1.00  0.00    -0.131 C  
HETATM    7  O   UNL     1      -6.236   9.836  66.836  1.00  0.00    -0.062 OA 
ENDBRANCH   4   5
ENDBRANCH   3   4
BRANCH   3   8
HETATM    8  C   UNL     1     -10.249  10.551  67.110  1.00  0.00    -0.270 C  
BRANCH   8   9
HETATM    9  C   UNL     1     -11.068  11.626  66.313  1.00  0.00    -0.345 A  
HETATM   10  C   UNL     1     -11.740  12.710  66.904  1.00  0.00    -0.453 A  
HETATM   11  C   UNL     1     -12.366  13.699  66.128  1.00  0.00    -0.476 A  
HETATM   12  C   UNL     1     -12.410  13.591  64.743  1.00  0.00    -0.435 A  
HETATM   13  C   UNL     1     -11.810  12.504  64.131  1.00  0.00    -0.487 A  
HETATM   14  C   UNL     1     -11.128  11.560  64.904  1.00  0.00    -0.282 A  
ENDBRANCH   8   9
BRANCH   8  15
HETATM   15  C   UNL     1     -10.754  10.390  68.631  1.00  0.00    -0.250 A  
HETATM   16  C   UNL     1     -12.034  10.781  69.075  1.00  0.00    -0.258 A  
HETATM   17  C   UNL     1     -12.466  10.542  70.392  1.00  0.00    -0.392 A  
HETATM   18  C   UNL     1     -11.636   9.899  71.310  1.00  0.00    -0.456 A  
HETATM   19  C   UNL     1      -9.937   9.772  69.609  1.00  0.00    -0.244 A  
HETATM   20  C   UNL     1     -10.364   9.522  70.916  1.00  0.00    -0.372 A  
ENDBRANCH   8  15
BRANCH   8  21
HETATM   21  C   UNL     1     -10.385   9.122  66.377  1.00  0.00    -0.235 C  
BRANCH  21  22
HETATM   22  C   UNL     1      -9.862   7.720  66.860  1.00  0.00    -0.235 C  
HETATM   23  C   UNL     1      -8.730   7.194  65.959  1.00  0.00    -0.162 C  
BRANCH  22  24
HETATM   24  N   UNL     1     -10.881   6.688  67.163  1.00  0.00    -0.364 NA 
HETATM   25  C   UNL     1     -10.648   5.403  66.490  1.00  0.00    -0.289 C  
HETATM   26  C   UNL     1     -11.022   6.408  68.604  1.00  0.00    -0.330 C  
ENDBRANCH  22  24
ENDBRANCH  21  22
ENDBRANCH   8  21
ENDBRANCH   3   8
ENDBRANCH   2   3
TORSDOF 9
ENDMDL
MODEL       77
REMARK 921   NORMALIZED FREE ENERGY PREDICTED BY IDOCK:   -4.52 KCAL/MOL
REMARK 922        TOTAL FREE ENERGY PREDICTED BY IDOCK:   -8.59 KCAL/MOL
REMARK 923 INTER-LIGAND FREE ENERGY PREDICTED BY IDOCK:   -7.49 KCAL/MOL
REMARK 924 INTRA-LIGAND FREE ENERGY PREDICTED BY IDOCK:   -1.10 KCAL/MOL
REMARK 927      BINDING AFFINITY PREDICTED BY RF-SCORE:    0.00 PKD
ROOT
HETATM    1  C   UNL     1     -13.016  14.064  65.156  1.00  0.00    -0.260 C  
HETATM    2  C   UNL     1     -12.114  13.368  66.170  1.00  0.00    -0.481 C  
ENDROOT
BRANCH   2   3
HETATM    3  C   UNL     1     -10.637  13.789  66.023  1.00  0.00    -0.290 C  
BRANCH   3   4
HETATM    4  O   UNL     1      -9.880  12.587  65.677  1.00  0.00    -0.262 OA 
BRANCH   4   5
HETATM    5  C   UNL     1     -10.100  12.001  64.471  1.00  0.00    -0.265 C  
HETATM    6  C   UNL     1     -10.056  10.502  64.620  1.00  0.00    -0.408 C  
HETATM    7  O   UNL     1     -10.222  12.586  63.405  1.00  0.00    -0.385 OA 
ENDBRANCH   4   5
ENDBRANCH   3   4
BRANCH   3   8
HETATM    8  C   UNL     1     -10.008  14.469  67.342  1.00  0.00    -0.227 C  
BRANCH   8   9
HETATM    9  C   UNL     1     -10.836  13.972  68.578  1.00  0.00    -0.268 A  
HETATM   10  C   UNL     1     -11.553  14.816  69.444  1.00  0.00    -0.342 A  
HETATM   11  C   UNL     1     -12.363  14.301  70.469  1.00  0.00    -0.430 A  
HETATM   12  C   UNL     1     -12.417  12.934  70.711  1.00  0.00    -0.370 A  
HETATM   13  C   UNL     1     -11.676  12.077  69.916  1.00  0.00    -0.374 A  
HETATM   14  C   UNL     1     -10.927  12.590  68.853  1.00  0.00    -0.272 A  
ENDBRANCH   8   9
BRANCH   8  15
HETATM   15  C   UNL     1     -10.113  16.061  67.126  1.00  0.00    -0.270 A  
HETATM   16  C   UNL     1     -10.363  16.667  65.878  1.00  0.00    -0.355 A  
HETATM   17  C   UNL     1     -10.535  18.057  65.750  1.00  0.00    -0.202 A  
HETATM   18  C   UNL     1     -10.469  18.890  66.866  1.00  0.00    -0.496 A  
HETATM   19  C   UNL     1     -10.022  16.953  68.223  1.00  0.00    -0.282 A  
HETATM   20  C   UNL     1     -10.202  18.334  68.105  1.00  0.00    -0.406 A  
ENDBRANCH   8  15
BRANCH   8  21
HETATM   21  C   UNL     1      -8.455  14.087  67.549  1.00  0.00    -0.201 C  
BRANCH  21  22
HETATM   22  C   UNL     1      -7.644  13.980  68.892  1.00  0.00    -0.080 C  
HETATM   23  C   UNL     1      -7.206  15.366  69.402  1.00  0.00    -0.203 C  
BRANCH  22  24
HETATM   24  N   UNL     1      -6.554  12.979  68.943  1.00  0.00    -0.090 NA 
HETATM   25  C   UNL     1      -5.528  13.159  67.907  1.00  0.00    -0.117 C  
HETATM   26  C   UNL     1      -5.859  12.935  70.243  1.00  0.00    -0.155 C  
ENDBRANCH  22  24
ENDBRANCH  21  22
ENDBRANCH   8  21
ENDBRANCH   3   8
ENDBRANCH   2   3
TORSDOF 9
ENDMDL
MODEL       78
REMARK 921   NORMALIZED FREE ENERGY PREDICTED BY IDOCK:   -4.50 KCAL/MOL
REMARK 922        TOTAL FREE ENERGY PREDICTED BY IDOCK:   -8.56 KCAL/MOL
REMARK 923 INTER-LIGAND FREE ENERGY PREDICTED BY IDOCK:   -6.80 KCAL/MOL
REMARK 924 INTRA-LIGAND FREE ENERGY PREDICTED BY IDOCK:   -1.76 KCAL/MOL
REMARK 927      BINDING AFFINITY PREDICTED BY RF-SCORE:    0.00 PKD
ROOT
HETATM    1  C   UNL     1      -9.819  11.445  63.080  1.00  0.00    -0.373 C  
HETATM    2  C   UNL     1     -10.159  10.483  64.212  1.00  0.00    -0.380 C  
ENDROOT
BRANCH   2   3
HETATM    3  C   UNL     1     -10.642  11.219  65.479  1.00  0.00    -0.246 C  
BRANCH   3   4
HETATM    4  O   UNL     1     -11.041  12.564  65.069  1.00  0.00    -0.285 OA 
BRANCH   4   5
HETATM    5  C   UNL     1     -12.365  12.864  65.014  1.00  0.00    -0.485 C  
HETATM    6  C   UNL     1     -12.656  14.040  65.910  1.00  0.00    -0.484 C  
HETATM    7  O   UNL     1     -13.217  12.229  64.409  1.00  0.00    -0.806 OA 
ENDBRANCH   4   5
ENDBRANCH   3   4
BRANCH   3   8
HETATM    8  C   UNL     1      -9.539  11.311  66.651  1.00  0.00    -0.218 C  
BRANCH   8   9
HETATM    9  C   UNL     1      -8.355  10.355  66.271  1.00  0.00    -0.146 A  
HETATM   10  C   UNL     1      -7.060  10.789  65.940  1.00  0.00    -0.080 A  
HETATM   11  C   UNL     1      -6.015   9.878  65.714  1.00  0.00    -0.067 A  
HETATM   12  C   UNL     1      -6.250   8.509  65.731  1.00  0.00    -0.052 A  
HETATM   13  C   UNL     1      -7.529   8.047  65.994  1.00  0.00    -0.077 A  
HETATM   14  C   UNL     1      -8.549   8.956  66.288  1.00  0.00    -0.145 A  
ENDBRANCH   8   9
BRANCH   8  15
HETATM   15  C   UNL     1     -10.282  10.867  68.009  1.00  0.00    -0.202 A  
HETATM   16  C   UNL     1      -9.658  10.132  69.037  1.00  0.00    -0.202 A  
HETATM   17  C   UNL     1     -10.317   9.840  70.245  1.00  0.00    -0.348 A  
HETATM   18  C   UNL     1     -11.622  10.279  70.470  1.00  0.00    -0.424 A  
HETATM   19  C   UNL     1     -11.617  11.260  68.272  1.00  0.00    -0.370 A  
HETATM   20  C   UNL     1     -12.275  10.983  69.473  1.00  0.00    -0.352 A  
ENDBRANCH   8  15
BRANCH   8  21
HETATM   21  C   UNL     1      -8.976  12.809  66.848  1.00  0.00    -0.213 C  
BRANCH  21  22
HETATM   22  C   UNL     1      -8.780  13.613  68.185  1.00  0.00    -0.177 C  
HETATM   23  C   UNL     1      -9.999  14.500  68.498  1.00  0.00    -0.238 C  
BRANCH  22  24
HETATM   24  N   UNL     1      -7.493  14.324  68.361  1.00  0.00    -0.113 NA 
HETATM   25  C   UNL     1      -6.313  13.451  68.292  1.00  0.00    -0.102 C  
HETATM   26  C   UNL     1      -7.287  15.414  67.388  1.00  0.00    -0.213 C  
ENDBRANCH  22  24
ENDBRANCH  21  22
ENDBRANCH   8  21
ENDBRANCH   3   8
ENDBRANCH   2   3
TORSDOF 9
ENDMDL
MODEL       79
REMARK 921   NORMALIZED FREE ENERGY PREDICTED BY IDOCK:   -4.50 KCAL/MOL
REMARK 922        TOTAL FREE ENERGY PREDICTED BY IDOCK:   -8.56 KCAL/MOL
REMARK 923 INTER-LIGAND FREE ENERGY PREDICTED BY IDOCK:   -7.58 KCAL/MOL
REMARK 924 INTRA-LIGAND FREE ENERGY PREDICTED BY IDOCK:   -0.98 KCAL/MOL
REMARK 927      BINDING AFFINITY PREDICTED BY RF-SCORE:    0.00 PKD
ROOT
HETATM    1  C   UNL     1      -9.853  10.523  64.518  1.00  0.00    -0.401 C  
HETATM    2  C   UNL     1     -10.442  10.317  65.909  1.00  0.00    -0.167 C  
ENDROOT
BRANCH   2   3
HETATM    3  C   UNL     1     -10.984  11.629  66.513  1.00  0.00    -0.299 C  
BRANCH   3   4
HETATM    4  O   UNL     1     -10.900  12.649  65.470  1.00  0.00    -0.270 OA 
BRANCH   4   5
HETATM    5  C   UNL     1     -12.051  13.120  64.922  1.00  0.00    -0.402 C  
HETATM    6  C   UNL     1     -11.913  14.594  64.642  1.00  0.00    -0.472 C  
HETATM    7  O   UNL     1     -13.080  12.479  64.762  1.00  0.00    -0.853 OA 
ENDBRANCH   4   5
ENDBRANCH   3   4
BRANCH   3   8
HETATM    8  C   UNL     1     -10.197  12.127  67.828  1.00  0.00    -0.207 C  
BRANCH   8   9
HETATM    9  C   UNL     1     -10.698  11.266  69.041  1.00  0.00    -0.257 A  
HETATM   10  C   UNL     1     -10.028  10.136  69.542  1.00  0.00    -0.257 A  
HETATM   11  C   UNL     1     -10.469   9.471  70.697  1.00  0.00    -0.374 A  
HETATM   12  C   UNL     1     -11.638   9.864  71.338  1.00  0.00    -0.428 A  
HETATM   13  C   UNL     1     -12.357  10.935  70.836  1.00  0.00    -0.501 A  
HETATM   14  C   UNL     1     -11.874  11.637  69.728  1.00  0.00    -0.428 A  
ENDBRANCH   8   9
BRANCH   8  15
HETATM   15  C   UNL     1     -10.540  13.691  67.998  1.00  0.00    -0.256 A  
HETATM   16  C   UNL     1     -11.755  14.173  68.527  1.00  0.00    -0.380 A  
HETATM   17  C   UNL     1     -11.978  15.545  68.739  1.00  0.00    -0.265 A  
HETATM   18  C   UNL     1     -10.993  16.484  68.435  1.00  0.00    -0.348 A  
HETATM   19  C   UNL     1      -9.585  14.686  67.674  1.00  0.00    -0.212 A  
HETATM   20  C   UNL     1      -9.797  16.050  67.891  1.00  0.00    -0.226 A  
ENDBRANCH   8  15
BRANCH   8  21
HETATM   21  C   UNL     1      -8.599  11.971  67.684  1.00  0.00    -0.163 C  
BRANCH  21  22
HETATM   22  C   UNL     1      -7.521  11.849  68.822  1.00  0.00    -0.100 C  
HETATM   23  C   UNL     1      -6.793  13.184  69.060  1.00  0.00    -0.090 C  
BRANCH  22  24
HETATM   24  N   UNL     1      -6.595  10.695  68.752  1.00  0.00    -0.052 NA 
HETATM   25  C   UNL     1      -6.501   9.927  70.001  1.00  0.00    -0.082 C  
HETATM   26  C   UNL     1      -6.926   9.741  67.677  1.00  0.00    -0.086 C  
ENDBRANCH  22  24
ENDBRANCH  21  22
ENDBRANCH   8  21
ENDBRANCH   3   8
ENDBRANCH   2   3
TORSDOF 9
ENDMDL
MODEL       80
REMARK 921   NORMALIZED FREE ENERGY PREDICTED BY IDOCK:   -4.50 KCAL/MOL
REMARK 922        TOTAL FREE ENERGY PREDICTED BY IDOCK:   -8.55 KCAL/MOL
REMARK 923 INTER-LIGAND FREE ENERGY PREDICTED BY IDOCK:   -7.03 KCAL/MOL
REMARK 924 INTRA-LIGAND FREE ENERGY PREDICTED BY IDOCK:   -1.53 KCAL/MOL
REMARK 927      BINDING AFFINITY PREDICTED BY RF-SCORE:    0.00 PKD
ROOT
HETATM    1  C   UNL     1     -11.813  15.667  64.253  1.00  0.00    -0.151 C  
HETATM    2  C   UNL     1     -11.653  14.950  65.589  1.00  0.00    -0.245 C  
ENDROOT
BRANCH   2   3
HETATM    3  C   UNL     1     -10.460  13.971  65.587  1.00  0.00    -0.318 C  
BRANCH   3   4
HETATM    4  O   UNL     1     -10.986  12.653  65.235  1.00  0.00    -0.276 OA 
BRANCH   4   5
HETATM    5  C   UNL     1     -11.000  12.283  63.928  1.00  0.00    -0.406 C  
HETATM    6  C   UNL     1     -12.390  11.850  63.538  1.00  0.00    -0.603 C  
HETATM    7  O   UNL     1     -10.024  12.216  63.194  1.00  0.00    -0.393 OA 
ENDBRANCH   4   5
ENDBRANCH   3   4
BRANCH   3   8
HETATM    8  C   UNL     1      -9.671  13.886  66.989  1.00  0.00    -0.250 C  
BRANCH   8   9
HETATM    9  C   UNL     1     -10.714  14.112  68.140  1.00  0.00    -0.251 A  
HETATM   10  C   UNL     1     -11.697  13.179  68.513  1.00  0.00    -0.387 A  
HETATM   11  C   UNL     1     -12.532  13.395  69.622  1.00  0.00    -0.063 A  
HETATM   12  C   UNL     1     -12.464  14.583  70.340  1.00  0.00    -0.407 A  
HETATM   13  C   UNL     1     -11.548  15.550  69.962  1.00  0.00    -0.356 A  
HETATM   14  C   UNL     1     -10.673  15.300  68.902  1.00  0.00    -0.245 A  
ENDBRANCH   8   9
BRANCH   8  15
HETATM   15  C   UNL     1      -8.541  15.033  66.945  1.00  0.00    -0.280 A  
HETATM   16  C   UNL     1      -7.266  14.897  67.530  1.00  0.00    -0.227 A  
HETATM   17  C   UNL     1      -6.278  15.889  67.392  1.00  0.00    -0.171 A  
HETATM   18  C   UNL     1      -6.529  17.049  66.659  1.00  0.00    -0.262 A  
HETATM   19  C   UNL     1      -8.758  16.242  66.240  1.00  0.00    -0.370 A  
HETATM   20  C   UNL     1      -7.778  17.227  66.090  1.00  0.00    -0.317 A  
ENDBRANCH   8  15
BRANCH   8  21
HETATM   21  C   UNL     1      -8.942  12.464  67.199  1.00  0.00    -0.195 C  
BRANCH  21  22
HETATM   22  C   UNL     1      -8.710  11.670  68.537  1.00  0.00    -0.130 C  
HETATM   23  C   UNL     1      -7.223  11.650  68.935  1.00  0.00    -0.113 C  
BRANCH  22  24
HETATM   24  N   UNL     1      -9.353  10.341  68.651  1.00  0.00    -0.154 NA 
HETATM   25  C   UNL     1     -10.065  10.128  69.919  1.00  0.00    -0.222 C  
HETATM   26  C   UNL     1     -10.306  10.054  67.563  1.00  0.00    -0.232 C  
ENDBRANCH  22  24
ENDBRANCH  21  22
ENDBRANCH   8  21
ENDBRANCH   3   8
ENDBRANCH   2   3
TORSDOF 9
ENDMDL
MODEL       81
REMARK 921   NORMALIZED FREE ENERGY PREDICTED BY IDOCK:   -4.49 KCAL/MOL
REMARK 922        TOTAL FREE ENERGY PREDICTED BY IDOCK:   -8.54 KCAL/MOL
REMARK 923 INTER-LIGAND FREE ENERGY PREDICTED BY IDOCK:   -8.49 KCAL/MOL
REMARK 924 INTRA-LIGAND FREE ENERGY PREDICTED BY IDOCK:   -0.05 KCAL/MOL
REMARK 927      BINDING AFFINITY PREDICTED BY RF-SCORE:    0.00 PKD
ROOT
HETATM    1  C   UNL     1      -7.021  16.018  69.404  1.00  0.00    -0.216 C  
HETATM    2  C   UNL     1      -7.974  16.044  68.214  1.00  0.00    -0.145 C  
ENDROOT
BRANCH   2   3
HETATM    3  C   UNL     1      -8.960  14.858  68.229  1.00  0.00    -0.177 C  
BRANCH   3   4
HETATM    4  O   UNL     1      -8.534  13.932  67.181  1.00  0.00    -0.203 OA 
BRANCH   4   5
HETATM    5  C   UNL     1      -7.559  13.029  67.463  1.00  0.00    -0.165 C  
HETATM    6  C   UNL     1      -8.076  12.017  68.452  1.00  0.00    -0.154 C  
HETATM    7  O   UNL     1      -6.407  13.072  67.057  1.00  0.00    -0.194 OA 
ENDBRANCH   4   5
ENDBRANCH   3   4
BRANCH   3   8
HETATM    8  C   UNL     1     -10.500  15.273  67.997  1.00  0.00    -0.248 C  
BRANCH   8   9
HETATM    9  C   UNL     1     -11.251  15.106  69.364  1.00  0.00    -0.293 A  
HETATM   10  C   UNL     1     -11.988  13.966  69.730  1.00  0.00    -0.398 A  
HETATM   11  C   UNL     1     -12.548  13.833  71.011  1.00  0.00    -0.446 A  
HETATM   12  C   UNL     1     -12.459  14.867  71.935  1.00  0.00    -0.403 A  
HETATM   13  C   UNL     1     -11.793  16.030  71.586  1.00  0.00    -0.582 A  
HETATM   14  C   UNL     1     -11.177  16.128  70.335  1.00  0.00    -0.394 A  
ENDBRANCH   8   9
BRANCH   8  15
HETATM   15  C   UNL     1     -11.068  14.291  66.855  1.00  0.00    -0.315 A  
HETATM   16  C   UNL     1     -11.264  12.907  67.040  1.00  0.00    -0.329 A  
HETATM   17  C   UNL     1     -11.846  12.101  66.044  1.00  0.00    -0.328 A  
HETATM   18  C   UNL     1     -12.256  12.651  64.830  1.00  0.00    -0.531 A  
HETATM   19  C   UNL     1     -11.470  14.795  65.593  1.00  0.00    -0.327 A  
HETATM   20  C   UNL     1     -12.057  14.002  64.603  1.00  0.00    -0.462 A  
ENDBRANCH   8  15
BRANCH   8  21
HETATM   21  C   UNL     1     -10.655  16.793  67.482  1.00  0.00    -0.309 C  
BRANCH  21  22
HETATM   22  C   UNL     1      -9.630  17.979  67.608  1.00  0.00    -0.271 C  
HETATM   23  C   UNL     1      -9.963  18.893  68.802  1.00  0.00    -0.466 C  
BRANCH  22  24
HETATM   24  N   UNL     1      -9.322  18.737  66.374  1.00  0.00    -0.351 NA 
HETATM   25  C   UNL     1     -10.102  19.972  66.220  1.00  0.00    -0.486 C  
HETATM   26  C   UNL     1      -7.898  19.102  66.250  1.00  0.00    -0.293 C  
ENDBRANCH  22  24
ENDBRANCH  21  22
ENDBRANCH   8  21
ENDBRANCH   3   8
ENDBRANCH   2   3
TORSDOF 9
ENDMDL
MODEL       82
REMARK 921   NORMALIZED FREE ENERGY PREDICTED BY IDOCK:   -4.48 KCAL/MOL
REMARK 922        TOTAL FREE ENERGY PREDICTED BY IDOCK:   -8.53 KCAL/MOL
REMARK 923 INTER-LIGAND FREE ENERGY PREDICTED BY IDOCK:   -7.11 KCAL/MOL
REMARK 924 INTRA-LIGAND FREE ENERGY PREDICTED BY IDOCK:   -1.42 KCAL/MOL
REMARK 927      BINDING AFFINITY PREDICTED BY RF-SCORE:    0.00 PKD
ROOT
HETATM    1  C   UNL     1     -11.535  15.491  65.185  1.00  0.00    -0.156 C  
HETATM    2  C   UNL     1     -11.717  14.476  66.308  1.00  0.00    -0.364 C  
ENDROOT
BRANCH   2   3
HETATM    3  C   UNL     1     -10.804  13.245  66.137  1.00  0.00    -0.280 C  
BRANCH   3   4
HETATM    4  O   UNL     1     -11.654  12.136  65.705  1.00  0.00    -0.364 OA 
BRANCH   4   5
HETATM    5  C   UNL     1     -12.122  12.130  64.429  1.00  0.00    -0.357 C  
HETATM    6  C   UNL     1     -10.968  12.229  63.465  1.00  0.00    -0.521 C  
HETATM    7  O   UNL     1     -13.299  12.138  64.100  1.00  0.00    -0.750 OA 
ENDBRANCH   4   5
ENDBRANCH   3   4
BRANCH   3   8
HETATM    8  C   UNL     1      -9.998  12.827  67.468  1.00  0.00    -0.210 C  
BRANCH   8   9
HETATM    9  C   UNL     1     -10.984  12.949  68.682  1.00  0.00    -0.295 A  
HETATM   10  C   UNL     1     -11.675  11.867  69.255  1.00  0.00    -0.389 A  
HETATM   11  C   UNL     1     -12.461  12.023  70.409  1.00  0.00    -0.235 A  
HETATM   12  C   UNL     1     -12.645  13.278  70.976  1.00  0.00    -0.408 A  
HETATM   13  C   UNL     1     -12.028  14.376  70.402  1.00  0.00    -0.395 A  
HETATM   14  C   UNL     1     -11.191  14.204  69.296  1.00  0.00    -0.308 A  
ENDBRANCH   8   9
BRANCH   8  15
HETATM   15  C   UNL     1      -8.751  13.839  67.580  1.00  0.00    -0.185 A  
HETATM   16  C   UNL     1      -7.644  13.625  68.426  1.00  0.00    -0.132 A  
HETATM   17  C   UNL     1      -6.535  14.490  68.428  1.00  0.00    -0.102 A  
HETATM   18  C   UNL     1      -6.491  15.597  67.581  1.00  0.00    -0.191 A  
HETATM   19  C   UNL     1      -8.673  14.994  66.764  1.00  0.00    -0.293 A  
HETATM   20  C   UNL     1      -7.570  15.852  66.754  1.00  0.00    -0.215 A  
ENDBRANCH   8  15
BRANCH   8  21
HETATM   21  C   UNL     1      -9.425  11.322  67.392  1.00  0.00    -0.175 C  
BRANCH  21  22
HETATM   22  C   UNL     1      -8.547  10.664  66.265  1.00  0.00    -0.153 C  
HETATM   23  C   UNL     1      -9.355   9.647  65.438  1.00  0.00    -0.320 C  
BRANCH  22  24
HETATM   24  N   UNL     1      -7.215  10.153  66.661  1.00  0.00    -0.101 NA 
HETATM   25  C   UNL     1      -6.096  10.998  66.223  1.00  0.00    -0.136 C  
HETATM   26  C   UNL     1      -7.070   9.958  68.116  1.00  0.00    -0.077 C  
ENDBRANCH  22  24
ENDBRANCH  21  22
ENDBRANCH   8  21
ENDBRANCH   3   8
ENDBRANCH   2   3
TORSDOF 9
ENDMDL
MODEL       83
REMARK 921   NORMALIZED FREE ENERGY PREDICTED BY IDOCK:   -4.48 KCAL/MOL
REMARK 922        TOTAL FREE ENERGY PREDICTED BY IDOCK:   -8.53 KCAL/MOL
REMARK 923 INTER-LIGAND FREE ENERGY PREDICTED BY IDOCK:   -7.17 KCAL/MOL
REMARK 924 INTRA-LIGAND FREE ENERGY PREDICTED BY IDOCK:   -1.36 KCAL/MOL
REMARK 927      BINDING AFFINITY PREDICTED BY RF-SCORE:    0.00 PKD
ROOT
HETATM    1  C   UNL     1      -7.553  10.070  69.091  1.00  0.00    -0.096 C  
HETATM    2  C   UNL     1      -8.455  11.298  69.032  1.00  0.00     0.002 C  
ENDROOT
BRANCH   2   3
HETATM    3  C   UNL     1      -9.080  11.497  67.636  1.00  0.00    -0.168 C  
BRANCH   3   4
HETATM    4  O   UNL     1      -8.637  12.802  67.149  1.00  0.00    -0.191 OA 
BRANCH   4   5
HETATM    5  C   UNL     1      -7.349  13.177  67.365  1.00  0.00    -0.111 C  
HETATM    6  C   UNL     1      -7.318  14.419  68.218  1.00  0.00    -0.122 C  
HETATM    7  O   UNL     1      -6.360  12.653  66.872  1.00  0.00    -0.170 OA 
ENDBRANCH   4   5
ENDBRANCH   3   4
BRANCH   3   8
HETATM    8  C   UNL     1     -10.690  11.425  67.615  1.00  0.00    -0.261 C  
BRANCH   8   9
HETATM    9  C   UNL     1     -11.165  11.778  66.161  1.00  0.00    -0.363 A  
HETATM   10  C   UNL     1     -12.110  12.772  65.854  1.00  0.00    -0.485 A  
HETATM   11  C   UNL     1     -12.413  13.114  64.526  1.00  0.00    -0.406 A  
HETATM   12  C   UNL     1     -11.844  12.417  63.467  1.00  0.00    -0.605 A  
HETATM   13  C   UNL     1     -10.955  11.390  63.734  1.00  0.00    -0.448 A  
HETATM   14  C   UNL     1     -10.603  11.102  65.056  1.00  0.00    -0.340 A  
ENDBRANCH   8   9
BRANCH   8  15
HETATM   15  C   UNL     1     -11.206  12.488  68.708  1.00  0.00    -0.318 A  
HETATM   16  C   UNL     1     -11.047  13.883  68.581  1.00  0.00    -0.290 A  
HETATM   17  C   UNL     1     -11.591  14.780  69.517  1.00  0.00    -0.339 A  
HETATM   18  C   UNL     1     -12.319  14.314  70.612  1.00  0.00    -0.431 A  
HETATM   19  C   UNL     1     -11.924  12.064  69.854  1.00  0.00    -0.391 A  
HETATM   20  C   UNL     1     -12.476  12.950  70.783  1.00  0.00    -0.370 A  
ENDBRANCH   8  15
BRANCH   8  21
HETATM   21  C   UNL     1     -11.245   9.968  68.021  1.00  0.00    -0.190 C  
BRANCH  21  22
HETATM   22  C   UNL     1     -10.465   8.603  68.077  1.00  0.00    -0.197 C  
HETATM   23  C   UNL     1     -10.508   7.868  66.725  1.00  0.00    -0.317 C  
BRANCH  22  24
HETATM   24  N   UNL     1     -10.750   7.711  69.225  1.00  0.00    -0.200 NA 
HETATM   25  C   UNL     1      -9.887   6.523  69.287  1.00  0.00    -0.148 C  
HETATM   26  C   UNL     1     -10.654   8.389  70.532  1.00  0.00    -0.216 C  
ENDBRANCH  22  24
ENDBRANCH  21  22
ENDBRANCH   8  21
ENDBRANCH   3   8
ENDBRANCH   2   3
TORSDOF 9
ENDMDL
MODEL       84
REMARK 921   NORMALIZED FREE ENERGY PREDICTED BY IDOCK:   -4.48 KCAL/MOL
REMARK 922        TOTAL FREE ENERGY PREDICTED BY IDOCK:   -8.52 KCAL/MOL
REMARK 923 INTER-LIGAND FREE ENERGY PREDICTED BY IDOCK:   -6.78 KCAL/MOL
REMARK 924 INTRA-LIGAND FREE ENERGY PREDICTED BY IDOCK:   -1.75 KCAL/MOL
REMARK 927      BINDING AFFINITY PREDICTED BY RF-SCORE:    0.00 PKD
ROOT
HETATM    1  C   UNL     1      -9.492   7.309  67.865  1.00  0.00    -0.142 C  
HETATM    2  C   UNL     1     -10.609   8.271  67.477  1.00  0.00    -0.291 C  
ENDROOT
BRANCH   2   3
HETATM    3  C   UNL     1     -10.119   9.384  66.528  1.00  0.00    -0.262 C  
BRANCH   3   4
HETATM    4  O   UNL     1      -8.662   9.284  66.466  1.00  0.00    -0.127 OA 
BRANCH   4   5
HETATM    5  C   UNL     1      -8.073   9.052  65.263  1.00  0.00    -0.126 C  
HETATM    6  C   UNL     1      -7.018  10.097  65.005  1.00  0.00    -0.135 C  
HETATM    7  O   UNL     1      -8.403   8.190  64.461  1.00  0.00    -0.140 OA 
ENDBRANCH   4   5
ENDBRANCH   3   4
BRANCH   3   8
HETATM    8  C   UNL     1     -10.544  10.872  66.975  1.00  0.00    -0.307 C  
BRANCH   8   9
HETATM    9  C   UNL     1     -11.136  11.599  65.717  1.00  0.00    -0.313 A  
HETATM   10  C   UNL     1     -12.004  12.703  65.774  1.00  0.00    -0.503 A  
HETATM   11  C   UNL     1     -12.413  13.378  64.612  1.00  0.00    -0.385 A  
HETATM   12  C   UNL     1     -12.035  12.920  63.356  1.00  0.00    -0.612 A  
HETATM   13  C   UNL     1     -11.230  11.797  63.260  1.00  0.00    -0.357 A  
HETATM   14  C   UNL     1     -10.768  11.173  64.422  1.00  0.00    -0.388 A  
ENDBRANCH   8   9
BRANCH   8  15
HETATM   15  C   UNL     1      -9.208  11.580  67.527  1.00  0.00    -0.166 A  
HETATM   16  C   UNL     1      -8.704  12.797  67.026  1.00  0.00    -0.197 A  
HETATM   17  C   UNL     1      -7.582  13.426  67.597  1.00  0.00    -0.177 A  
HETATM   18  C   UNL     1      -6.928  12.862  68.692  1.00  0.00    -0.101 A  
HETATM   19  C   UNL     1      -8.489  11.031  68.618  1.00  0.00    -0.157 A  
HETATM   20  C   UNL     1      -7.380  11.655  69.196  1.00  0.00    -0.032 A  
ENDBRANCH   8  15
BRANCH   8  21
HETATM   21  C   UNL     1     -11.641  10.868  68.157  1.00  0.00    -0.317 C  
BRANCH  21  22
HETATM   22  C   UNL     1     -11.558  11.547  69.573  1.00  0.00    -0.333 C  
HETATM   23  C   UNL     1     -11.781  10.529  70.705  1.00  0.00    -0.454 C  
BRANCH  22  24
HETATM   24  N   UNL     1     -12.326  12.799  69.766  1.00  0.00    -0.108 NA 
HETATM   25  C   UNL     1     -12.554  13.148  71.175  1.00  0.00    -0.314 C  
HETATM   26  C   UNL     1     -11.708  13.972  69.120  1.00  0.00    -0.333 C  
ENDBRANCH  22  24
ENDBRANCH  21  22
ENDBRANCH   8  21
ENDBRANCH   3   8
ENDBRANCH   2   3
TORSDOF 9
ENDMDL
MODEL       85
REMARK 921   NORMALIZED FREE ENERGY PREDICTED BY IDOCK:   -4.48 KCAL/MOL
REMARK 922        TOTAL FREE ENERGY PREDICTED BY IDOCK:   -8.52 KCAL/MOL
REMARK 923 INTER-LIGAND FREE ENERGY PREDICTED BY IDOCK:   -8.25 KCAL/MOL
REMARK 924 INTRA-LIGAND FREE ENERGY PREDICTED BY IDOCK:   -0.27 KCAL/MOL
REMARK 927      BINDING AFFINITY PREDICTED BY RF-SCORE:    0.00 PKD
ROOT
HETATM    1  C   UNL     1     -11.747  12.340  66.120  1.00  0.00    -0.440 C  
HETATM    2  C   UNL     1     -12.156  13.208  67.304  1.00  0.00    -0.329 C  
ENDROOT
BRANCH   2   3
HETATM    3  C   UNL     1     -11.469  14.589  67.282  1.00  0.00    -0.365 C  
BRANCH   3   4
HETATM    4  O   UNL     1     -10.662  14.647  66.065  1.00  0.00    -0.296 OA 
BRANCH   4   5
HETATM    5  C   UNL     1     -10.989  15.553  65.106  1.00  0.00    -0.409 C  
HETATM    6  C   UNL     1     -12.195  15.071  64.343  1.00  0.00    -0.353 C  
HETATM    7  O   UNL     1     -10.356  16.562  64.832  1.00  0.00    -0.591 OA 
ENDBRANCH   4   5
ENDBRANCH   3   4
BRANCH   3   8
HETATM    8  C   UNL     1     -10.542  14.888  68.565  1.00  0.00    -0.245 C  
BRANCH   8   9
HETATM    9  C   UNL     1     -11.431  14.718  69.847  1.00  0.00    -0.322 A  
HETATM   10  C   UNL     1     -12.083  13.526  70.208  1.00  0.00    -0.425 A  
HETATM   11  C   UNL     1     -12.776  13.405  71.423  1.00  0.00    -0.411 A  
HETATM   12  C   UNL     1     -12.907  14.494  72.276  1.00  0.00    -0.427 A  
HETATM   13  C   UNL     1     -12.328  15.702  71.924  1.00  0.00    -0.502 A  
HETATM   14  C   UNL     1     -11.580  15.796  70.746  1.00  0.00    -0.429 A  
ENDBRANCH   8   9
BRANCH   8  15
HETATM   15  C   UNL     1      -9.993  16.392  68.389  1.00  0.00    -0.238 A  
HETATM   16  C   UNL     1      -8.648  16.762  68.588  1.00  0.00    -0.263 A  
HETATM   17  C   UNL     1      -8.194  18.069  68.337  1.00  0.00    -0.305 A  
HETATM   18  C   UNL     1      -9.069  19.052  67.873  1.00  0.00    -0.339 A  
HETATM   19  C   UNL     1     -10.848  17.432  67.950  1.00  0.00    -0.270 A  
HETATM   20  C   UNL     1     -10.402  18.731  67.689  1.00  0.00    -0.476 A  
ENDBRANCH   8  15
BRANCH   8  21
HETATM   21  C   UNL     1      -9.277  13.894  68.655  1.00  0.00    -0.094 C  
BRANCH  21  22
HETATM   22  C   UNL     1      -9.018  12.564  67.856  1.00  0.00    -0.188 C  
HETATM   23  C   UNL     1      -9.174  11.322  68.753  1.00  0.00    -0.133 C  
BRANCH  22  24
HETATM   24  N   UNL     1      -7.803  12.512  67.010  1.00  0.00    -0.113 NA 
HETATM   25  C   UNL     1      -6.697  13.347  67.500  1.00  0.00    -0.140 C  
HETATM   26  C   UNL     1      -7.273  11.148  66.828  1.00  0.00    -0.146 C  
ENDBRANCH  22  24
ENDBRANCH  21  22
ENDBRANCH   8  21
ENDBRANCH   3   8
ENDBRANCH   2   3
TORSDOF 9
ENDMDL
MODEL       86
REMARK 921   NORMALIZED FREE ENERGY PREDICTED BY IDOCK:   -4.47 KCAL/MOL
REMARK 922        TOTAL FREE ENERGY PREDICTED BY IDOCK:   -8.51 KCAL/MOL
REMARK 923 INTER-LIGAND FREE ENERGY PREDICTED BY IDOCK:   -7.20 KCAL/MOL
REMARK 924 INTRA-LIGAND FREE ENERGY PREDICTED BY IDOCK:   -1.31 KCAL/MOL
REMARK 927      BINDING AFFINITY PREDICTED BY RF-SCORE:    0.00 PKD
ROOT
HETATM    1  C   UNL     1      -7.437   8.654  66.157  1.00  0.00    -0.086 C  
HETATM    2  C   UNL     1      -8.681   9.463  65.807  1.00  0.00    -0.183 C  
ENDROOT
BRANCH   2   3
HETATM    3  C   UNL     1      -9.685   9.526  66.977  1.00  0.00    -0.176 C  
BRANCH   3   4
HETATM    4  O   UNL     1     -10.760   8.584  66.672  1.00  0.00    -0.191 OA 
BRANCH   4   5
HETATM    5  C   UNL     1     -10.763   7.374  67.291  1.00  0.00    -0.308 C  
HETATM    6  C   UNL     1     -10.284   7.530  68.711  1.00  0.00    -0.206 C  
HETATM    7  O   UNL     1     -11.022   6.302  66.763  1.00  0.00    -0.347 OA 
ENDBRANCH   4   5
ENDBRANCH   3   4
BRANCH   3   8
HETATM    8  C   UNL     1     -10.304  10.991  67.240  1.00  0.00    -0.249 C  
BRANCH   8   9
HETATM    9  C   UNL     1     -10.898  11.510  65.884  1.00  0.00    -0.316 A  
HETATM   10  C   UNL     1     -10.414  11.148  64.615  1.00  0.00    -0.400 A  
HETATM   11  C   UNL     1     -11.057  11.562  63.437  1.00  0.00    -0.370 A  
HETATM   12  C   UNL     1     -12.152  12.415  63.489  1.00  0.00    -0.651 A  
HETATM   13  C   UNL     1     -12.619  12.841  64.721  1.00  0.00    -0.518 A  
HETATM   14  C   UNL     1     -12.019  12.369  65.892  1.00  0.00    -0.434 A  
ENDBRANCH   8   9
BRANCH   8  15
HETATM   15  C   UNL     1      -9.092  11.906  67.775  1.00  0.00    -0.180 A  
HETATM   16  C   UNL     1      -8.078  11.438  68.635  1.00  0.00    -0.141 A  
HETATM   17  C   UNL     1      -6.990  12.247  69.008  1.00  0.00    -0.078 A  
HETATM   18  C   UNL     1      -6.873  13.552  68.529  1.00  0.00    -0.099 A  
HETATM   19  C   UNL     1      -8.946  13.248  67.343  1.00  0.00    -0.215 A  
HETATM   20  C   UNL     1      -7.862  14.054  67.702  1.00  0.00    -0.185 A  
ENDBRANCH   8  15
BRANCH   8  21
HETATM   21  C   UNL     1     -11.462  10.976  68.361  1.00  0.00    -0.378 C  
BRANCH  21  22
HETATM   22  C   UNL     1     -11.439  11.611  69.800  1.00  0.00    -0.264 C  
HETATM   23  C   UNL     1     -11.680  10.552  70.892  1.00  0.00    -0.431 C  
BRANCH  22  24
HETATM   24  N   UNL     1     -12.239  12.840  70.007  1.00  0.00    -0.255 NA 
HETATM   25  C   UNL     1     -12.724  13.014  71.383  1.00  0.00    -0.281 C  
HETATM   26  C   UNL     1     -11.522  14.076  69.637  1.00  0.00    -0.258 C  
ENDBRANCH  22  24
ENDBRANCH  21  22
ENDBRANCH   8  21
ENDBRANCH   3   8
ENDBRANCH   2   3
TORSDOF 9
ENDMDL
MODEL       87
REMARK 921   NORMALIZED FREE ENERGY PREDICTED BY IDOCK:   -4.47 KCAL/MOL
REMARK 922        TOTAL FREE ENERGY PREDICTED BY IDOCK:   -8.51 KCAL/MOL
REMARK 923 INTER-LIGAND FREE ENERGY PREDICTED BY IDOCK:   -7.47 KCAL/MOL
REMARK 924 INTRA-LIGAND FREE ENERGY PREDICTED BY IDOCK:   -1.03 KCAL/MOL
REMARK 927      BINDING AFFINITY PREDICTED BY RF-SCORE:    0.00 PKD
ROOT
HETATM    1  C   UNL     1     -12.727  10.226  70.814  1.00  0.00    -0.434 C  
HETATM    2  C   UNL     1     -11.631  11.255  70.559  1.00  0.00    -0.233 C  
ENDROOT
BRANCH   2   3
HETATM    3  C   UNL     1     -11.191  11.285  69.081  1.00  0.00    -0.273 C  
BRANCH   3   4
HETATM    4  O   UNL     1     -10.030  10.405  68.960  1.00  0.00    -0.193 OA 
BRANCH   4   5
HETATM    5  C   UNL     1     -10.229   9.105  68.618  1.00  0.00    -0.204 C  
HETATM    6  C   UNL     1      -9.719   8.208  69.716  1.00  0.00    -0.173 C  
HETATM    7  O   UNL     1     -10.666   8.707  67.548  1.00  0.00    -0.249 OA 
ENDBRANCH   4   5
ENDBRANCH   3   4
BRANCH   3   8
HETATM    8  C   UNL     1     -10.822  12.754  68.529  1.00  0.00    -0.279 C  
BRANCH   8   9
HETATM    9  C   UNL     1     -11.512  13.805  69.468  1.00  0.00    -0.327 A  
HETATM   10  C   UNL     1     -12.785  13.641  70.041  1.00  0.00    -0.044 A  
HETATM   11  C   UNL     1     -13.303  14.569  70.959  1.00  0.00    -0.384 A  
HETATM   12  C   UNL     1     -12.601  15.728  71.269  1.00  0.00    -0.504 A  
HETATM   13  C   UNL     1     -11.370  15.951  70.676  1.00  0.00    -0.421 A  
HETATM   14  C   UNL     1     -10.828  14.990  69.817  1.00  0.00    -0.277 A  
ENDBRANCH   8   9
BRANCH   8  15
HETATM   15  C   UNL     1     -11.370  12.822  67.017  1.00  0.00    -0.364 A  
HETATM   16  C   UNL     1     -11.056  11.868  66.028  1.00  0.00    -0.369 A  
HETATM   17  C   UNL     1     -11.627  11.917  64.743  1.00  0.00    -0.302 A  
HETATM   18  C   UNL     1     -12.535  12.919  64.403  1.00  0.00    -0.447 A  
HETATM   19  C   UNL     1     -12.270  13.838  66.613  1.00  0.00    -0.454 A  
HETATM   20  C   UNL     1     -12.849  13.887  65.341  1.00  0.00    -0.466 A  
ENDBRANCH   8  15
BRANCH   8  21
HETATM   21  C   UNL     1      -9.232  13.019  68.506  1.00  0.00    -0.062 C  
BRANCH  21  22
HETATM   22  C   UNL     1      -8.366  13.674  67.368  1.00  0.00    -0.192 C  
HETATM   23  C   UNL     1      -6.922  13.138  67.374  1.00  0.00    -0.117 C  
BRANCH  22  24
HETATM   24  N   UNL     1      -8.430  15.148  67.236  1.00  0.00    -0.183 NA 
HETATM   25  C   UNL     1      -7.117  15.808  67.262  1.00  0.00    -0.210 C  
HETATM   26  C   UNL     1      -9.120  15.598  66.013  1.00  0.00    -0.311 C  
ENDBRANCH  22  24
ENDBRANCH  21  22
ENDBRANCH   8  21
ENDBRANCH   3   8
ENDBRANCH   2   3
TORSDOF 9
ENDMDL
MODEL       88
REMARK 921   NORMALIZED FREE ENERGY PREDICTED BY IDOCK:   -4.46 KCAL/MOL
REMARK 922        TOTAL FREE ENERGY PREDICTED BY IDOCK:   -8.50 KCAL/MOL
REMARK 923 INTER-LIGAND FREE ENERGY PREDICTED BY IDOCK:   -7.29 KCAL/MOL
REMARK 924 INTRA-LIGAND FREE ENERGY PREDICTED BY IDOCK:   -1.21 KCAL/MOL
REMARK 927      BINDING AFFINITY PREDICTED BY RF-SCORE:    0.00 PKD
ROOT
HETATM    1  C   UNL     1     -10.240  19.782  69.080  1.00  0.00    -0.362 C  
HETATM    2  C   UNL     1      -9.456  18.512  68.769  1.00  0.00    -0.334 C  
ENDROOT
BRANCH   2   3
HETATM    3  C   UNL     1      -8.908  18.502  67.327  1.00  0.00    -0.270 C  
BRANCH   3   4
HETATM    4  O   UNL     1      -9.736  17.574  66.559  1.00  0.00    -0.272 OA 
BRANCH   4   5
HETATM    5  C   UNL     1     -10.467  18.057  65.520  1.00  0.00     0.037 C  
HETATM    6  C   UNL     1     -10.661  19.542  65.684  1.00  0.00    -0.420 C  
HETATM    7  O   UNL     1     -10.974  17.388  64.632  1.00  0.00    -0.959 OA 
ENDBRANCH   4   5
ENDBRANCH   3   4
BRANCH   3   8
HETATM    8  C   UNL     1      -7.359  18.074  67.211  1.00  0.00    -0.212 C  
BRANCH   8   9
HETATM    9  C   UNL     1      -6.643  18.504  68.539  1.00  0.00    -0.246 A  
HETATM   10  C   UNL     1      -6.609  19.819  69.033  1.00  0.00    -0.368 A  
HETATM   11  C   UNL     1      -6.045  20.122  70.283  1.00  0.00    -0.393 A  
HETATM   12  C   UNL     1      -5.424  19.134  71.039  1.00  0.00    -0.238 A  
HETATM   13  C   UNL     1      -5.385  17.838  70.554  1.00  0.00    -0.270 A  
HETATM   14  C   UNL     1      -6.010  17.530  69.342  1.00  0.00    -0.234 A  
ENDBRANCH   8   9
BRANCH   8  15
HETATM   15  C   UNL     1      -6.773  18.836  65.919  1.00  0.00    -0.294 A  
HETATM   16  C   UNL     1      -7.130  20.151  65.557  1.00  0.00    -0.315 A  
HETATM   17  C   UNL     1      -6.528  20.810  64.470  1.00  0.00    -0.302 A  
HETATM   18  C   UNL     1      -5.544  20.180  63.709  1.00  0.00    -0.287 A  
HETATM   19  C   UNL     1      -5.794  18.228  65.095  1.00  0.00    -0.179 A  
HETATM   20  C   UNL     1      -5.185  18.880  64.020  1.00  0.00    -0.258 A  
ENDBRANCH   8  15
BRANCH   8  21
HETATM   21  C   UNL     1      -7.174  16.488  66.991  1.00  0.00    -0.247 C  
BRANCH  21  22
HETATM   22  C   UNL     1      -7.716  15.308  67.878  1.00  0.00    -0.136 C  
HETATM   23  C   UNL     1      -6.768  14.095  67.851  1.00  0.00    -0.176 C  
BRANCH  22  24
HETATM   24  N   UNL     1      -9.137  14.929  67.699  1.00  0.00    -0.180 NA 
HETATM   25  C   UNL     1      -9.390  14.097  66.515  1.00  0.00    -0.265 C  
HETATM   26  C   UNL     1      -9.705  14.218  68.861  1.00  0.00    -0.115 C  
ENDBRANCH  22  24
ENDBRANCH  21  22
ENDBRANCH   8  21
ENDBRANCH   3   8
ENDBRANCH   2   3
TORSDOF 9
ENDMDL
MODEL       89
REMARK 921   NORMALIZED FREE ENERGY PREDICTED BY IDOCK:   -4.44 KCAL/MOL
REMARK 922        TOTAL FREE ENERGY PREDICTED BY IDOCK:   -8.47 KCAL/MOL
REMARK 923 INTER-LIGAND FREE ENERGY PREDICTED BY IDOCK:   -7.48 KCAL/MOL
REMARK 924 INTRA-LIGAND FREE ENERGY PREDICTED BY IDOCK:   -0.98 KCAL/MOL
REMARK 927      BINDING AFFINITY PREDICTED BY RF-SCORE:    0.00 PKD
ROOT
HETATM    1  C   UNL     1      -9.379  15.397  69.325  1.00  0.00    -0.254 C  
HETATM    2  C   UNL     1      -9.812  14.457  68.205  1.00  0.00    -0.223 C  
ENDROOT
BRANCH   2   3
HETATM    3  C   UNL     1      -9.703  12.974  68.613  1.00  0.00    -0.045 C  
BRANCH   3   4
HETATM    4  O   UNL     1      -8.711  12.358  67.733  1.00  0.00    -0.158 OA 
BRANCH   4   5
HETATM    5  C   UNL     1      -7.441  12.201  68.189  1.00  0.00    -0.114 C  
HETATM    6  C   UNL     1      -6.822  10.982  67.557  1.00  0.00    -0.084 C  
HETATM    7  O   UNL     1      -6.903  12.882  69.051  1.00  0.00    -0.097 OA 
ENDBRANCH   4   5
ENDBRANCH   3   4
BRANCH   3   8
HETATM    8  C   UNL     1     -11.091  12.159  68.524  1.00  0.00    -0.295 C  
BRANCH   8   9
HETATM    9  C   UNL     1     -11.951  12.541  69.779  1.00  0.00    -0.359 A  
HETATM   10  C   UNL     1     -12.347  11.632  70.776  1.00  0.00    -0.454 A  
HETATM   11  C   UNL     1     -13.025  12.057  71.930  1.00  0.00    -0.428 A  
HETATM   12  C   UNL     1     -13.399  13.386  72.085  1.00  0.00    -0.613 A  
HETATM   13  C   UNL     1     -13.078  14.298  71.094  1.00  0.00    -0.412 A  
HETATM   14  C   UNL     1     -12.342  13.883  69.980  1.00  0.00    -0.378 A  
ENDBRANCH   8   9
BRANCH   8  15
HETATM   15  C   UNL     1     -10.699  10.597  68.495  1.00  0.00    -0.252 A  
HETATM   16  C   UNL     1     -10.943   9.750  67.395  1.00  0.00    -0.176 A  
HETATM   17  C   UNL     1     -10.505   8.413  67.377  1.00  0.00    -0.354 A  
HETATM   18  C   UNL     1      -9.803   7.878  68.457  1.00  0.00    -0.186 A  
HETATM   19  C   UNL     1     -10.013   9.997  69.579  1.00  0.00    -0.249 A  
HETATM   20  C   UNL     1      -9.567   8.673  69.565  1.00  0.00    -0.170 A  
ENDBRANCH   8  15
BRANCH   8  21
HETATM   21  C   UNL     1     -11.919  12.499  67.183  1.00  0.00    -0.285 C  
BRANCH  21  22
HETATM   22  C   UNL     1     -11.369  12.964  65.785  1.00  0.00    -0.315 C  
HETATM   23  C   UNL     1     -11.982  14.309  65.352  1.00  0.00    -0.383 C  
BRANCH  22  24
HETATM   24  N   UNL     1     -11.363  11.959  64.696  1.00  0.00    -0.312 NA 
HETATM   25  C   UNL     1     -12.319  12.242  63.616  1.00  0.00    -0.562 C  
HETATM   26  C   UNL     1     -10.039  11.780  64.071  1.00  0.00    -0.327 C  
ENDBRANCH  22  24
ENDBRANCH  21  22
ENDBRANCH   8  21
ENDBRANCH   3   8
ENDBRANCH   2   3
TORSDOF 9
ENDMDL
MODEL       90
REMARK 921   NORMALIZED FREE ENERGY PREDICTED BY IDOCK:   -4.44 KCAL/MOL
REMARK 922        TOTAL FREE ENERGY PREDICTED BY IDOCK:   -8.46 KCAL/MOL
REMARK 923 INTER-LIGAND FREE ENERGY PREDICTED BY IDOCK:   -6.93 KCAL/MOL
REMARK 924 INTRA-LIGAND FREE ENERGY PREDICTED BY IDOCK:   -1.53 KCAL/MOL
REMARK 927      BINDING AFFINITY PREDICTED BY RF-SCORE:    0.00 PKD
ROOT
HETATM    1  C   UNL     1     -12.492  12.545  64.355  1.00  0.00    -0.530 C  
HETATM    2  C   UNL     1     -12.000  12.490  65.798  1.00  0.00    -0.482 C  
ENDROOT
BRANCH   2   3
HETATM    3  C   UNL     1     -10.569  11.923  65.905  1.00  0.00    -0.266 C  
BRANCH   3   4
HETATM    4  O   UNL     1     -10.686  10.466  65.932  1.00  0.00    -0.098 OA 
BRANCH   4   5
HETATM    5  C   UNL     1      -9.763   9.724  65.264  1.00  0.00    -0.300 C  
HETATM    6  C   UNL     1      -9.569  10.284  63.879  1.00  0.00    -0.354 C  
HETATM    7  O   UNL     1      -9.234   8.703  65.677  1.00  0.00    -0.200 OA 
ENDBRANCH   4   5
ENDBRANCH   3   4
BRANCH   3   8
HETATM    8  C   UNL     1      -9.752  12.428  67.199  1.00  0.00    -0.207 C  
BRANCH   8   9
HETATM    9  C   UNL     1     -10.348  11.701  68.455  1.00  0.00    -0.215 A  
HETATM   10  C   UNL     1     -11.591  12.009  69.034  1.00  0.00    -0.370 A  
HETATM   11  C   UNL     1     -12.118  11.250  70.092  1.00  0.00    -0.448 A  
HETATM   12  C   UNL     1     -11.383  10.214  70.656  1.00  0.00    -0.433 A  
HETATM   13  C   UNL     1     -10.128   9.922  70.150  1.00  0.00    -0.309 A  
HETATM   14  C   UNL     1      -9.639  10.635  69.051  1.00  0.00    -0.207 A  
ENDBRANCH   8   9
BRANCH   8  15
HETATM   15  C   UNL     1      -9.942  14.026  67.261  1.00  0.00    -0.242 A  
HETATM   16  C   UNL     1     -10.319  14.724  68.426  1.00  0.00    -0.233 A  
HETATM   17  C   UNL     1     -10.388  16.128  68.458  1.00  0.00    -0.254 A  
HETATM   18  C   UNL     1     -10.076  16.885  67.329  1.00  0.00    -0.286 A  
HETATM   19  C   UNL     1      -9.667  14.836  66.132  1.00  0.00    -0.338 A  
HETATM   20  C   UNL     1      -9.724  16.233  66.160  1.00  0.00    -0.357 A  
ENDBRANCH   8  15
BRANCH   8  21
HETATM   21  C   UNL     1      -8.175  12.108  67.093  1.00  0.00    -0.182 C  
BRANCH  21  22
HETATM   22  C   UNL     1      -6.969  12.923  67.688  1.00  0.00    -0.152 C  
HETATM   23  C   UNL     1      -5.615  12.335  67.249  1.00  0.00    -0.122 C  
BRANCH  22  24
HETATM   24  N   UNL     1      -7.016  13.238  69.134  1.00  0.00    -0.073 NA 
HETATM   25  C   UNL     1      -6.125  12.407  69.956  1.00  0.00    -0.123 C  
HETATM   26  C   UNL     1      -6.704  14.647  69.439  1.00  0.00    -0.147 C  
ENDBRANCH  22  24
ENDBRANCH  21  22
ENDBRANCH   8  21
ENDBRANCH   3   8
ENDBRANCH   2   3
TORSDOF 9
ENDMDL
MODEL       91
REMARK 921   NORMALIZED FREE ENERGY PREDICTED BY IDOCK:   -4.43 KCAL/MOL
REMARK 922        TOTAL FREE ENERGY PREDICTED BY IDOCK:   -8.45 KCAL/MOL
REMARK 923 INTER-LIGAND FREE ENERGY PREDICTED BY IDOCK:   -7.11 KCAL/MOL
REMARK 924 INTRA-LIGAND FREE ENERGY PREDICTED BY IDOCK:   -1.34 KCAL/MOL
REMARK 927      BINDING AFFINITY PREDICTED BY RF-SCORE:    0.00 PKD
ROOT
HETATM    1  C   UNL     1     -10.620   8.360  72.186  1.00  0.00    -0.400 C  
HETATM    2  C   UNL     1     -11.129   8.561  70.763  1.00  0.00    -0.288 C  
ENDROOT
BRANCH   2   3
HETATM    3  C   UNL     1     -11.107  10.044  70.339  1.00  0.00    -0.327 C  
BRANCH   3   4
HETATM    4  O   UNL     1     -12.497  10.488  70.256  1.00  0.00    -0.305 OA 
BRANCH   4   5
HETATM    5  C   UNL     1     -13.195  10.670  71.407  1.00  0.00    -0.323 C  
HETATM    6  C   UNL     1     -13.061  12.100  71.861  1.00  0.00    -0.475 C  
HETATM    7  O   UNL     1     -13.771   9.796  72.039  1.00  0.00    -0.358 OA 
ENDBRANCH   4   5
ENDBRANCH   3   4
BRANCH   3   8
HETATM    8  C   UNL     1     -10.361  10.322  68.938  1.00  0.00    -0.221 C  
BRANCH   8   9
HETATM    9  C   UNL     1      -8.838  10.546  69.243  1.00  0.00    -0.135 A  
HETATM   10  C   UNL     1      -8.066  11.588  68.701  1.00  0.00    -0.132 A  
HETATM   11  C   UNL     1      -6.735  11.800  69.097  1.00  0.00    -0.110 A  
HETATM   12  C   UNL     1      -6.112  10.930  69.983  1.00  0.00    -0.121 A  
HETATM   13  C   UNL     1      -6.825   9.857  70.490  1.00  0.00    -0.122 A  
HETATM   14  C   UNL     1      -8.169   9.692  70.147  1.00  0.00    -0.206 A  
ENDBRANCH   8   9
BRANCH   8  15
HETATM   15  C   UNL     1     -11.062  11.623  68.300  1.00  0.00    -0.287 A  
HETATM   16  C   UNL     1     -11.251  12.832  68.999  1.00  0.00    -0.317 A  
HETATM   17  C   UNL     1     -11.789  13.972  68.376  1.00  0.00    -0.397 A  
HETATM   18  C   UNL     1     -12.152  13.946  67.030  1.00  0.00    -0.451 A  
HETATM   19  C   UNL     1     -11.477  11.637  66.946  1.00  0.00    -0.320 A  
HETATM   20  C   UNL     1     -12.004  12.769  66.317  1.00  0.00    -0.460 A  
ENDBRANCH   8  15
BRANCH   8  21
HETATM   21  C   UNL     1     -10.524   9.097  67.902  1.00  0.00    -0.293 C  
BRANCH  21  22
HETATM   22  C   UNL     1      -9.400   8.281  67.166  1.00  0.00    -0.151 C  
HETATM   23  C   UNL     1      -9.178   8.787  65.729  1.00  0.00    -0.269 C  
BRANCH  22  24
HETATM   24  N   UNL     1      -9.475   6.804  67.249  1.00  0.00    -0.131 NA 
HETATM   25  C   UNL     1      -9.044   6.255  68.542  1.00  0.00    -0.125 C  
HETATM   26  C   UNL     1     -10.822   6.269  66.975  1.00  0.00    -0.383 C  
ENDBRANCH  22  24
ENDBRANCH  21  22
ENDBRANCH   8  21
ENDBRANCH   3   8
ENDBRANCH   2   3
TORSDOF 9
ENDMDL
MODEL       92
REMARK 921   NORMALIZED FREE ENERGY PREDICTED BY IDOCK:   -4.43 KCAL/MOL
REMARK 922        TOTAL FREE ENERGY PREDICTED BY IDOCK:   -8.45 KCAL/MOL
REMARK 923 INTER-LIGAND FREE ENERGY PREDICTED BY IDOCK:   -6.85 KCAL/MOL
REMARK 924 INTRA-LIGAND FREE ENERGY PREDICTED BY IDOCK:   -1.60 KCAL/MOL
REMARK 927      BINDING AFFINITY PREDICTED BY RF-SCORE:    0.00 PKD
ROOT
HETATM    1  C   UNL     1     -10.149  10.274  65.330  1.00  0.00    -0.354 C  
HETATM    2  C   UNL     1      -9.478  11.640  65.431  1.00  0.00    -0.190 C  
ENDROOT
BRANCH   2   3
HETATM    3  C   UNL     1     -10.397  12.695  66.081  1.00  0.00    -0.256 C  
BRANCH   3   4
HETATM    4  O   UNL     1     -10.705  13.688  65.054  1.00  0.00    -0.323 OA 
BRANCH   4   5
HETATM    5  C   UNL     1     -11.912  13.634  64.433  1.00  0.00    -0.437 C  
HETATM    6  C   UNL     1     -13.010  13.871  65.438  1.00  0.00    -0.368 C  
HETATM    7  O   UNL     1     -12.100  13.345  63.260  1.00  0.00    -0.537 OA 
ENDBRANCH   4   5
ENDBRANCH   3   4
BRANCH   3   8
HETATM    8  C   UNL     1      -9.760  13.423  67.370  1.00  0.00    -0.221 C  
BRANCH   8   9
HETATM    9  C   UNL     1     -10.699  13.136  68.594  1.00  0.00    -0.274 A  
HETATM   10  C   UNL     1     -11.049  14.090  69.566  1.00  0.00    -0.200 A  
HETATM   11  C   UNL     1     -11.980  13.801  70.577  1.00  0.00    -0.367 A  
HETATM   12  C   UNL     1     -12.526  12.529  70.697  1.00  0.00    -0.323 A  
HETATM   13  C   UNL     1     -12.157  11.548  69.792  1.00  0.00    -0.374 A  
HETATM   14  C   UNL     1     -11.284  11.860  68.746  1.00  0.00    -0.314 A  
ENDBRANCH   8   9
BRANCH   8  15
HETATM   15  C   UNL     1      -9.675  14.990  67.010  1.00  0.00    -0.241 A  
HETATM   16  C   UNL     1     -10.734  15.898  67.210  1.00  0.00    -0.306 A  
HETATM   17  C   UNL     1     -10.587  17.275  66.964  1.00  0.00    -0.231 A  
HETATM   18  C   UNL     1      -9.373  17.794  66.515  1.00  0.00    -0.291 A  
HETATM   19  C   UNL     1      -8.474  15.561  66.522  1.00  0.00    -0.283 A  
HETATM   20  C   UNL     1      -8.318  16.930  66.285  1.00  0.00    -0.331 A  
ENDBRANCH   8  15
BRANCH   8  21
HETATM   21  C   UNL     1      -8.273  12.897  67.701  1.00  0.00    -0.177 C  
BRANCH  21  22
HETATM   22  C   UNL     1      -7.814  11.912  68.838  1.00  0.00     0.015 C  
HETATM   23  C   UNL     1      -6.393  12.238  69.333  1.00  0.00    -0.118 C  
BRANCH  22  24
HETATM   24  N   UNL     1      -8.020  10.464  68.600  1.00  0.00    -0.108 NA 
HETATM   25  C   UNL     1      -7.081   9.878  67.634  1.00  0.00    -0.087 C  
HETATM   26  C   UNL     1      -7.949   9.651  69.828  1.00  0.00    -0.151 C  
ENDBRANCH  22  24
ENDBRANCH  21  22
ENDBRANCH   8  21
ENDBRANCH   3   8
ENDBRANCH   2   3
TORSDOF 9
ENDMDL
MODEL       93
REMARK 921   NORMALIZED FREE ENERGY PREDICTED BY IDOCK:   -4.41 KCAL/MOL
REMARK 922        TOTAL FREE ENERGY PREDICTED BY IDOCK:   -8.42 KCAL/MOL
REMARK 923 INTER-LIGAND FREE ENERGY PREDICTED BY IDOCK:   -6.85 KCAL/MOL
REMARK 924 INTRA-LIGAND FREE ENERGY PREDICTED BY IDOCK:   -1.57 KCAL/MOL
REMARK 927      BINDING AFFINITY PREDICTED BY RF-SCORE:    0.00 PKD
ROOT
HETATM    1  C   UNL     1      -7.252   9.241  70.864  1.00  0.00    -0.113 C  
HETATM    2  C   UNL     1      -7.950   7.925  70.538  1.00  0.00    -0.097 C  
ENDROOT
BRANCH   2   3
HETATM    3  C   UNL     1      -9.298   7.781  71.274  1.00  0.00    -0.152 C  
BRANCH   3   4
HETATM    4  O   UNL     1      -9.097   6.818  72.355  1.00  0.00    -0.136 OA 
BRANCH   4   5
HETATM    5  C   UNL     1      -9.437   7.177  73.621  1.00  0.00    -0.224 C  
HETATM    6  C   UNL     1      -8.303   7.940  74.253  1.00  0.00    -0.297 C  
HETATM    7  O   UNL     1     -10.463   6.856  74.203  1.00  0.00    -0.357 OA 
ENDBRANCH   4   5
ENDBRANCH   3   4
BRANCH   3   8
HETATM    8  C   UNL     1     -10.517   7.300  70.335  1.00  0.00    -0.232 C  
BRANCH   8   9
HETATM    9  C   UNL     1     -10.311   7.941  68.918  1.00  0.00    -0.225 A  
HETATM   10  C   UNL     1      -9.991   7.214  67.758  1.00  0.00    -0.192 A  
HETATM   11  C   UNL     1      -9.926   7.832  66.498  1.00  0.00    -0.244 A  
HETATM   12  C   UNL     1     -10.097   9.205  66.371  1.00  0.00    -0.345 A  
HETATM   13  C   UNL     1     -10.353   9.961  67.503  1.00  0.00    -0.289 A  
HETATM   14  C   UNL     1     -10.487   9.331  68.744  1.00  0.00    -0.233 A  
ENDBRANCH   8   9
BRANCH   8  15
HETATM   15  C   UNL     1     -11.868   7.804  71.052  1.00  0.00    -0.290 A  
HETATM   16  C   UNL     1     -12.030   9.094  71.595  1.00  0.00    -0.437 A  
HETATM   17  C   UNL     1     -13.257   9.523  72.133  1.00  0.00    -0.539 A  
HETATM   18  C   UNL     1     -14.367   8.678  72.142  1.00  0.00    -0.518 A  
HETATM   19  C   UNL     1     -13.013   6.973  71.114  1.00  0.00    -0.293 A  
HETATM   20  C   UNL     1     -14.238   7.396  71.638  1.00  0.00    -0.583 A  
ENDBRANCH   8  15
BRANCH   8  21
HETATM   21  C   UNL     1     -10.586   5.696  70.193  1.00  0.00    -0.380 C  
BRANCH  21  22
HETATM   22  C   UNL     1      -9.443   4.642  70.427  1.00  0.00    -0.171 C  
HETATM   23  C   UNL     1      -8.756   4.246  69.107  1.00  0.00    -0.120 C  
BRANCH  22  24
HETATM   24  N   UNL     1      -9.767   3.473  71.277  1.00  0.00    -0.174 NA 
HETATM   25  C   UNL     1      -9.506   2.177  70.637  1.00  0.00    -0.113 C  
HETATM   26  C   UNL     1      -9.056   3.473  72.570  1.00  0.00    -0.096 C  
ENDBRANCH  22  24
ENDBRANCH  21  22
ENDBRANCH   8  21
ENDBRANCH   3   8
ENDBRANCH   2   3
TORSDOF 9
ENDMDL
MODEL       94
REMARK 921   NORMALIZED FREE ENERGY PREDICTED BY IDOCK:   -4.39 KCAL/MOL
REMARK 922        TOTAL FREE ENERGY PREDICTED BY IDOCK:   -8.40 KCAL/MOL
REMARK 923 INTER-LIGAND FREE ENERGY PREDICTED BY IDOCK:   -7.34 KCAL/MOL
REMARK 924 INTRA-LIGAND FREE ENERGY PREDICTED BY IDOCK:   -1.06 KCAL/MOL
REMARK 927      BINDING AFFINITY PREDICTED BY RF-SCORE:    0.00 PKD
ROOT
HETATM    1  C   UNL     1      -6.522  12.292  68.565  1.00  0.00    -0.064 C  
HETATM    2  C   UNL     1      -7.409  13.005  67.550  1.00  0.00    -0.154 C  
ENDROOT
BRANCH   2   3
HETATM    3  C   UNL     1      -8.821  12.387  67.474  1.00  0.00    -0.181 C  
BRANCH   3   4
HETATM    4  O   UNL     1      -9.077  12.074  66.069  1.00  0.00    -0.191 OA 
BRANCH   4   5
HETATM    5  C   UNL     1      -9.166  10.770  65.696  1.00  0.00    -0.199 C  
HETATM    6  C   UNL     1      -7.827  10.294  65.195  1.00  0.00    -0.138 C  
HETATM    7  O   UNL     1     -10.189  10.101  65.676  1.00  0.00    -0.275 OA 
ENDBRANCH   4   5
ENDBRANCH   3   4
BRANCH   3   8
HETATM    8  C   UNL     1      -9.991  13.338  68.042  1.00  0.00    -0.233 C  
BRANCH   8   9
HETATM    9  C   UNL     1     -10.860  12.486  69.033  1.00  0.00    -0.183 A  
HETATM   10  C   UNL     1     -11.796  13.025  69.932  1.00  0.00    -0.377 A  
HETATM   11  C   UNL     1     -12.621  12.202  70.717  1.00  0.00    -0.305 A  
HETATM   12  C   UNL     1     -12.478  10.820  70.687  1.00  0.00    -0.461 A  
HETATM   13  C   UNL     1     -11.524  10.257  69.857  1.00  0.00    -0.340 A  
HETATM   14  C   UNL     1     -10.755  11.077  69.026  1.00  0.00    -0.258 A  
ENDBRANCH   8   9
BRANCH   8  15
HETATM   15  C   UNL     1     -10.828  13.843  66.763  1.00  0.00    -0.286 A  
HETATM   16  C   UNL     1     -10.303  14.697  65.773  1.00  0.00    -0.349 A  
HETATM   17  C   UNL     1     -11.040  15.043  64.626  1.00  0.00    -0.335 A  
HETATM   18  C   UNL     1     -12.326  14.543  64.426  1.00  0.00    -0.437 A  
HETATM   19  C   UNL     1     -12.149  13.388  66.531  1.00  0.00    -0.444 A  
HETATM   20  C   UNL     1     -12.884  13.720  65.389  1.00  0.00    -0.455 A  
ENDBRANCH   8  15
BRANCH   8  21
HETATM   21  C   UNL     1      -9.413  14.630  68.813  1.00  0.00    -0.199 C  
BRANCH  21  22
HETATM   22  C   UNL     1     -10.025  16.077  68.894  1.00  0.00    -0.232 C  
HETATM   23  C   UNL     1     -11.555  16.037  69.058  1.00  0.00    -0.350 C  
BRANCH  22  24
HETATM   24  N   UNL     1      -9.582  17.053  67.872  1.00  0.00    -0.245 NA 
HETATM   25  C   UNL     1     -10.421  18.257  67.793  1.00  0.00    -0.410 C  
HETATM   26  C   UNL     1      -8.190  17.504  68.056  1.00  0.00    -0.239 C  
ENDBRANCH  22  24
ENDBRANCH  21  22
ENDBRANCH   8  21
ENDBRANCH   3   8
ENDBRANCH   2   3
TORSDOF 9
ENDMDL
MODEL       95
REMARK 921   NORMALIZED FREE ENERGY PREDICTED BY IDOCK:   -4.37 KCAL/MOL
REMARK 922        TOTAL FREE ENERGY PREDICTED BY IDOCK:   -8.36 KCAL/MOL
REMARK 923 INTER-LIGAND FREE ENERGY PREDICTED BY IDOCK:   -6.60 KCAL/MOL
REMARK 924 INTRA-LIGAND FREE ENERGY PREDICTED BY IDOCK:   -1.75 KCAL/MOL
REMARK 927      BINDING AFFINITY PREDICTED BY RF-SCORE:    0.00 PKD
ROOT
HETATM    1  C   UNL     1     -10.777   7.373  67.202  1.00  0.00    -0.400 C  
HETATM    2  C   UNL     1     -10.005   8.396  68.029  1.00  0.00    -0.221 C  
ENDROOT
BRANCH   2   3
HETATM    3  C   UNL     1      -9.794   9.721  67.269  1.00  0.00    -0.181 C  
BRANCH   3   4
HETATM    4  O   UNL     1      -8.469   9.659  66.655  1.00  0.00    -0.122 OA 
BRANCH   4   5
HETATM    5  C   UNL     1      -8.376   9.676  65.299  1.00  0.00    -0.134 C  
HETATM    6  C   UNL     1      -6.935   9.844  64.892  1.00  0.00    -0.131 C  
HETATM    7  O   UNL     1      -9.316   9.653  64.518  1.00  0.00    -0.261 OA 
ENDBRANCH   4   5
ENDBRANCH   3   4
BRANCH   3   8
HETATM    8  C   UNL     1      -9.905  11.038  68.191  1.00  0.00    -0.185 C  
BRANCH   8   9
HETATM    9  C   UNL     1     -10.870  12.045  67.472  1.00  0.00    -0.284 A  
HETATM   10  C   UNL     1     -11.256  13.290  68.000  1.00  0.00    -0.307 A  
HETATM   11  C   UNL     1     -12.036  14.193  67.261  1.00  0.00    -0.449 A  
HETATM   12  C   UNL     1     -12.522  13.848  66.006  1.00  0.00    -0.501 A  
HETATM   13  C   UNL     1     -12.213  12.605  65.480  1.00  0.00    -0.501 A  
HETATM   14  C   UNL     1     -11.378  11.738  66.190  1.00  0.00    -0.342 A  
ENDBRANCH   8   9
BRANCH   8  15
HETATM   15  C   UNL     1      -8.410  11.615  68.341  1.00  0.00    -0.157 A  
HETATM   16  C   UNL     1      -7.455  11.089  69.234  1.00  0.00    -0.100 A  
HETATM   17  C   UNL     1      -6.132  11.567  69.271  1.00  0.00    -0.068 A  
HETATM   18  C   UNL     1      -5.716  12.584  68.412  1.00  0.00    -0.058 A  
HETATM   19  C   UNL     1      -7.948  12.668  67.514  1.00  0.00    -0.174 A  
HETATM   20  C   UNL     1      -6.633  13.141  67.538  1.00  0.00    -0.159 A  
ENDBRANCH   8  15
BRANCH   8  21
HETATM   21  C   UNL     1     -10.473  10.711  69.664  1.00  0.00    -0.219 C  
BRANCH  21  22
HETATM   22  C   UNL     1     -11.970  10.561  70.125  1.00  0.00    -0.316 C  
HETATM   23  C   UNL     1     -12.486  11.843  70.803  1.00  0.00    -0.384 C  
BRANCH  22  24
HETATM   24  N   UNL     1     -12.324   9.333  70.873  1.00  0.00    -0.223 NA 
HETATM   25  C   UNL     1     -11.179   8.674  71.517  1.00  0.00    -0.290 C  
HETATM   26  C   UNL     1     -13.343   9.554  71.916  1.00  0.00    -0.437 C  
ENDBRANCH  22  24
ENDBRANCH  21  22
ENDBRANCH   8  21
ENDBRANCH   3   8
ENDBRANCH   2   3
TORSDOF 9
ENDMDL
MODEL       96
REMARK 921   NORMALIZED FREE ENERGY PREDICTED BY IDOCK:   -4.36 KCAL/MOL
REMARK 922        TOTAL FREE ENERGY PREDICTED BY IDOCK:   -8.35 KCAL/MOL
REMARK 923 INTER-LIGAND FREE ENERGY PREDICTED BY IDOCK:   -6.57 KCAL/MOL
REMARK 924 INTRA-LIGAND FREE ENERGY PREDICTED BY IDOCK:   -1.77 KCAL/MOL
REMARK 927      BINDING AFFINITY PREDICTED BY RF-SCORE:    0.00 PKD
ROOT
HETATM    1  C   UNL     1      -9.015   8.114  73.557  1.00  0.00    -0.295 C  
HETATM    2  C   UNL     1      -9.478   7.331  72.333  1.00  0.00    -0.178 C  
ENDROOT
BRANCH   2   3
HETATM    3  C   UNL     1      -8.973   7.956  71.015  1.00  0.00    -0.142 C  
BRANCH   3   4
HETATM    4  O   UNL     1      -8.273   9.190  71.366  1.00  0.00    -0.316 OA 
BRANCH   4   5
HETATM    5  C   UNL     1      -6.969   9.326  71.008  1.00  0.00    -0.084 C  
HETATM    6  C   UNL     1      -6.438   8.005  70.516  1.00  0.00    -0.037 C  
HETATM    7  O   UNL     1      -6.292  10.335  71.146  1.00  0.00    -0.329 OA 
ENDBRANCH   4   5
ENDBRANCH   3   4
BRANCH   3   8
HETATM    8  C   UNL     1     -10.135   8.273  69.944  1.00  0.00    -0.195 C  
BRANCH   8   9
HETATM    9  C   UNL     1     -11.483   8.426  70.732  1.00  0.00    -0.277 A  
HETATM   10  C   UNL     1     -11.925   9.623  71.322  1.00  0.00    -0.462 A  
HETATM   11  C   UNL     1     -13.192   9.724  71.920  1.00  0.00    -0.545 A  
HETATM   12  C   UNL     1     -14.019   8.612  72.022  1.00  0.00    -0.506 A  
HETATM   13  C   UNL     1     -13.589   7.401  71.506  1.00  0.00    -0.454 A  
HETATM   14  C   UNL     1     -12.358   7.324  70.849  1.00  0.00    -0.287 A  
ENDBRANCH   8   9
BRANCH   8  15
HETATM   15  C   UNL     1     -10.156   7.033  68.918  1.00  0.00    -0.174 A  
HETATM   16  C   UNL     1     -11.030   6.946  67.815  1.00  0.00    -0.280 A  
HETATM   17  C   UNL     1     -10.956   5.886  66.892  1.00  0.00    -0.304 A  
HETATM   18  C   UNL     1     -10.001   4.880  67.036  1.00  0.00    -0.238 A  
HETATM   19  C   UNL     1      -9.228   5.970  69.039  1.00  0.00    -0.125 A  
HETATM   20  C   UNL     1      -9.142   4.919  68.120  1.00  0.00    -0.134 A  
ENDBRANCH   8  15
BRANCH   8  21
HETATM   21  C   UNL     1      -9.847   9.620  69.107  1.00  0.00    -0.189 C  
BRANCH  21  22
HETATM   22  C   UNL     1      -9.387   9.763  67.610  1.00  0.00    -0.140 C  
HETATM   23  C   UNL     1      -7.858   9.654  67.473  1.00  0.00    -0.095 C  
BRANCH  22  24
HETATM   24  N   UNL     1      -9.954  10.891  66.836  1.00  0.00    -0.189 NA 
HETATM   25  C   UNL     1     -10.122  10.608  65.403  1.00  0.00    -0.291 C  
HETATM   26  C   UNL     1     -11.259  11.354  67.344  1.00  0.00    -0.305 C  
ENDBRANCH  22  24
ENDBRANCH  21  22
ENDBRANCH   8  21
ENDBRANCH   3   8
ENDBRANCH   2   3
TORSDOF 9
ENDMDL
MODEL       97
REMARK 921   NORMALIZED FREE ENERGY PREDICTED BY IDOCK:   -4.36 KCAL/MOL
REMARK 922        TOTAL FREE ENERGY PREDICTED BY IDOCK:   -8.34 KCAL/MOL
REMARK 923 INTER-LIGAND FREE ENERGY PREDICTED BY IDOCK:   -6.96 KCAL/MOL
REMARK 924 INTRA-LIGAND FREE ENERGY PREDICTED BY IDOCK:   -1.38 KCAL/MOL
REMARK 927      BINDING AFFINITY PREDICTED BY RF-SCORE:    0.00 PKD
ROOT
HETATM    1  C   UNL     1      -6.932  10.244  65.336  1.00  0.00    -0.139 C  
HETATM    2  C   UNL     1      -7.540  10.272  66.734  1.00  0.00    -0.107 C  
ENDROOT
BRANCH   2   3
HETATM    3  C   UNL     1      -8.278  11.595  67.023  1.00  0.00    -0.170 C  
BRANCH   3   4
HETATM    4  O   UNL     1      -7.610  12.220  68.163  1.00  0.00    -0.108 OA 
BRANCH   4   5
HETATM    5  C   UNL     1      -6.447  12.890  67.952  1.00  0.00    -0.127 C  
HETATM    6  C   UNL     1      -5.363  12.311  68.824  1.00  0.00    -0.050 C  
HETATM    7  O   UNL     1      -6.308  13.872  67.238  1.00  0.00    -0.296 OA 
ENDBRANCH   4   5
ENDBRANCH   3   4
BRANCH   3   8
HETATM    8  C   UNL     1      -9.849  11.421  67.341  1.00  0.00    -0.199 C  
BRANCH   8   9
HETATM    9  C   UNL     1     -10.089   9.928  67.761  1.00  0.00    -0.221 A  
HETATM   10  C   UNL     1     -10.070   9.465  69.088  1.00  0.00    -0.200 A  
HETATM   11  C   UNL     1     -10.399   8.138  69.408  1.00  0.00    -0.219 A  
HETATM   12  C   UNL     1     -10.678   7.215  68.408  1.00  0.00    -0.192 A  
HETATM   13  C   UNL     1     -10.646   7.622  67.085  1.00  0.00    -0.410 A  
HETATM   14  C   UNL     1     -10.387   8.961  66.777  1.00  0.00    -0.317 A  
ENDBRANCH   8   9
BRANCH   8  15
HETATM   15  C   UNL     1     -10.632  11.817  65.991  1.00  0.00    -0.302 A  
HETATM   16  C   UNL     1     -11.982  12.221  65.959  1.00  0.00    -0.342 A  
HETATM   17  C   UNL     1     -12.601  12.643  64.769  1.00  0.00    -0.530 A  
HETATM   18  C   UNL     1     -11.891  12.681  63.569  1.00  0.00    -0.619 A  
HETATM   19  C   UNL     1      -9.964  11.841  64.741  1.00  0.00    -0.275 A  
HETATM   20  C   UNL     1     -10.571  12.268  63.557  1.00  0.00    -0.488 A  
ENDBRANCH   8  15
BRANCH   8  21
HETATM   21  C   UNL     1     -10.349  12.397  68.522  1.00  0.00    -0.232 C  
BRANCH  21  22
HETATM   22  C   UNL     1     -10.756  13.914  68.432  1.00  0.00    -0.257 C  
HETATM   23  C   UNL     1      -9.767  14.717  67.567  1.00  0.00    -0.210 C  
BRANCH  22  24
HETATM   24  N   UNL     1     -11.093  14.597  69.702  1.00  0.00    -0.262 NA 
HETATM   25  C   UNL     1     -11.053  16.063  69.621  1.00  0.00    -0.331 C  
HETATM   26  C   UNL     1     -12.418  14.226  70.234  1.00  0.00    -0.361 C  
ENDBRANCH  22  24
ENDBRANCH  21  22
ENDBRANCH   8  21
ENDBRANCH   3   8
ENDBRANCH   2   3
TORSDOF 9
ENDMDL
MODEL       98
REMARK 921   NORMALIZED FREE ENERGY PREDICTED BY IDOCK:   -4.36 KCAL/MOL
REMARK 922        TOTAL FREE ENERGY PREDICTED BY IDOCK:   -8.34 KCAL/MOL
REMARK 923 INTER-LIGAND FREE ENERGY PREDICTED BY IDOCK:   -6.96 KCAL/MOL
REMARK 924 INTRA-LIGAND FREE ENERGY PREDICTED BY IDOCK:   -1.38 KCAL/MOL
REMARK 927      BINDING AFFINITY PREDICTED BY RF-SCORE:    0.00 PKD
ROOT
HETATM    1  C   UNL     1      -6.241  10.184  69.533  1.00  0.00    -0.048 C  
HETATM    2  C   UNL     1      -7.714  10.568  69.443  1.00  0.00    -0.157 C  
ENDROOT
BRANCH   2   3
HETATM    3  C   UNL     1      -8.039  11.334  68.144  1.00  0.00    -0.134 C  
BRANCH   3   4
HETATM    4  O   UNL     1      -7.929  12.760  68.447  1.00  0.00    -0.146 OA 
BRANCH   4   5
HETATM    5  C   UNL     1      -7.098  13.526  67.693  1.00  0.00    -0.168 C  
HETATM    6  C   UNL     1      -7.795  14.806  67.311  1.00  0.00    -0.223 C  
HETATM    7  O   UNL     1      -5.987  13.200  67.300  1.00  0.00    -0.335 OA 
ENDBRANCH   4   5
ENDBRANCH   3   4
BRANCH   3   8
HETATM    8  C   UNL     1      -9.497  11.017  67.535  1.00  0.00    -0.175 C  
BRANCH   8   9
HETATM    9  C   UNL     1     -10.563  11.412  68.617  1.00  0.00    -0.229 A  
HETATM   10  C   UNL     1     -11.052  10.539  69.604  1.00  0.00    -0.338 A  
HETATM   11  C   UNL     1     -11.925  10.982  70.611  1.00  0.00    -0.464 A  
HETATM   12  C   UNL     1     -12.400  12.288  70.613  1.00  0.00    -0.375 A  
HETATM   13  C   UNL     1     -11.987  13.159  69.619  1.00  0.00    -0.370 A  
HETATM   14  C   UNL     1     -11.063  12.732  68.661  1.00  0.00    -0.304 A  
ENDBRANCH   8   9
BRANCH   8  15
HETATM   15  C   UNL     1      -9.515   9.443  67.195  1.00  0.00    -0.185 A  
HETATM   16  C   UNL     1     -10.656   8.627  67.327  1.00  0.00    -0.308 A  
HETATM   17  C   UNL     1     -10.651   7.277  66.935  1.00  0.00    -0.375 A  
HETATM   18  C   UNL     1      -9.506   6.695  66.391  1.00  0.00    -0.166 A  
HETATM   19  C   UNL     1      -8.368   8.799  66.669  1.00  0.00    -0.108 A  
HETATM   20  C   UNL     1      -8.359   7.460  66.269  1.00  0.00    -0.132 A  
ENDBRANCH   8  15
BRANCH   8  21
HETATM   21  C   UNL     1      -9.786  11.834  66.176  1.00  0.00    -0.254 C  
BRANCH  21  22
HETATM   22  C   UNL     1     -10.723  11.438  64.976  1.00  0.00    -0.277 C  
HETATM   23  C   UNL     1      -9.947  10.706  63.866  1.00  0.00    -0.390 C  
BRANCH  22  24
HETATM   24  N   UNL     1     -11.624  12.489  64.450  1.00  0.00    -0.338 NA 
HETATM   25  C   UNL     1     -12.529  12.024  63.389  1.00  0.00    -0.509 C  
HETATM   26  C   UNL     1     -12.459  13.121  65.489  1.00  0.00    -0.458 C  
ENDBRANCH  22  24
ENDBRANCH  21  22
ENDBRANCH   8  21
ENDBRANCH   3   8
ENDBRANCH   2   3
TORSDOF 9
ENDMDL
MODEL       99
REMARK 921   NORMALIZED FREE ENERGY PREDICTED BY IDOCK:   -4.35 KCAL/MOL
REMARK 922        TOTAL FREE ENERGY PREDICTED BY IDOCK:   -8.33 KCAL/MOL
REMARK 923 INTER-LIGAND FREE ENERGY PREDICTED BY IDOCK:   -7.11 KCAL/MOL
REMARK 924 INTRA-LIGAND FREE ENERGY PREDICTED BY IDOCK:   -1.22 KCAL/MOL
REMARK 927      BINDING AFFINITY PREDICTED BY RF-SCORE:    0.00 PKD
ROOT
HETATM    1  C   UNL     1      -6.956  11.642  67.327  1.00  0.00    -0.131 C  
HETATM    2  C   UNL     1      -8.161  12.016  66.471  1.00  0.00     0.054 C  
ENDROOT
BRANCH   2   3
HETATM    3  C   UNL     1      -9.081  13.036  67.174  1.00  0.00    -0.225 C  
BRANCH   3   4
HETATM    4  O   UNL     1      -8.421  13.425  68.418  1.00  0.00    -0.165 OA 
BRANCH   4   5
HETATM    5  C   UNL     1      -7.794  14.630  68.476  1.00  0.00    -0.133 C  
HETATM    6  C   UNL     1      -6.934  14.694  69.711  1.00  0.00    -0.130 C  
HETATM    7  O   UNL     1      -7.965  15.561  67.703  1.00  0.00    -0.132 OA 
ENDBRANCH   4   5
ENDBRANCH   3   4
BRANCH   3   8
HETATM    8  C   UNL     1     -10.561  12.482  67.492  1.00  0.00    -0.238 C  
BRANCH   8   9
HETATM    9  C   UNL     1     -11.217  13.447  68.541  1.00  0.00    -0.316 A  
HETATM   10  C   UNL     1     -11.303  14.842  68.392  1.00  0.00    -0.320 A  
HETATM   11  C   UNL     1     -11.998  15.640  69.315  1.00  0.00    -0.338 A  
HETATM   12  C   UNL     1     -12.557  15.079  70.457  1.00  0.00    -0.420 A  
HETATM   13  C   UNL     1     -12.438  13.715  70.668  1.00  0.00    -0.417 A  
HETATM   14  C   UNL     1     -11.807  12.917  69.710  1.00  0.00    -0.380 A  
ENDBRANCH   8   9
BRANCH   8  15
HETATM   15  C   UNL     1     -10.374  10.987  68.059  1.00  0.00    -0.209 A  
HETATM   16  C   UNL     1      -9.952  10.695  69.372  1.00  0.00    -0.183 A  
HETATM   17  C   UNL     1      -9.887   9.375  69.853  1.00  0.00    -0.235 A  
HETATM   18  C   UNL     1     -10.247   8.300  69.041  1.00  0.00    -0.226 A  
HETATM   19  C   UNL     1     -10.697   9.860  67.263  1.00  0.00    -0.304 A  
HETATM   20  C   UNL     1     -10.644   8.547  67.738  1.00  0.00    -0.242 A  
ENDBRANCH   8  15
BRANCH   8  21
HETATM   21  C   UNL     1     -11.488  12.414  66.175  1.00  0.00    -0.430 C  
BRANCH  21  22
HETATM   22  C   UNL     1     -11.404  13.290  64.872  1.00  0.00    -0.316 C  
HETATM   23  C   UNL     1     -12.411  14.454  64.904  1.00  0.00    -0.414 C  
BRANCH  22  24
HETATM   24  N   UNL     1     -11.398  12.571  63.576  1.00  0.00    -0.481 NA 
HETATM   25  C   UNL     1     -10.305  11.599  63.437  1.00  0.00    -0.435 C  
HETATM   26  C   UNL     1     -12.657  11.856  63.297  1.00  0.00    -0.344 C  
ENDBRANCH  22  24
ENDBRANCH  21  22
ENDBRANCH   8  21
ENDBRANCH   3   8
ENDBRANCH   2   3
TORSDOF 9
ENDMDL
MODEL      100
REMARK 921   NORMALIZED FREE ENERGY PREDICTED BY IDOCK:   -4.34 KCAL/MOL
REMARK 922        TOTAL FREE ENERGY PREDICTED BY IDOCK:   -8.31 KCAL/MOL
REMARK 923 INTER-LIGAND FREE ENERGY PREDICTED BY IDOCK:   -6.88 KCAL/MOL
REMARK 924 INTRA-LIGAND FREE ENERGY PREDICTED BY IDOCK:   -1.43 KCAL/MOL
REMARK 927      BINDING AFFINITY PREDICTED BY RF-SCORE:    0.00 PKD
ROOT
HETATM    1  C   UNL     1     -10.814   6.957  66.899  1.00  0.00    -0.380 C  
HETATM    2  C   UNL     1     -10.629   8.142  67.841  1.00  0.00    -0.212 C  
ENDROOT
BRANCH   2   3
HETATM    3  C   UNL     1     -10.092   9.390  67.110  1.00  0.00    -0.231 C  
BRANCH   3   4
HETATM    4  O   UNL     1      -8.681   9.142  66.817  1.00  0.00    -0.124 OA 
BRANCH   4   5
HETATM    5  C   UNL     1      -8.305   8.962  65.524  1.00  0.00    -0.136 C  
HETATM    6  C   UNL     1      -7.365   7.788  65.429  1.00  0.00    -0.077 C  
HETATM    7  O   UNL     1      -8.600   9.689  64.586  1.00  0.00    -0.157 OA 
ENDBRANCH   4   5
ENDBRANCH   3   4
BRANCH   3   8
HETATM    8  C   UNL     1     -10.243  10.761  67.943  1.00  0.00    -0.203 C  
BRANCH   8   9
HETATM    9  C   UNL     1     -10.949  10.420  69.302  1.00  0.00    -0.287 A  
HETATM   10  C   UNL     1     -12.307  10.662  69.574  1.00  0.00    -0.154 A  
HETATM   11  C   UNL     1     -12.905  10.235  70.771  1.00  0.00    -0.427 A  
HETATM   12  C   UNL     1     -12.147   9.628  71.765  1.00  0.00    -0.446 A  
HETATM   13  C   UNL     1     -10.793   9.430  71.556  1.00  0.00    -0.398 A  
HETATM   14  C   UNL     1     -10.218   9.792  70.335  1.00  0.00    -0.343 A  
ENDBRANCH   8   9
BRANCH   8  15
HETATM   15  C   UNL     1     -11.115  11.756  67.026  1.00  0.00    -0.358 A  
HETATM   16  C   UNL     1     -11.672  12.964  67.493  1.00  0.00    -0.422 A  
HETATM   17  C   UNL     1     -12.353  13.847  66.635  1.00  0.00    -0.411 A  
HETATM   18  C   UNL     1     -12.496  13.556  65.279  1.00  0.00    -0.525 A  
HETATM   19  C   UNL     1     -11.316  11.490  65.649  1.00  0.00    -0.151 A  
HETATM   20  C   UNL     1     -11.983  12.368  64.789  1.00  0.00    -0.462 A  
ENDBRANCH   8  15
BRANCH   8  21
HETATM   21  C   UNL     1      -8.820  11.460  68.239  1.00  0.00    -0.167 C  
BRANCH  21  22
HETATM   22  C   UNL     1      -8.008  12.451  67.328  1.00  0.00    -0.178 C  
HETATM   23  C   UNL     1      -6.558  11.975  67.122  1.00  0.00    -0.143 C  
BRANCH  22  24
HETATM   24  N   UNL     1      -8.097  13.893  67.653  1.00  0.00    -0.163 NA 
HETATM   25  C   UNL     1      -6.802  14.522  67.943  1.00  0.00    -0.165 C  
HETATM   26  C   UNL     1      -8.744  14.694  66.596  1.00  0.00    -0.163 C  
ENDBRANCH  22  24
ENDBRANCH  21  22
ENDBRANCH   8  21
ENDBRANCH   3   8
ENDBRANCH   2   3
TORSDOF 9
ENDMDL
MODEL      101
REMARK 921   NORMALIZED FREE ENERGY PREDICTED BY IDOCK:   -4.34 KCAL/MOL
REMARK 922        TOTAL FREE ENERGY PREDICTED BY IDOCK:   -8.31 KCAL/MOL
REMARK 923 INTER-LIGAND FREE ENERGY PREDICTED BY IDOCK:   -6.43 KCAL/MOL
REMARK 924 INTRA-LIGAND FREE ENERGY PREDICTED BY IDOCK:   -1.88 KCAL/MOL
REMARK 927      BINDING AFFINITY PREDICTED BY RF-SCORE:    0.00 PKD
ROOT
HETATM    1  C   UNL     1      -9.224   7.274  66.617  1.00  0.00    -0.193 C  
HETATM    2  C   UNL     1     -10.224   8.422  66.708  1.00  0.00    -0.376 C  
ENDROOT
BRANCH   2   3
HETATM    3  C   UNL     1      -9.883   9.405  67.847  1.00  0.00    -0.165 C  
BRANCH   3   4
HETATM    4  O   UNL     1     -10.875   9.202  68.902  1.00  0.00    -0.178 OA 
BRANCH   4   5
HETATM    5  C   UNL     1     -10.481   8.623  70.066  1.00  0.00    -0.223 C  
HETATM    6  C   UNL     1     -11.083   7.246  70.177  1.00  0.00    -0.281 C  
HETATM    7  O   UNL     1      -9.818   9.159  70.942  1.00  0.00    -0.243 OA 
ENDBRANCH   4   5
ENDBRANCH   3   4
BRANCH   3   8
HETATM    8  C   UNL     1      -9.869  10.954  67.404  1.00  0.00    -0.199 C  
BRANCH   8   9
HETATM    9  C   UNL     1      -9.821  11.002  65.836  1.00  0.00    -0.278 A  
HETATM   10  C   UNL     1      -8.747  10.532  65.060  1.00  0.00    -0.193 A  
HETATM   11  C   UNL     1      -8.810  10.503  63.658  1.00  0.00    -0.210 A  
HETATM   12  C   UNL     1      -9.912  11.020  62.987  1.00  0.00    -0.333 A  
HETATM   13  C   UNL     1     -10.962  11.547  63.719  1.00  0.00    -0.485 A  
HETATM   14  C   UNL     1     -10.924  11.508  65.115  1.00  0.00    -0.298 A  
ENDBRANCH   8   9
BRANCH   8  15
HETATM   15  C   UNL     1      -8.564  11.609  68.083  1.00  0.00    -0.158 A  
HETATM   16  C   UNL     1      -8.239  12.978  67.993  1.00  0.00    -0.161 A  
HETATM   17  C   UNL     1      -7.136  13.524  68.675  1.00  0.00    -0.106 A  
HETATM   18  C   UNL     1      -6.323  12.722  69.475  1.00  0.00    -0.108 A  
HETATM   19  C   UNL     1      -7.689  10.831  68.880  1.00  0.00    -0.129 A  
HETATM   20  C   UNL     1      -6.597  11.369  69.568  1.00  0.00    -0.129 A  
ENDBRANCH   8  15
BRANCH   8  21
HETATM   21  C   UNL     1     -11.167  11.754  67.925  1.00  0.00    -0.331 C  
BRANCH  21  22
HETATM   22  C   UNL     1     -11.297  12.705  69.170  1.00  0.00    -0.282 C  
HETATM   23  C   UNL     1     -12.086  12.040  70.313  1.00  0.00    -0.395 C  
BRANCH  22  24
HETATM   24  N   UNL     1     -11.726  14.099  68.912  1.00  0.00    -0.313 NA 
HETATM   25  C   UNL     1     -10.915  15.112  69.602  1.00  0.00    -0.281 C  
HETATM   26  C   UNL     1     -11.740  14.453  67.480  1.00  0.00    -0.387 C  
ENDBRANCH  22  24
ENDBRANCH  21  22
ENDBRANCH   8  21
ENDBRANCH   3   8
ENDBRANCH   2   3
TORSDOF 9
ENDMDL
MODEL      102
REMARK 921   NORMALIZED FREE ENERGY PREDICTED BY IDOCK:   -4.33 KCAL/MOL
REMARK 922        TOTAL FREE ENERGY PREDICTED BY IDOCK:   -8.30 KCAL/MOL
REMARK 923 INTER-LIGAND FREE ENERGY PREDICTED BY IDOCK:   -7.26 KCAL/MOL
REMARK 924 INTRA-LIGAND FREE ENERGY PREDICTED BY IDOCK:   -1.04 KCAL/MOL
REMARK 927      BINDING AFFINITY PREDICTED BY RF-SCORE:    0.00 PKD
ROOT
HETATM    1  C   UNL     1     -11.896  15.417  68.568  1.00  0.00    -0.293 C  
HETATM    2  C   UNL     1     -12.029  13.904  68.442  1.00  0.00    -0.391 C  
ENDROOT
BRANCH   2   3
HETATM    3  C   UNL     1     -11.239  13.346  67.240  1.00  0.00    -0.295 C  
BRANCH   3   4
HETATM    4  O   UNL     1     -12.152  12.490  66.485  1.00  0.00    -0.572 OA 
BRANCH   4   5
HETATM    5  C   UNL     1     -12.566  12.900  65.257  1.00  0.00    -0.439 C  
HETATM    6  C   UNL     1     -11.950  14.237  64.934  1.00  0.00    -0.430 C  
HETATM    7  O   UNL     1     -13.386  12.329  64.553  1.00  0.00    -0.769 OA 
ENDBRANCH   4   5
ENDBRANCH   3   4
BRANCH   3   8
HETATM    8  C   UNL     1      -9.920  12.513  67.644  1.00  0.00    -0.201 C  
BRANCH   8   9
HETATM    9  C   UNL     1      -8.717  13.519  67.702  1.00  0.00    -0.194 A  
HETATM   10  C   UNL     1      -7.450  13.212  68.227  1.00  0.00    -0.129 A  
HETATM   11  C   UNL     1      -6.382  14.121  68.152  1.00  0.00    -0.132 A  
HETATM   12  C   UNL     1      -6.570  15.394  67.626  1.00  0.00    -0.195 A  
HETATM   13  C   UNL     1      -7.823  15.752  67.156  1.00  0.00    -0.247 A  
HETATM   14  C   UNL     1      -8.863  14.819  67.169  1.00  0.00    -0.234 A  
ENDBRANCH   8   9
BRANCH   8  15
HETATM   15  C   UNL     1      -9.729  11.386  66.510  1.00  0.00    -0.226 A  
HETATM   16  C   UNL     1      -9.223  11.652  65.221  1.00  0.00    -0.039 A  
HETATM   17  C   UNL     1      -8.990  10.623  64.290  1.00  0.00    -0.214 A  
HETATM   18  C   UNL     1      -9.249   9.292  64.617  1.00  0.00    -0.112 A  
HETATM   19  C   UNL     1     -10.007  10.024  66.781  1.00  0.00    -0.267 A  
HETATM   20  C   UNL     1      -9.769   8.996  65.865  1.00  0.00    -0.306 A  
ENDBRANCH   8  15
BRANCH   8  21
HETATM   21  C   UNL     1     -10.071  11.777  69.070  1.00  0.00    -0.004 C  
BRANCH  21  22
HETATM   22  C   UNL     1     -11.218  10.818  69.560  1.00  0.00    -0.281 C  
HETATM   23  C   UNL     1     -12.221  11.552  70.469  1.00  0.00    -0.469 C  
BRANCH  22  24
HETATM   24  N   UNL     1     -10.810   9.501  70.101  1.00  0.00    -0.242 NA 
HETATM   25  C   UNL     1      -9.356   9.327  70.218  1.00  0.00    -0.239 C  
HETATM   26  C   UNL     1     -11.393   9.204  71.424  1.00  0.00    -0.344 C  
ENDBRANCH  22  24
ENDBRANCH  21  22
ENDBRANCH   8  21
ENDBRANCH   3   8
ENDBRANCH   2   3
TORSDOF 9
ENDMDL
MODEL      103
REMARK 921   NORMALIZED FREE ENERGY PREDICTED BY IDOCK:   -4.32 KCAL/MOL
REMARK 922        TOTAL FREE ENERGY PREDICTED BY IDOCK:   -8.28 KCAL/MOL
REMARK 923 INTER-LIGAND FREE ENERGY PREDICTED BY IDOCK:   -6.99 KCAL/MOL
REMARK 924 INTRA-LIGAND FREE ENERGY PREDICTED BY IDOCK:   -1.30 KCAL/MOL
REMARK 927      BINDING AFFINITY PREDICTED BY RF-SCORE:    0.00 PKD
ROOT
HETATM    1  C   UNL     1     -12.464  12.667  64.878  1.00  0.00    -0.564 C  
HETATM    2  C   UNL     1     -11.420  11.658  65.343  1.00  0.00    -0.170 C  
ENDROOT
BRANCH   2   3
HETATM    3  C   UNL     1     -11.041  11.852  66.826  1.00  0.00    -0.308 C  
BRANCH   3   4
HETATM    4  O   UNL     1     -10.175  13.028  66.898  1.00  0.00    -0.239 OA 
BRANCH   4   5
HETATM    5  C   UNL     1     -10.738  14.239  67.149  1.00  0.00    -0.282 C  
HETATM    6  C   UNL     1     -11.723  14.114  68.283  1.00  0.00    -0.383 C  
HETATM    7  O   UNL     1     -10.553  15.261  66.504  1.00  0.00    -0.292 OA 
ENDBRANCH   4   5
ENDBRANCH   3   4
BRANCH   3   8
HETATM    8  C   UNL     1     -10.296  10.587  67.491  1.00  0.00    -0.265 C  
BRANCH   8   9
HETATM    9  C   UNL     1     -10.902  10.373  68.922  1.00  0.00    -0.273 A  
HETATM   10  C   UNL     1     -12.115  10.932  69.362  1.00  0.00    -0.362 A  
HETATM   11  C   UNL     1     -12.657  10.615  70.618  1.00  0.00    -0.454 A  
HETATM   12  C   UNL     1     -11.966   9.798  71.504  1.00  0.00    -0.488 A  
HETATM   13  C   UNL     1     -10.739   9.279  71.127  1.00  0.00    -0.403 A  
HETATM   14  C   UNL     1     -10.237   9.540  69.849  1.00  0.00    -0.261 A  
ENDBRANCH   8   9
BRANCH   8  15
HETATM   15  C   UNL     1      -8.728  10.951  67.531  1.00  0.00    -0.130 A  
HETATM   16  C   UNL     1      -8.062  11.412  68.684  1.00  0.00    -0.141 A  
HETATM   17  C   UNL     1      -6.673  11.635  68.698  1.00  0.00    -0.074 A  
HETATM   18  C   UNL     1      -5.901  11.399  67.561  1.00  0.00    -0.060 A  
HETATM   19  C   UNL     1      -7.906  10.760  66.393  1.00  0.00    -0.148 A  
HETATM   20  C   UNL     1      -6.524  10.970  66.403  1.00  0.00    -0.127 A  
ENDBRANCH   8  15
BRANCH   8  21
HETATM   21  C   UNL     1     -10.482   9.240  66.624  1.00  0.00    -0.237 C  
BRANCH  21  22
HETATM   22  C   UNL     1      -9.961   7.791  66.944  1.00  0.00    -0.261 C  
HETATM   23  C   UNL     1      -8.841   7.364  65.978  1.00  0.00    -0.173 C  
BRANCH  22  24
HETATM   24  N   UNL     1     -10.983   6.736  67.140  1.00  0.00    -0.390 NA 
HETATM   25  C   UNL     1     -10.748   5.522  66.346  1.00  0.00    -0.194 C  
HETATM   26  C   UNL     1     -11.130   6.316  68.546  1.00  0.00    -0.308 C  
ENDBRANCH  22  24
ENDBRANCH  21  22
ENDBRANCH   8  21
ENDBRANCH   3   8
ENDBRANCH   2   3
TORSDOF 9
ENDMDL
MODEL      104
REMARK 921   NORMALIZED FREE ENERGY PREDICTED BY IDOCK:   -4.31 KCAL/MOL
REMARK 922        TOTAL FREE ENERGY PREDICTED BY IDOCK:   -8.27 KCAL/MOL
REMARK 923 INTER-LIGAND FREE ENERGY PREDICTED BY IDOCK:   -6.64 KCAL/MOL
REMARK 924 INTRA-LIGAND FREE ENERGY PREDICTED BY IDOCK:   -1.63 KCAL/MOL
REMARK 927      BINDING AFFINITY PREDICTED BY RF-SCORE:    0.00 PKD
ROOT
HETATM    1  C   UNL     1     -12.056  10.775  69.365  1.00  0.00    -0.315 C  
HETATM    2  C   UNL     1     -11.573  10.305  70.732  1.00  0.00    -0.446 C  
ENDROOT
BRANCH   2   3
HETATM    3  C   UNL     1     -11.699   8.777  70.902  1.00  0.00    -0.258 C  
BRANCH   3   4
HETATM    4  O   UNL     1     -12.348   8.540  72.190  1.00  0.00    -0.338 OA 
BRANCH   4   5
HETATM    5  C   UNL     1     -13.706   8.534  72.247  1.00  0.00    -0.336 C  
HETATM    6  C   UNL     1     -14.238   7.326  71.522  1.00  0.00    -0.540 C  
HETATM    7  O   UNL     1     -14.404   9.415  72.727  1.00  0.00    -0.407 OA 
ENDBRANCH   4   5
ENDBRANCH   3   4
BRANCH   3   8
HETATM    8  C   UNL     1     -10.296   7.987  70.845  1.00  0.00    -0.221 C  
BRANCH   8   9
HETATM    9  C   UNL     1     -10.229   7.229  69.473  1.00  0.00    -0.200 A  
HETATM   10  C   UNL     1      -9.673   5.949  69.300  1.00  0.00    -0.182 A  
HETATM   11  C   UNL     1      -9.740   5.279  68.067  1.00  0.00    -0.179 A  
HETATM   12  C   UNL     1     -10.291   5.899  66.952  1.00  0.00    -0.304 A  
HETATM   13  C   UNL     1     -10.794   7.183  67.072  1.00  0.00    -0.382 A  
HETATM   14  C   UNL     1     -10.788   7.818  68.318  1.00  0.00     0.002 A  
ENDBRANCH   8   9
BRANCH   8  15
HETATM   15  C   UNL     1     -10.287   6.985  72.106  1.00  0.00    -0.214 A  
HETATM   16  C   UNL     1      -9.574   7.233  73.297  1.00  0.00    -0.257 A  
HETATM   17  C   UNL     1      -9.665   6.374  74.407  1.00  0.00    -0.310 A  
HETATM   18  C   UNL     1     -10.476   5.240  74.368  1.00  0.00    -0.277 A  
HETATM   19  C   UNL     1     -11.070   5.804  72.104  1.00  0.00    -0.327 A  
HETATM   20  C   UNL     1     -11.172   4.952  73.207  1.00  0.00    -0.423 A  
ENDBRANCH   8  15
BRANCH   8  21
HETATM   21  C   UNL     1      -9.029   8.975  70.974  1.00  0.00    -0.304 C  
BRANCH  21  22
HETATM   22  C   UNL     1      -7.594   8.813  70.350  1.00  0.00    -0.082 C  
HETATM   23  C   UNL     1      -6.585   8.270  71.379  1.00  0.00    -0.051 C  
BRANCH  22  24
HETATM   24  N   UNL     1      -7.063   9.958  69.575  1.00  0.00    -0.071 NA 
HETATM   25  C   UNL     1      -8.092  10.910  69.134  1.00  0.00    -0.100 C  
HETATM   26  C   UNL     1      -6.035  10.730  70.298  1.00  0.00    -0.119 C  
ENDBRANCH  22  24
ENDBRANCH  21  22
ENDBRANCH   8  21
ENDBRANCH   3   8
ENDBRANCH   2   3
TORSDOF 9
ENDMDL
MODEL      105
REMARK 921   NORMALIZED FREE ENERGY PREDICTED BY IDOCK:   -4.30 KCAL/MOL
REMARK 922        TOTAL FREE ENERGY PREDICTED BY IDOCK:   -8.26 KCAL/MOL
REMARK 923 INTER-LIGAND FREE ENERGY PREDICTED BY IDOCK:   -6.47 KCAL/MOL
REMARK 924 INTRA-LIGAND FREE ENERGY PREDICTED BY IDOCK:   -1.79 KCAL/MOL
REMARK 927      BINDING AFFINITY PREDICTED BY RF-SCORE:    0.00 PKD
ROOT
HETATM    1  C   UNL     1     -10.138   4.246  71.685  1.00  0.00    -0.216 C  
HETATM    2  C   UNL     1      -9.246   5.294  71.029  1.00  0.00    -0.183 C  
ENDROOT
BRANCH   2   3
HETATM    3  C   UNL     1     -10.036   6.225  70.087  1.00  0.00    -0.172 C  
BRANCH   3   4
HETATM    4  O   UNL     1      -9.406   6.140  68.771  1.00  0.00    -0.124 OA 
BRANCH   4   5
HETATM    5  C   UNL     1     -10.024   5.423  67.796  1.00  0.00    -0.161 C  
HETATM    6  C   UNL     1     -11.023   6.296  67.081  1.00  0.00    -0.453 C  
HETATM    7  O   UNL     1      -9.871   4.230  67.580  1.00  0.00    -0.165 OA 
ENDBRANCH   4   5
ENDBRANCH   3   4
BRANCH   3   8
HETATM    8  C   UNL     1     -10.089   7.763  70.567  1.00  0.00    -0.192 C  
BRANCH   8   9
HETATM    9  C   UNL     1      -8.998   7.955  71.678  1.00  0.00    -0.173 A  
HETATM   10  C   UNL     1      -9.260   7.929  73.059  1.00  0.00    -0.317 A  
HETATM   11  C   UNL     1      -8.224   7.999  74.005  1.00  0.00    -0.316 A  
HETATM   12  C   UNL     1      -6.906   8.179  73.603  1.00  0.00    -0.146 A  
HETATM   13  C   UNL     1      -6.620   8.270  72.251  1.00  0.00    -0.083 A  
HETATM   14  C   UNL     1      -7.645   8.129  71.312  1.00  0.00    -0.084 A  
ENDBRANCH   8   9
BRANCH   8  15
HETATM   15  C   UNL     1     -11.581   8.017  71.114  1.00  0.00    -0.307 A  
HETATM   16  C   UNL     1     -12.038   9.262  71.592  1.00  0.00    -0.451 A  
HETATM   17  C   UNL     1     -13.375   9.462  71.979  1.00  0.00    -0.525 A  
HETATM   18  C   UNL     1     -14.305   8.426  71.897  1.00  0.00    -0.561 A  
HETATM   19  C   UNL     1     -12.554   6.988  71.082  1.00  0.00    -0.387 A  
HETATM   20  C   UNL     1     -13.887   7.182  71.455  1.00  0.00    -0.421 A  
ENDBRANCH   8  15
BRANCH   8  21
HETATM   21  C   UNL     1      -9.809   8.794  69.359  1.00  0.00    -0.186 C  
BRANCH  21  22
HETATM   22  C   UNL     1      -9.631  10.355  69.426  1.00  0.00    -0.192 C  
HETATM   23  C   UNL     1     -10.842  11.091  68.825  1.00  0.00    -0.253 C  
BRANCH  22  24
HETATM   24  N   UNL     1      -8.337  10.906  68.962  1.00  0.00    -0.142 NA 
HETATM   25  C   UNL     1      -7.579   9.998  68.090  1.00  0.00    -0.084 C  
HETATM   26  C   UNL     1      -8.468  12.190  68.248  1.00  0.00    -0.176 C  
ENDBRANCH  22  24
ENDBRANCH  21  22
ENDBRANCH   8  21
ENDBRANCH   3   8
ENDBRANCH   2   3
TORSDOF 9
ENDMDL
MODEL      106
REMARK 921   NORMALIZED FREE ENERGY PREDICTED BY IDOCK:   -4.30 KCAL/MOL
REMARK 922        TOTAL FREE ENERGY PREDICTED BY IDOCK:   -8.25 KCAL/MOL
REMARK 923 INTER-LIGAND FREE ENERGY PREDICTED BY IDOCK:   -7.91 KCAL/MOL
REMARK 924 INTRA-LIGAND FREE ENERGY PREDICTED BY IDOCK:   -0.34 KCAL/MOL
REMARK 927      BINDING AFFINITY PREDICTED BY RF-SCORE:    0.00 PKD
ROOT
HETATM    1  C   UNL     1      -7.456  14.882  69.940  1.00  0.00     0.015 C  
HETATM    2  C   UNL     1      -7.924  15.997  69.012  1.00  0.00    -0.224 C  
ENDROOT
BRANCH   2   3
HETATM    3  C   UNL     1      -8.503  15.453  67.690  1.00  0.00    -0.162 C  
BRANCH   3   4
HETATM    4  O   UNL     1      -7.638  15.930  66.613  1.00  0.00    -0.217 OA 
BRANCH   4   5
HETATM    5  C   UNL     1      -6.443  16.491  66.935  1.00  0.00    -0.155 C  
HETATM    6  C   UNL     1      -6.544  17.991  66.837  1.00  0.00    -0.210 C  
HETATM    7  O   UNL     1      -5.410  15.883  67.178  1.00  0.00    -0.333 OA 
ENDBRANCH   4   5
ENDBRANCH   3   4
BRANCH   3   8
HETATM    8  C   UNL     1     -10.026  15.895  67.402  1.00  0.00    -0.239 C  
BRANCH   8   9
HETATM    9  C   UNL     1     -10.058  17.461  67.303  1.00  0.00    -0.310 A  
HETATM   10  C   UNL     1     -10.192  18.178  66.101  1.00  0.00    -0.372 A  
HETATM   11  C   UNL     1     -10.324  19.576  66.089  1.00  0.00    -0.614 A  
HETATM   12  C   UNL     1     -10.242  20.306  67.269  1.00  0.00    -0.495 A  
HETATM   13  C   UNL     1     -10.049  19.636  68.465  1.00  0.00    -0.557 A  
HETATM   14  C   UNL     1      -9.990  18.240  68.479  1.00  0.00    -0.413 A  
ENDBRANCH   8   9
BRANCH   8  15
HETATM   15  C   UNL     1     -10.902  15.335  68.631  1.00  0.00    -0.253 A  
HETATM   16  C   UNL     1     -11.122  13.964  68.873  1.00  0.00    -0.296 A  
HETATM   17  C   UNL     1     -11.821  13.515  70.008  1.00  0.00    -0.371 A  
HETATM   18  C   UNL     1     -12.319  14.421  70.945  1.00  0.00    -0.419 A  
HETATM   19  C   UNL     1     -11.456  16.215  69.592  1.00  0.00    -0.290 A  
HETATM   20  C   UNL     1     -12.143  15.776  70.727  1.00  0.00    -0.448 A  
ENDBRANCH   8  15
BRANCH   8  21
HETATM   21  C   UNL     1     -10.602  15.261  66.036  1.00  0.00    -0.327 C  
BRANCH  21  22
HETATM   22  C   UNL     1     -10.891  13.751  65.704  1.00  0.00    -0.287 C  
HETATM   23  C   UNL     1      -9.633  12.880  65.881  1.00  0.00    -0.133 C  
BRANCH  22  24
HETATM   24  N   UNL     1     -11.615  13.464  64.444  1.00  0.00    -0.368 NA 
HETATM   25  C   UNL     1     -12.421  12.237  64.484  1.00  0.00    -0.377 C  
HETATM   26  C   UNL     1     -12.507  14.559  64.019  1.00  0.00    -0.055 C  
ENDBRANCH  22  24
ENDBRANCH  21  22
ENDBRANCH   8  21
ENDBRANCH   3   8
ENDBRANCH   2   3
TORSDOF 9
ENDMDL
MODEL      107
REMARK 921   NORMALIZED FREE ENERGY PREDICTED BY IDOCK:   -4.30 KCAL/MOL
REMARK 922        TOTAL FREE ENERGY PREDICTED BY IDOCK:   -8.25 KCAL/MOL
REMARK 923 INTER-LIGAND FREE ENERGY PREDICTED BY IDOCK:   -7.02 KCAL/MOL
REMARK 924 INTRA-LIGAND FREE ENERGY PREDICTED BY IDOCK:   -1.23 KCAL/MOL
REMARK 927      BINDING AFFINITY PREDICTED BY RF-SCORE:    0.00 PKD
ROOT
HETATM    1  C   UNL     1      -6.657  10.323  68.991  1.00  0.00    -0.053 C  
HETATM    2  C   UNL     1      -8.098  10.629  69.386  1.00  0.00    -0.102 C  
ENDROOT
BRANCH   2   3
HETATM    3  C   UNL     1      -8.884  11.310  68.246  1.00  0.00    -0.158 C  
BRANCH   3   4
HETATM    4  O   UNL     1      -9.085  12.705  68.637  1.00  0.00    -0.098 OA 
BRANCH   4   5
HETATM    5  C   UNL     1      -8.187  13.636  68.221  1.00  0.00    -0.156 C  
HETATM    6  C   UNL     1      -8.630  15.004  68.670  1.00  0.00    -0.174 C  
HETATM    7  O   UNL     1      -7.214  13.423  67.511  1.00  0.00    -0.158 OA 
ENDBRANCH   4   5
ENDBRANCH   3   4
BRANCH   3   8
HETATM    8  C   UNL     1     -10.305  10.625  67.920  1.00  0.00    -0.231 C  
BRANCH   8   9
HETATM    9  C   UNL     1     -11.084  10.472  69.274  1.00  0.00    -0.298 A  
HETATM   10  C   UNL     1     -11.961  11.436  69.799  1.00  0.00    -0.422 A  
HETATM   11  C   UNL     1     -12.711  11.194  70.961  1.00  0.00    -0.476 A  
HETATM   12  C   UNL     1     -12.546  10.016  71.679  1.00  0.00    -0.524 A  
HETATM   13  C   UNL     1     -11.644   9.069  71.224  1.00  0.00    -0.387 A  
HETATM   14  C   UNL     1     -10.953   9.285  70.029  1.00  0.00    -0.254 A  
ENDBRANCH   8   9
BRANCH   8  15
HETATM   15  C   UNL     1      -9.979   9.208  67.230  1.00  0.00    -0.270 A  
HETATM   16  C   UNL     1      -8.871   8.984  66.389  1.00  0.00    -0.172 A  
HETATM   17  C   UNL     1      -8.574   7.708  65.878  1.00  0.00    -0.164 A  
HETATM   18  C   UNL     1      -9.372   6.609  66.194  1.00  0.00    -0.097 A  
HETATM   19  C   UNL     1     -10.777   8.068  67.495  1.00  0.00    -0.238 A  
HETATM   20  C   UNL     1     -10.482   6.795  66.998  1.00  0.00    -0.369 A  
ENDBRANCH   8  15
BRANCH   8  21
HETATM   21  C   UNL     1     -11.187  11.499  66.892  1.00  0.00    -0.363 C  
BRANCH  21  22
HETATM   22  C   UNL     1     -10.716  12.256  65.597  1.00  0.00    -0.267 C  
HETATM   23  C   UNL     1     -10.964  13.772  65.703  1.00  0.00    -0.288 C  
BRANCH  22  24
HETATM   24  N   UNL     1     -11.143  11.695  64.295  1.00  0.00    -0.343 NA 
HETATM   25  C   UNL     1     -12.397  12.264  63.781  1.00  0.00    -0.538 C  
HETATM   26  C   UNL     1     -10.130  11.840  63.232  1.00  0.00    -0.420 C  
ENDBRANCH  22  24
ENDBRANCH  21  22
ENDBRANCH   8  21
ENDBRANCH   3   8
ENDBRANCH   2   3
TORSDOF 9
ENDMDL
MODEL      108
REMARK 921   NORMALIZED FREE ENERGY PREDICTED BY IDOCK:   -4.27 KCAL/MOL
REMARK 922        TOTAL FREE ENERGY PREDICTED BY IDOCK:   -8.20 KCAL/MOL
REMARK 923 INTER-LIGAND FREE ENERGY PREDICTED BY IDOCK:   -7.29 KCAL/MOL
REMARK 924 INTRA-LIGAND FREE ENERGY PREDICTED BY IDOCK:   -0.91 KCAL/MOL
REMARK 927      BINDING AFFINITY PREDICTED BY RF-SCORE:    0.00 PKD
ROOT
HETATM    1  C   UNL     1      -9.444   8.922  66.079  1.00  0.00    -0.320 C  
HETATM    2  C   UNL     1     -10.570   9.180  67.075  1.00  0.00    -0.266 C  
ENDROOT
BRANCH   2   3
HETATM    3  C   UNL     1     -10.973  10.668  67.127  1.00  0.00    -0.247 C  
BRANCH   3   4
HETATM    4  O   UNL     1     -10.357  11.321  65.974  1.00  0.00    -0.238 OA 
BRANCH   4   5
HETATM    5  C   UNL     1     -11.143  11.665  64.920  1.00  0.00    -0.253 C  
HETATM    6  C   UNL     1     -12.230  12.600  65.383  1.00  0.00    -0.517 C  
HETATM    7  O   UNL     1     -11.051  11.220  63.785  1.00  0.00    -0.380 OA 
ENDBRANCH   4   5
ENDBRANCH   3   4
BRANCH   3   8
HETATM    8  C   UNL     1     -10.536  11.426  68.480  1.00  0.00    -0.225 C  
BRANCH   8   9
HETATM    9  C   UNL     1      -9.026  11.829  68.337  1.00  0.00    -0.168 A  
HETATM   10  C   UNL     1      -7.948  11.019  68.734  1.00  0.00    -0.144 A  
HETATM   11  C   UNL     1      -6.618  11.390  68.480  1.00  0.00    -0.062 A  
HETATM   12  C   UNL     1      -6.322  12.616  67.897  1.00  0.00    -0.111 A  
HETATM   13  C   UNL     1      -7.358  13.466  67.549  1.00  0.00    -0.165 A  
HETATM   14  C   UNL     1      -8.682  13.061  67.740  1.00  0.00    -0.188 A  
ENDBRANCH   8   9
BRANCH   8  15
HETATM   15  C   UNL     1     -10.787  10.387  69.685  1.00  0.00    -0.320 A  
HETATM   16  C   UNL     1      -9.767   9.616  70.278  1.00  0.00    -0.314 A  
HETATM   17  C   UNL     1     -10.016   8.786  71.386  1.00  0.00    -0.354 A  
HETATM   18  C   UNL     1     -11.291   8.702  71.943  1.00  0.00    -0.417 A  
HETATM   19  C   UNL     1     -12.071  10.242  70.266  1.00  0.00    -0.330 A  
HETATM   20  C   UNL     1     -12.323   9.426  71.373  1.00  0.00    -0.439 A  
ENDBRANCH   8  15
BRANCH   8  21
HETATM   21  C   UNL     1     -11.418  12.747  68.757  1.00  0.00    -0.347 C  
BRANCH  21  22
HETATM   22  C   UNL     1     -11.359  13.723  69.989  1.00  0.00    -0.023 C  
HETATM   23  C   UNL     1     -12.622  13.612  70.863  1.00  0.00    -0.421 C  
BRANCH  22  24
HETATM   24  N   UNL     1     -10.970  15.126  69.718  1.00  0.00    -0.266 NA 
HETATM   25  C   UNL     1     -11.393  15.620  68.401  1.00  0.00    -0.364 C  
HETATM   26  C   UNL     1     -11.475  16.080  70.724  1.00  0.00    -0.414 C  
ENDBRANCH  22  24
ENDBRANCH  21  22
ENDBRANCH   8  21
ENDBRANCH   3   8
ENDBRANCH   2   3
TORSDOF 9
ENDMDL
MODEL      109
REMARK 921   NORMALIZED FREE ENERGY PREDICTED BY IDOCK:   -4.26 KCAL/MOL
REMARK 922        TOTAL FREE ENERGY PREDICTED BY IDOCK:   -8.19 KCAL/MOL
REMARK 923 INTER-LIGAND FREE ENERGY PREDICTED BY IDOCK:   -6.60 KCAL/MOL
REMARK 924 INTRA-LIGAND FREE ENERGY PREDICTED BY IDOCK:   -1.59 KCAL/MOL
REMARK 927      BINDING AFFINITY PREDICTED BY RF-SCORE:    0.00 PKD
ROOT
HETATM    1  C   UNL     1     -11.942  12.349  69.777  1.00  0.00    -0.359 C  
HETATM    2  C   UNL     1     -11.948  11.509  68.504  1.00  0.00    -0.293 C  
ENDROOT
BRANCH   2   3
HETATM    3  C   UNL     1     -11.235  12.218  67.334  1.00  0.00    -0.301 C  
BRANCH   3   4
HETATM    4  O   UNL     1     -11.943  11.847  66.111  1.00  0.00    -0.537 OA 
BRANCH   4   5
HETATM    5  C   UNL     1     -12.474  12.831  65.339  1.00  0.00    -0.416 C  
HETATM    6  C   UNL     1     -12.303  14.161  66.025  1.00  0.00    -0.470 C  
HETATM    7  O   UNL     1     -13.084  12.667  64.292  1.00  0.00    -0.741 OA 
ENDBRANCH   4   5
ENDBRANCH   3   4
BRANCH   3   8
HETATM    8  C   UNL     1      -9.672  11.851  67.192  1.00  0.00    -0.194 C  
BRANCH   8   9
HETATM    9  C   UNL     1      -9.400  10.570  68.055  1.00  0.00    -0.150 A  
HETATM   10  C   UNL     1      -9.956   9.305  67.794  1.00  0.00    -0.235 A  
HETATM   11  C   UNL     1      -9.589   8.173  68.540  1.00  0.00    -0.153 A  
HETATM   12  C   UNL     1      -8.722   8.284  69.619  1.00  0.00    -0.138 A  
HETATM   13  C   UNL     1      -8.203   9.527  69.943  1.00  0.00    -0.169 A  
HETATM   14  C   UNL     1      -8.516  10.637  69.154  1.00  0.00    -0.134 A  
ENDBRANCH   8   9
BRANCH   8  15
HETATM   15  C   UNL     1      -8.854  13.135  67.717  1.00  0.00    -0.191 A  
HETATM   16  C   UNL     1      -9.428  14.165  68.491  1.00  0.00    -0.202 A  
HETATM   17  C   UNL     1      -8.657  15.224  69.003  1.00  0.00    -0.226 A  
HETATM   18  C   UNL     1      -7.284  15.288  68.765  1.00  0.00    -0.127 A  
HETATM   19  C   UNL     1      -7.464  13.263  67.475  1.00  0.00    -0.163 A  
HETATM   20  C   UNL     1      -6.691  14.308  67.989  1.00  0.00    -0.154 A  
ENDBRANCH   8  15
BRANCH   8  21
HETATM   21  C   UNL     1      -9.244  11.568  65.664  1.00  0.00    -0.184 C  
BRANCH  21  22
HETATM   22  C   UNL     1      -8.655  10.249  65.040  1.00  0.00    -0.180 C  
HETATM   23  C   UNL     1      -7.123  10.190  65.180  1.00  0.00    -0.137 C  
BRANCH  22  24
HETATM   24  N   UNL     1      -9.123   9.878  63.685  1.00  0.00    -0.255 NA 
HETATM   25  C   UNL     1      -9.777  10.974  62.957  1.00  0.00    -0.354 C  
HETATM   26  C   UNL     1      -8.051   9.356  62.817  1.00  0.00    -0.142 C  
ENDBRANCH  22  24
ENDBRANCH  21  22
ENDBRANCH   8  21
ENDBRANCH   3   8
ENDBRANCH   2   3
TORSDOF 9
ENDMDL
MODEL      110
REMARK 921   NORMALIZED FREE ENERGY PREDICTED BY IDOCK:   -4.26 KCAL/MOL
REMARK 922        TOTAL FREE ENERGY PREDICTED BY IDOCK:   -8.19 KCAL/MOL
REMARK 923 INTER-LIGAND FREE ENERGY PREDICTED BY IDOCK:   -7.54 KCAL/MOL
REMARK 924 INTRA-LIGAND FREE ENERGY PREDICTED BY IDOCK:   -0.65 KCAL/MOL
REMARK 927      BINDING AFFINITY PREDICTED BY RF-SCORE:    0.00 PKD
ROOT
HETATM    1  C   UNL     1     -11.748  15.083  68.333  1.00  0.00    -0.341 C  
HETATM    2  C   UNL     1     -11.904  13.567  68.380  1.00  0.00    -0.408 C  
ENDROOT
BRANCH   2   3
HETATM    3  C   UNL     1     -11.033  12.857  67.323  1.00  0.00    -0.261 C  
BRANCH   3   4
HETATM    4  O   UNL     1     -11.940  12.136  66.432  1.00  0.00    -0.611 OA 
BRANCH   4   5
HETATM    5  C   UNL     1     -12.290  12.711  65.252  1.00  0.00    -0.466 C  
HETATM    6  C   UNL     1     -11.237  13.706  64.840  1.00  0.00    -0.349 C  
HETATM    7  O   UNL     1     -13.340  12.527  64.652  1.00  0.00    -0.804 OA 
ENDBRANCH   4   5
ENDBRANCH   3   4
BRANCH   3   8
HETATM    8  C   UNL     1      -9.947  11.837  67.937  1.00  0.00    -0.187 C  
BRANCH   8   9
HETATM    9  C   UNL     1      -9.547  10.826  66.805  1.00  0.00    -0.201 A  
HETATM   10  C   UNL     1      -8.725  11.146  65.710  1.00  0.00    -0.153 A  
HETATM   11  C   UNL     1      -8.315  10.168  64.788  1.00  0.00    -0.167 A  
HETATM   12  C   UNL     1      -8.779   8.862  64.886  1.00  0.00    -0.184 A  
HETATM   13  C   UNL     1      -9.639   8.527  65.918  1.00  0.00    -0.164 A  
HETATM   14  C   UNL     1      -9.987   9.486  66.872  1.00  0.00    -0.278 A  
ENDBRANCH   8   9
BRANCH   8  15
HETATM   15  C   UNL     1     -10.658  11.115  69.188  1.00  0.00    -0.238 A  
HETATM   16  C   UNL     1     -12.021  11.274  69.511  1.00  0.00    -0.421 A  
HETATM   17  C   UNL     1     -12.622  10.555  70.561  1.00  0.00    -0.423 A  
HETATM   18  C   UNL     1     -11.883   9.648  71.320  1.00  0.00    -0.460 A  
HETATM   19  C   UNL     1      -9.943  10.208  70.009  1.00  0.00    -0.213 A  
HETATM   20  C   UNL     1     -10.536   9.484  71.047  1.00  0.00    -0.392 A  
ENDBRANCH   8  15
BRANCH   8  21
HETATM   21  C   UNL     1      -8.627  12.593  68.471  1.00  0.00    -0.051 C  
BRANCH  21  22
HETATM   22  C   UNL     1      -8.335  14.138  68.518  1.00  0.00    -0.155 C  
HETATM   23  C   UNL     1      -8.175  14.729  67.105  1.00  0.00    -0.239 C  
BRANCH  22  24
HETATM   24  N   UNL     1      -7.283  14.596  69.454  1.00  0.00    -0.155 NA 
HETATM   25  C   UNL     1      -6.288  13.567  69.786  1.00  0.00    -0.087 C  
HETATM   26  C   UNL     1      -6.543  15.778  68.972  1.00  0.00    -0.134 C  
ENDBRANCH  22  24
ENDBRANCH  21  22
ENDBRANCH   8  21
ENDBRANCH   3   8
ENDBRANCH   2   3
TORSDOF 9
ENDMDL
MODEL      111
REMARK 921   NORMALIZED FREE ENERGY PREDICTED BY IDOCK:   -4.25 KCAL/MOL
REMARK 922        TOTAL FREE ENERGY PREDICTED BY IDOCK:   -8.17 KCAL/MOL
REMARK 923 INTER-LIGAND FREE ENERGY PREDICTED BY IDOCK:   -6.67 KCAL/MOL
REMARK 924 INTRA-LIGAND FREE ENERGY PREDICTED BY IDOCK:   -1.50 KCAL/MOL
REMARK 927      BINDING AFFINITY PREDICTED BY RF-SCORE:    0.00 PKD
ROOT
HETATM    1  C   UNL     1      -7.607  11.026  67.325  1.00  0.00    -0.111 C  
HETATM    2  C   UNL     1      -8.610  11.956  67.999  1.00  0.00    -0.168 C  
ENDROOT
BRANCH   2   3
HETATM    3  C   UNL     1      -8.366  13.436  67.640  1.00  0.00    -0.179 C  
BRANCH   3   4
HETATM    4  O   UNL     1      -7.356  13.943  68.567  1.00  0.00    -0.102 OA 
BRANCH   4   5
HETATM    5  C   UNL     1      -6.139  14.297  68.078  1.00  0.00    -0.148 C  
HETATM    6  C   UNL     1      -5.732  15.632  68.648  1.00  0.00    -0.098 C  
HETATM    7  O   UNL     1      -5.502  13.684  67.234  1.00  0.00    -0.333 OA 
ENDBRANCH   4   5
ENDBRANCH   3   4
BRANCH   3   8
HETATM    8  C   UNL     1      -9.684  14.361  67.710  1.00  0.00    -0.221 C  
BRANCH   8   9
HETATM    9  C   UNL     1     -10.618  13.953  66.518  1.00  0.00    -0.279 A  
HETATM   10  C   UNL     1     -11.370  14.862  65.752  1.00  0.00    -0.314 A  
HETATM   11  C   UNL     1     -12.103  14.447  64.629  1.00  0.00    -0.485 A  
HETATM   12  C   UNL     1     -12.175  13.102  64.285  1.00  0.00    -0.463 A  
HETATM   13  C   UNL     1     -11.496  12.172  65.055  1.00  0.00    -0.377 A  
HETATM   14  C   UNL     1     -10.711  12.599  66.129  1.00  0.00    -0.293 A  
ENDBRANCH   8   9
BRANCH   8  15
HETATM   15  C   UNL     1      -9.176  15.885  67.605  1.00  0.00    -0.208 A  
HETATM   16  C   UNL     1      -8.602  16.440  66.443  1.00  0.00    -0.358 A  
HETATM   17  C   UNL     1      -8.252  17.800  66.366  1.00  0.00    -0.290 A  
HETATM   18  C   UNL     1      -8.470  18.655  67.446  1.00  0.00    -0.277 A  
HETATM   19  C   UNL     1      -9.346  16.786  68.685  1.00  0.00    -0.252 A  
HETATM   20  C   UNL     1      -9.010  18.141  68.612  1.00  0.00    -0.289 A  
ENDBRANCH   8  15
BRANCH   8  21
HETATM   21  C   UNL     1     -10.483  14.187  69.100  1.00  0.00    -0.143 C  
BRANCH  21  22
HETATM   22  C   UNL     1     -12.036  14.201  69.344  1.00  0.00    -0.328 C  
HETATM   23  C   UNL     1     -12.498  15.523  69.984  1.00  0.00    -0.293 C  
BRANCH  22  24
HETATM   24  N   UNL     1     -12.626  13.010  69.998  1.00  0.00    -0.006 NA 
HETATM   25  C   UNL     1     -11.811  11.794  69.873  1.00  0.00    -0.348 C  
HETATM   26  C   UNL     1     -12.901  13.206  71.434  1.00  0.00    -0.311 C  
ENDBRANCH  22  24
ENDBRANCH  21  22
ENDBRANCH   8  21
ENDBRANCH   3   8
ENDBRANCH   2   3
TORSDOF 9
ENDMDL
MODEL      112
REMARK 921   NORMALIZED FREE ENERGY PREDICTED BY IDOCK:   -4.25 KCAL/MOL
REMARK 922        TOTAL FREE ENERGY PREDICTED BY IDOCK:   -8.17 KCAL/MOL
REMARK 923 INTER-LIGAND FREE ENERGY PREDICTED BY IDOCK:   -7.00 KCAL/MOL
REMARK 924 INTRA-LIGAND FREE ENERGY PREDICTED BY IDOCK:   -1.16 KCAL/MOL
REMARK 927      BINDING AFFINITY PREDICTED BY RF-SCORE:    0.00 PKD
ROOT
HETATM    1  C   UNL     1      -9.844  11.422  63.216  1.00  0.00    -0.428 C  
HETATM    2  C   UNL     1     -10.357  10.609  64.400  1.00  0.00    -0.347 C  
ENDROOT
BRANCH   2   3
HETATM    3  C   UNL     1     -10.844  11.505  65.557  1.00  0.00    -0.254 C  
BRANCH   3   4
HETATM    4  O   UNL     1     -10.899  12.874  65.046  1.00  0.00    -0.283 OA 
BRANCH   4   5
HETATM    5  C   UNL     1     -12.090  13.362  64.611  1.00  0.00    -0.410 C  
HETATM    6  C   UNL     1     -12.068  14.868  64.655  1.00  0.00    -0.387 C  
HETATM    7  O   UNL     1     -13.070  12.693  64.314  1.00  0.00    -0.741 OA 
ENDBRANCH   4   5
ENDBRANCH   3   4
BRANCH   3   8
HETATM    8  C   UNL     1      -9.915  11.451  66.872  1.00  0.00    -0.235 C  
BRANCH   8   9
HETATM    9  C   UNL     1      -9.502   9.956  67.105  1.00  0.00    -0.190 A  
HETATM   10  C   UNL     1      -8.190   9.528  67.374  1.00  0.00    -0.114 A  
HETATM   11  C   UNL     1      -7.902   8.188  67.680  1.00  0.00    -0.114 A  
HETATM   12  C   UNL     1      -8.900   7.222  67.646  1.00  0.00    -0.123 A  
HETATM   13  C   UNL     1     -10.194   7.598  67.325  1.00  0.00    -0.342 A  
HETATM   14  C   UNL     1     -10.487   8.944  67.090  1.00  0.00    -0.344 A  
ENDBRANCH   8   9
BRANCH   8  15
HETATM   15  C   UNL     1     -10.802  12.043  68.079  1.00  0.00    -0.254 A  
HETATM   16  C   UNL     1     -11.081  11.333  69.265  1.00  0.00    -0.314 A  
HETATM   17  C   UNL     1     -11.786  11.921  70.331  1.00  0.00    -0.329 A  
HETATM   18  C   UNL     1     -12.232  13.240  70.251  1.00  0.00    -0.391 A  
HETATM   19  C   UNL     1     -11.305  13.366  68.034  1.00  0.00    -0.320 A  
HETATM   20  C   UNL     1     -11.997  13.959  69.093  1.00  0.00    -0.404 A  
ENDBRANCH   8  15
BRANCH   8  21
HETATM   21  C   UNL     1      -8.589  12.357  66.726  1.00  0.00    -0.129 C  
BRANCH  21  22
HETATM   22  C   UNL     1      -8.019  13.426  67.728  1.00  0.00    -0.167 C  
HETATM   23  C   UNL     1      -8.019  14.838  67.114  1.00  0.00    -0.205 C  
BRANCH  22  24
HETATM   24  N   UNL     1      -6.746  13.098  68.411  1.00  0.00    -0.085 NA 
HETATM   25  C   UNL     1      -6.901  12.203  69.567  1.00  0.00     0.044 C  
HETATM   26  C   UNL     1      -5.742  12.488  67.519  1.00  0.00    -0.139 C  
ENDBRANCH  22  24
ENDBRANCH  21  22
ENDBRANCH   8  21
ENDBRANCH   3   8
ENDBRANCH   2   3
TORSDOF 9
ENDMDL
MODEL      113
REMARK 921   NORMALIZED FREE ENERGY PREDICTED BY IDOCK:   -4.25 KCAL/MOL
REMARK 922        TOTAL FREE ENERGY PREDICTED BY IDOCK:   -8.17 KCAL/MOL
REMARK 923 INTER-LIGAND FREE ENERGY PREDICTED BY IDOCK:   -6.50 KCAL/MOL
REMARK 924 INTRA-LIGAND FREE ENERGY PREDICTED BY IDOCK:   -1.67 KCAL/MOL
REMARK 927      BINDING AFFINITY PREDICTED BY RF-SCORE:    0.00 PKD
ROOT
HETATM    1  C   UNL     1     -10.604   8.390  71.076  1.00  0.00    -0.258 C  
HETATM    2  C   UNL     1      -9.566   9.372  70.546  1.00  0.00    -0.330 C  
ENDROOT
BRANCH   2   3
HETATM    3  C   UNL     1     -10.172  10.379  69.547  1.00  0.00    -0.231 C  
BRANCH   3   4
HETATM    4  O   UNL     1     -11.626  10.298  69.684  1.00  0.00    -0.243 OA 
BRANCH   4   5
HETATM    5  C   UNL     1     -12.266  11.244  70.420  1.00  0.00    -0.365 C  
HETATM    6  C   UNL     1     -11.887  12.616  69.923  1.00  0.00    -0.364 C  
HETATM    7  O   UNL     1     -12.971  11.033  71.397  1.00  0.00    -0.400 OA 
ENDBRANCH   4   5
ENDBRANCH   3   4
BRANCH   3   8
HETATM    8  C   UNL     1      -9.755  10.123  68.012  1.00  0.00    -0.161 C  
BRANCH   8   9
HETATM    9  C   UNL     1      -9.648   8.572  67.798  1.00  0.00    -0.185 A  
HETATM   10  C   UNL     1      -8.518   7.802  68.123  1.00  0.00    -0.124 A  
HETATM   11  C   UNL     1      -8.524   6.402  68.008  1.00  0.00    -0.118 A  
HETATM   12  C   UNL     1      -9.628   5.738  67.488  1.00  0.00    -0.118 A  
HETATM   13  C   UNL     1     -10.737   6.472  67.100  1.00  0.00    -0.438 A  
HETATM   14  C   UNL     1     -10.752   7.857  67.282  1.00  0.00    -0.299 A  
ENDBRANCH   8   9
BRANCH   8  15
HETATM   15  C   UNL     1      -8.348  10.875  67.792  1.00  0.00    -0.117 A  
HETATM   16  C   UNL     1      -7.407  10.504  66.810  1.00  0.00    -0.114 A  
HETATM   17  C   UNL     1      -6.230  11.243  66.594  1.00  0.00    -0.141 A  
HETATM   18  C   UNL     1      -5.955  12.384  67.349  1.00  0.00    -0.154 A  
HETATM   19  C   UNL     1      -8.007  12.020  68.554  1.00  0.00    -0.132 A  
HETATM   20  C   UNL     1      -6.845  12.765  68.338  1.00  0.00    -0.091 A  
ENDBRANCH   8  15
BRANCH   8  21
HETATM   21  C   UNL     1     -10.825  10.735  66.973  1.00  0.00    -0.311 C  
BRANCH  21  22
HETATM   22  C   UNL     1     -10.700  12.027  66.086  1.00  0.00    -0.275 C  
HETATM   23  C   UNL     1     -11.950  12.919  66.202  1.00  0.00    -0.491 C  
BRANCH  22  24
HETATM   24  N   UNL     1     -10.255  11.842  64.685  1.00  0.00    -0.269 NA 
HETATM   25  C   UNL     1     -10.008  10.442  64.317  1.00  0.00    -0.298 C  
HETATM   26  C   UNL     1     -11.196  12.395  63.693  1.00  0.00    -0.474 C  
ENDBRANCH  22  24
ENDBRANCH  21  22
ENDBRANCH   8  21
ENDBRANCH   3   8
ENDBRANCH   2   3
TORSDOF 9
ENDMDL
MODEL      114
REMARK 921   NORMALIZED FREE ENERGY PREDICTED BY IDOCK:   -4.24 KCAL/MOL
REMARK 922        TOTAL FREE ENERGY PREDICTED BY IDOCK:   -8.16 KCAL/MOL
REMARK 923 INTER-LIGAND FREE ENERGY PREDICTED BY IDOCK:   -7.00 KCAL/MOL
REMARK 924 INTRA-LIGAND FREE ENERGY PREDICTED BY IDOCK:   -1.15 KCAL/MOL
REMARK 927      BINDING AFFINITY PREDICTED BY RF-SCORE:    0.00 PKD
ROOT
HETATM    1  C   UNL     1      -9.524   9.989  64.256  1.00  0.00    -0.336 C  
HETATM    2  C   UNL     1      -8.693  10.330  65.489  1.00  0.00    -0.176 C  
ENDROOT
BRANCH   2   3
HETATM    3  C   UNL     1      -9.415   9.958  66.800  1.00  0.00    -0.169 C  
BRANCH   3   4
HETATM    4  O   UNL     1     -10.436   8.968  66.463  1.00  0.00    -0.234 OA 
BRANCH   4   5
HETATM    5  C   UNL     1     -10.287   7.695  66.915  1.00  0.00    -0.318 C  
HETATM    6  C   UNL     1      -8.855   7.468  67.328  1.00  0.00    -0.124 C  
HETATM    7  O   UNL     1     -11.149   6.829  66.907  1.00  0.00    -0.397 OA 
ENDBRANCH   4   5
ENDBRANCH   3   4
BRANCH   3   8
HETATM    8  C   UNL     1     -10.096  11.206  67.559  1.00  0.00    -0.210 C  
BRANCH   8   9
HETATM    9  C   UNL     1      -8.988  12.296  67.776  1.00  0.00    -0.177 A  
HETATM   10  C   UNL     1      -7.659  12.176  67.334  1.00  0.00    -0.155 A  
HETATM   11  C   UNL     1      -6.742  13.232  67.464  1.00  0.00    -0.156 A  
HETATM   12  C   UNL     1      -7.101  14.407  68.112  1.00  0.00    -0.126 A  
HETATM   13  C   UNL     1      -8.385  14.536  68.615  1.00  0.00    -0.164 A  
HETATM   14  C   UNL     1      -9.314  13.510  68.420  1.00  0.00    -0.171 A  
ENDBRANCH   8   9
BRANCH   8  15
HETATM   15  C   UNL     1     -10.679  10.632  68.946  1.00  0.00    -0.254 A  
HETATM   16  C   UNL     1      -9.922   9.863  69.853  1.00  0.00    -0.292 A  
HETATM   17  C   UNL     1     -10.445   9.455  71.094  1.00  0.00    -0.392 A  
HETATM   18  C   UNL     1     -11.740   9.808  71.474  1.00  0.00    -0.450 A  
HETATM   19  C   UNL     1     -11.998  10.935  69.363  1.00  0.00    -0.393 A  
HETATM   20  C   UNL     1     -12.520  10.542  70.599  1.00  0.00    -0.456 A  
ENDBRANCH   8  15
BRANCH   8  21
HETATM   21  C   UNL     1     -11.316  11.843  66.721  1.00  0.00    -0.393 C  
BRANCH  21  22
HETATM   22  C   UNL     1     -11.337  13.170  65.877  1.00  0.00    -0.311 C  
HETATM   23  C   UNL     1     -12.186  14.261  66.555  1.00  0.00    -0.419 C  
BRANCH  22  24
HETATM   24  N   UNL     1     -11.617  13.043  64.428  1.00  0.00    -0.349 NA 
HETATM   25  C   UNL     1     -12.560  11.967  64.094  1.00  0.00    -0.308 C  
HETATM   26  C   UNL     1     -12.136  14.283  63.820  1.00  0.00    -0.074 C  
ENDBRANCH  22  24
ENDBRANCH  21  22
ENDBRANCH   8  21
ENDBRANCH   3   8
ENDBRANCH   2   3
TORSDOF 9
ENDMDL
MODEL      115
REMARK 921   NORMALIZED FREE ENERGY PREDICTED BY IDOCK:   -4.21 KCAL/MOL
REMARK 922        TOTAL FREE ENERGY PREDICTED BY IDOCK:   -8.11 KCAL/MOL
REMARK 923 INTER-LIGAND FREE ENERGY PREDICTED BY IDOCK:   -6.25 KCAL/MOL
REMARK 924 INTRA-LIGAND FREE ENERGY PREDICTED BY IDOCK:   -1.86 KCAL/MOL
REMARK 927      BINDING AFFINITY PREDICTED BY RF-SCORE:    0.00 PKD
ROOT
HETATM    1  C   UNL     1     -10.403   5.399  66.510  1.00  0.00    -0.320 C  
HETATM    2  C   UNL     1     -10.990   6.731  66.965  1.00  0.00    -0.439 C  
ENDROOT
BRANCH   2   3
HETATM    3  C   UNL     1     -10.302   7.267  68.237  1.00  0.00    -0.193 C  
BRANCH   3   4
HETATM    4  O   UNL     1     -11.218   7.033  69.352  1.00  0.00    -0.189 OA 
BRANCH   4   5
HETATM    5  C   UNL     1     -10.973   5.993  70.191  1.00  0.00    -0.359 C  
HETATM    6  C   UNL     1     -11.642   6.243  71.518  1.00  0.00    -0.345 C  
HETATM    7  O   UNL     1     -10.246   5.039  69.953  1.00  0.00    -0.259 OA 
ENDBRANCH   4   5
ENDBRANCH   3   4
BRANCH   3   8
HETATM    8  C   UNL     1      -9.914   8.830  68.171  1.00  0.00    -0.206 C  
BRANCH   8   9
HETATM    9  C   UNL     1      -9.495   9.157  66.694  1.00  0.00    -0.242 A  
HETATM   10  C   UNL     1      -8.391   8.585  66.038  1.00  0.00    -0.133 A  
HETATM   11  C   UNL     1      -8.132   8.836  64.681  1.00  0.00    -0.157 A  
HETATM   12  C   UNL     1      -8.917   9.729  63.962  1.00  0.00    -0.275 A  
HETATM   13  C   UNL     1      -9.977  10.357  64.594  1.00  0.00    -0.408 A  
HETATM   14  C   UNL     1     -10.273  10.049  65.925  1.00  0.00    -0.275 A  
ENDBRANCH   8   9
BRANCH   8  15
HETATM   15  C   UNL     1      -8.708   9.043  69.217  1.00  0.00    -0.138 A  
HETATM   16  C   UNL     1      -8.326   8.083  70.176  1.00  0.00    -0.126 A  
HETATM   17  C   UNL     1      -7.211   8.274  71.012  1.00  0.00    -0.061 A  
HETATM   18  C   UNL     1      -6.435   9.429  70.915  1.00  0.00    -0.096 A  
HETATM   19  C   UNL     1      -7.910  10.212  69.180  1.00  0.00    -0.120 A  
HETATM   20  C   UNL     1      -6.795  10.404  70.001  1.00  0.00    -0.151 A  
ENDBRANCH   8  15
BRANCH   8  21
HETATM   21  C   UNL     1     -11.137   9.786  68.604  1.00  0.00    -0.140 C  
BRANCH  21  22
HETATM   22  C   UNL     1     -11.221  10.776  69.824  1.00  0.00    -0.297 C  
HETATM   23  C   UNL     1     -11.734  10.072  71.093  1.00  0.00    -0.472 C  
BRANCH  22  24
HETATM   24  N   UNL     1     -11.877  12.083  69.587  1.00  0.00    -0.328 NA 
HETATM   25  C   UNL     1     -12.219  12.811  70.816  1.00  0.00    -0.248 C  
HETATM   26  C   UNL     1     -11.081  12.996  68.745  1.00  0.00    -0.270 C  
ENDBRANCH  22  24
ENDBRANCH  21  22
ENDBRANCH   8  21
ENDBRANCH   3   8
ENDBRANCH   2   3
TORSDOF 9
ENDMDL
MODEL      116
REMARK 921   NORMALIZED FREE ENERGY PREDICTED BY IDOCK:   -4.20 KCAL/MOL
REMARK 922        TOTAL FREE ENERGY PREDICTED BY IDOCK:   -8.10 KCAL/MOL
REMARK 923 INTER-LIGAND FREE ENERGY PREDICTED BY IDOCK:   -6.73 KCAL/MOL
REMARK 924 INTRA-LIGAND FREE ENERGY PREDICTED BY IDOCK:   -1.38 KCAL/MOL
REMARK 927      BINDING AFFINITY PREDICTED BY RF-SCORE:    0.00 PKD
ROOT
HETATM    1  C   UNL     1     -10.727   4.139  74.042  1.00  0.00    -0.310 C  
HETATM    2  C   UNL     1     -11.396   5.074  73.040  1.00  0.00    -0.374 C  
ENDROOT
BRANCH   2   3
HETATM    3  C   UNL     1     -10.561   5.245  71.754  1.00  0.00    -0.201 C  
BRANCH   3   4
HETATM    4  O   UNL     1      -9.256   4.637  72.005  1.00  0.00    -0.128 OA 
BRANCH   4   5
HETATM    5  C   UNL     1      -8.655   3.941  71.005  1.00  0.00    -0.076 C  
HETATM    6  C   UNL     1      -9.505   2.753  70.633  1.00  0.00    -0.211 C  
HETATM    7  O   UNL     1      -7.552   4.176  70.533  1.00  0.00    -0.044 OA 
ENDBRANCH   4   5
ENDBRANCH   3   4
BRANCH   3   8
HETATM    8  C   UNL     1     -10.369   6.775  71.288  1.00  0.00    -0.225 C  
BRANCH   8   9
HETATM    9  C   UNL     1      -9.236   7.406  72.171  1.00  0.00    -0.158 A  
HETATM   10  C   UNL     1      -9.334   7.614  73.558  1.00  0.00    -0.339 A  
HETATM   11  C   UNL     1      -8.245   8.083  74.311  1.00  0.00    -0.308 A  
HETATM   12  C   UNL     1      -7.053   8.435  73.690  1.00  0.00    -0.131 A  
HETATM   13  C   UNL     1      -6.941   8.299  72.316  1.00  0.00    -0.104 A  
HETATM   14  C   UNL     1      -8.004   7.766  71.582  1.00  0.00    -0.104 A  
ENDBRANCH   8   9
BRANCH   8  15
HETATM   15  C   UNL     1     -11.792   7.497  71.501  1.00  0.00    -0.324 A  
HETATM   16  C   UNL     1     -13.032   6.858  71.294  1.00  0.00    -0.309 A  
HETATM   17  C   UNL     1     -14.252   7.499  71.576  1.00  0.00    -0.580 A  
HETATM   18  C   UNL     1     -14.276   8.799  72.080  1.00  0.00    -0.504 A  
HETATM   19  C   UNL     1     -11.871   8.827  71.982  1.00  0.00    -0.442 A  
HETATM   20  C   UNL     1     -13.079   9.466  72.273  1.00  0.00    -0.509 A  
ENDBRANCH   8  15
BRANCH   8  21
HETATM   21  C   UNL     1      -9.965   6.898  69.732  1.00  0.00    -0.187 C  
BRANCH  21  22
HETATM   22  C   UNL     1     -10.864   7.340  68.520  1.00  0.00    -0.060 C  
HETATM   23  C   UNL     1     -10.892   6.269  67.414  1.00  0.00    -0.448 C  
BRANCH  22  24
HETATM   24  N   UNL     1     -10.655   8.707  67.989  1.00  0.00    -0.187 NA 
HETATM   25  C   UNL     1      -9.836   9.565  68.856  1.00  0.00    -0.174 C  
HETATM   26  C   UNL     1     -10.042   8.729  66.648  1.00  0.00    -0.288 C  
ENDBRANCH  22  24
ENDBRANCH  21  22
ENDBRANCH   8  21
ENDBRANCH   3   8
ENDBRANCH   2   3
TORSDOF 9
ENDMDL
MODEL      117
REMARK 921   NORMALIZED FREE ENERGY PREDICTED BY IDOCK:   -4.20 KCAL/MOL
REMARK 922        TOTAL FREE ENERGY PREDICTED BY IDOCK:   -8.10 KCAL/MOL
REMARK 923 INTER-LIGAND FREE ENERGY PREDICTED BY IDOCK:   -6.08 KCAL/MOL
REMARK 924 INTRA-LIGAND FREE ENERGY PREDICTED BY IDOCK:   -2.02 KCAL/MOL
REMARK 927      BINDING AFFINITY PREDICTED BY RF-SCORE:    0.00 PKD
ROOT
HETATM    1  C   UNL     1     -10.255   6.598  74.163  1.00  0.00    -0.390 C  
HETATM    2  C   UNL     1     -11.028   5.796  73.121  1.00  0.00    -0.309 C  
ENDROOT
BRANCH   2   3
HETATM    3  C   UNL     1     -10.269   5.695  71.781  1.00  0.00    -0.202 C  
BRANCH   3   4
HETATM    4  O   UNL     1      -8.849   5.563  72.101  1.00  0.00    -0.130 OA 
BRANCH   4   5
HETATM    5  C   UNL     1      -8.272   4.335  72.020  1.00  0.00    -0.095 C  
HETATM    6  C   UNL     1      -6.772   4.479  72.017  1.00  0.00    -0.034 C  
HETATM    7  O   UNL     1      -8.865   3.276  71.876  1.00  0.00    -0.086 OA 
ENDBRANCH   4   5
ENDBRANCH   3   4
BRANCH   3   8
HETATM    8  C   UNL     1     -10.492   6.952  70.798  1.00  0.00    -0.238 C  
BRANCH   8   9
HETATM    9  C   UNL     1     -11.873   7.603  71.158  1.00  0.00    -0.314 A  
HETATM   10  C   UNL     1     -13.121   7.008  70.905  1.00  0.00    -0.060 A  
HETATM   11  C   UNL     1     -14.318   7.592  71.349  1.00  0.00    -0.537 A  
HETATM   12  C   UNL     1     -14.311   8.827  71.986  1.00  0.00    -0.466 A  
HETATM   13  C   UNL     1     -13.104   9.471  72.197  1.00  0.00    -0.522 A  
HETATM   14  C   UNL     1     -11.910   8.852  71.817  1.00  0.00    -0.429 A  
ENDBRANCH   8   9
BRANCH   8  15
HETATM   15  C   UNL     1     -10.456   6.367  69.298  1.00  0.00    -0.277 A  
HETATM   16  C   UNL     1     -10.077   5.046  68.982  1.00  0.00    -0.238 A  
HETATM   17  C   UNL     1     -10.145   4.550  67.668  1.00  0.00    -0.075 A  
HETATM   18  C   UNL     1     -10.600   5.355  66.624  1.00  0.00    -0.359 A  
HETATM   19  C   UNL     1     -10.879   7.153  68.199  1.00  0.00    -0.170 A  
HETATM   20  C   UNL     1     -10.958   6.664  66.892  1.00  0.00    -0.396 A  
ENDBRANCH   8  15
BRANCH   8  21
HETATM   21  C   UNL     1      -9.326   8.056  70.939  1.00  0.00    -0.169 C  
BRANCH  21  22
HETATM   22  C   UNL     1      -8.126   8.343  69.963  1.00  0.00    -0.115 C  
HETATM   23  C   UNL     1      -6.772   8.003  70.613  1.00  0.00    -0.037 C  
BRANCH  22  24
HETATM   24  N   UNL     1      -8.118   9.653  69.272  1.00  0.00    -0.098 NA 
HETATM   25  C   UNL     1      -9.410  10.353  69.302  1.00  0.00    -0.187 C  
HETATM   26  C   UNL     1      -7.104  10.587  69.798  1.00  0.00    -0.150 C  
ENDBRANCH  22  24
ENDBRANCH  21  22
ENDBRANCH   8  21
ENDBRANCH   3   8
ENDBRANCH   2   3
TORSDOF 9
ENDMDL
MODEL      118
REMARK 921   NORMALIZED FREE ENERGY PREDICTED BY IDOCK:   -4.20 KCAL/MOL
REMARK 922        TOTAL FREE ENERGY PREDICTED BY IDOCK:   -8.10 KCAL/MOL
REMARK 923 INTER-LIGAND FREE ENERGY PREDICTED BY IDOCK:   -7.57 KCAL/MOL
REMARK 924 INTRA-LIGAND FREE ENERGY PREDICTED BY IDOCK:   -0.53 KCAL/MOL
REMARK 927      BINDING AFFINITY PREDICTED BY RF-SCORE:    0.00 PKD
ROOT
HETATM    1  C   UNL     1      -7.029  12.751  67.809  1.00  0.00    -0.131 C  
HETATM    2  C   UNL     1      -8.376  12.757  68.523  1.00  0.00    -0.054 C  
ENDROOT
BRANCH   2   3
HETATM    3  C   UNL     1      -9.539  13.111  67.572  1.00  0.00    -0.208 C  
BRANCH   3   4
HETATM    4  O   UNL     1     -10.012  14.441  67.949  1.00  0.00    -0.222 OA 
BRANCH   4   5
HETATM    5  C   UNL     1      -9.665  15.502  67.174  1.00  0.00    -0.222 C  
HETATM    6  C   UNL     1     -10.502  16.698  67.547  1.00  0.00    -0.317 C  
HETATM    7  O   UNL     1      -8.864  15.480  66.250  1.00  0.00    -0.306 OA 
ENDBRANCH   4   5
ENDBRANCH   3   4
BRANCH   3   8
HETATM    8  C   UNL     1     -10.765  12.065  67.608  1.00  0.00    -0.252 C  
BRANCH   8   9
HETATM    9  C   UNL     1     -11.509  12.249  68.977  1.00  0.00    -0.349 A  
HETATM   10  C   UNL     1     -11.953  11.189  69.787  1.00  0.00    -0.428 A  
HETATM   11  C   UNL     1     -12.517  11.417  71.053  1.00  0.00    -0.486 A  
HETATM   12  C   UNL     1     -12.729  12.711  71.512  1.00  0.00    -0.326 A  
HETATM   13  C   UNL     1     -12.360  13.780  70.714  1.00  0.00    -0.451 A  
HETATM   14  C   UNL     1     -11.735  13.546  69.486  1.00  0.00    -0.382 A  
ENDBRANCH   8   9
BRANCH   8  15
HETATM   15  C   UNL     1     -10.117  10.600  67.448  1.00  0.00    -0.231 A  
HETATM   16  C   UNL     1      -9.629   9.838  68.528  1.00  0.00    -0.155 A  
HETATM   17  C   UNL     1      -9.152   8.526  68.354  1.00  0.00    -0.139 A  
HETATM   18  C   UNL     1      -9.151   7.928  67.094  1.00  0.00    -0.158 A  
HETATM   19  C   UNL     1     -10.064   9.961  66.184  1.00  0.00    -0.315 A  
HETATM   20  C   UNL     1      -9.600   8.655  66.006  1.00  0.00    -0.265 A  
ENDBRANCH   8  15
BRANCH   8  21
HETATM   21  C   UNL     1     -11.804  12.296  66.398  1.00  0.00    -0.382 C  
BRANCH  21  22
HETATM   22  C   UNL     1     -11.763  13.387  65.266  1.00  0.00    -0.323 C  
HETATM   23  C   UNL     1     -12.879  14.433  65.445  1.00  0.00    -0.235 C  
BRANCH  22  24
HETATM   24  N   UNL     1     -11.645  12.906  63.871  1.00  0.00    -0.420 NA 
HETATM   25  C   UNL     1     -10.346  12.297  63.556  1.00  0.00    -0.410 C  
HETATM   26  C   UNL     1     -12.687  11.931  63.497  1.00  0.00    -0.405 C  
ENDBRANCH  22  24
ENDBRANCH  21  22
ENDBRANCH   8  21
ENDBRANCH   3   8
ENDBRANCH   2   3
TORSDOF 9
ENDMDL
MODEL      119
REMARK 921   NORMALIZED FREE ENERGY PREDICTED BY IDOCK:   -4.19 KCAL/MOL
REMARK 922        TOTAL FREE ENERGY PREDICTED BY IDOCK:   -8.08 KCAL/MOL
REMARK 923 INTER-LIGAND FREE ENERGY PREDICTED BY IDOCK:   -6.52 KCAL/MOL
REMARK 924 INTRA-LIGAND FREE ENERGY PREDICTED BY IDOCK:   -1.56 KCAL/MOL
REMARK 927      BINDING AFFINITY PREDICTED BY RF-SCORE:    0.00 PKD
ROOT
HETATM    1  C   UNL     1     -12.490  10.429  71.241  1.00  0.00    -0.521 C  
HETATM    2  C   UNL     1     -11.165   9.675  71.275  1.00  0.00    -0.446 C  
ENDROOT
BRANCH   2   3
HETATM    3  C   UNL     1     -11.064   8.620  70.154  1.00  0.00    -0.192 C  
BRANCH   3   4
HETATM    4  O   UNL     1     -10.891   7.321  70.802  1.00  0.00    -0.232 OA 
BRANCH   4   5
HETATM    5  C   UNL     1     -11.940   6.783  71.478  1.00  0.00    -0.350 C  
HETATM    6  C   UNL     1     -11.430   5.847  72.543  1.00  0.00    -0.347 C  
HETATM    7  O   UNL     1     -13.122   6.950  71.214  1.00  0.00    -0.332 OA 
ENDBRANCH   4   5
ENDBRANCH   3   4
BRANCH   3   8
HETATM    8  C   UNL     1      -9.863   8.873  69.111  1.00  0.00    -0.180 C  
BRANCH   8   9
HETATM    9  C   UNL     1      -9.821   7.654  68.124  1.00  0.00    -0.186 A  
HETATM   10  C   UNL     1     -10.936   6.866  67.789  1.00  0.00    -0.280 A  
HETATM   11  C   UNL     1     -10.856   5.856  66.816  1.00  0.00    -0.347 A  
HETATM   12  C   UNL     1      -9.644   5.547  66.211  1.00  0.00    -0.173 A  
HETATM   13  C   UNL     1      -8.512   6.263  66.563  1.00  0.00    -0.121 A  
HETATM   14  C   UNL     1      -8.612   7.314  67.479  1.00  0.00    -0.122 A  
ENDBRANCH   8   9
BRANCH   8  15
HETATM   15  C   UNL     1      -8.519   9.005  69.989  1.00  0.00    -0.149 A  
HETATM   16  C   UNL     1      -8.103   8.042  70.931  1.00  0.00    -0.102 A  
HETATM   17  C   UNL     1      -6.878   8.154  71.613  1.00  0.00    -0.063 A  
HETATM   18  C   UNL     1      -6.022   9.229  71.372  1.00  0.00    -0.075 A  
HETATM   19  C   UNL     1      -7.632  10.093  69.805  1.00  0.00    -0.175 A  
HETATM   20  C   UNL     1      -6.408  10.206  70.471  1.00  0.00    -0.117 A  
ENDBRANCH   8  15
BRANCH   8  21
HETATM   21  C   UNL     1     -10.055  10.235  68.271  1.00  0.00    -0.176 C  
BRANCH  21  22
HETATM   22  C   UNL     1     -10.910  10.472  66.972  1.00  0.00    -0.225 C  
HETATM   23  C   UNL     1     -10.060  10.317  65.697  1.00  0.00    -0.341 C  
BRANCH  22  24
HETATM   24  N   UNL     1     -11.774  11.675  66.944  1.00  0.00    -0.555 NA 
HETATM   25  C   UNL     1     -11.745  12.461  68.185  1.00  0.00    -0.353 C  
HETATM   26  C   UNL     1     -11.460  12.596  65.836  1.00  0.00    -0.363 C  
ENDBRANCH  22  24
ENDBRANCH  21  22
ENDBRANCH   8  21
ENDBRANCH   3   8
ENDBRANCH   2   3
TORSDOF 9
ENDMDL
MODEL      120
REMARK 921   NORMALIZED FREE ENERGY PREDICTED BY IDOCK:   -4.16 KCAL/MOL
REMARK 922        TOTAL FREE ENERGY PREDICTED BY IDOCK:   -8.04 KCAL/MOL
REMARK 923 INTER-LIGAND FREE ENERGY PREDICTED BY IDOCK:   -7.66 KCAL/MOL
REMARK 924 INTRA-LIGAND FREE ENERGY PREDICTED BY IDOCK:   -0.39 KCAL/MOL
REMARK 927      BINDING AFFINITY PREDICTED BY RF-SCORE:    0.00 PKD
ROOT
HETATM    1  C   UNL     1     -10.877  11.319  65.070  1.00  0.00    -0.285 C  
HETATM    2  C   UNL     1     -11.278  11.370  66.540  1.00  0.00    -0.276 C  
ENDROOT
BRANCH   2   3
HETATM    3  C   UNL     1     -11.388  12.816  67.066  1.00  0.00    -0.314 C  
BRANCH   3   4
HETATM    4  O   UNL     1     -10.931  13.699  65.994  1.00  0.00    -0.286 OA 
BRANCH   4   5
HETATM    5  C   UNL     1     -11.859  14.339  65.236  1.00  0.00    -0.374 C  
HETATM    6  C   UNL     1     -11.233  15.543  64.580  1.00  0.00    -0.327 C  
HETATM    7  O   UNL     1     -13.044  14.050  65.161  1.00  0.00    -0.776 OA 
ENDBRANCH   4   5
ENDBRANCH   3   4
BRANCH   3   8
HETATM    8  C   UNL     1     -10.538  13.100  68.405  1.00  0.00    -0.264 C  
BRANCH   8   9
HETATM    9  C   UNL     1     -11.412  12.653  69.630  1.00  0.00    -0.252 A  
HETATM   10  C   UNL     1     -12.065  13.539  70.504  1.00  0.00    -0.409 A  
HETATM   11  C   UNL     1     -12.920  13.076  71.517  1.00  0.00    -0.398 A  
HETATM   12  C   UNL     1     -13.084  11.714  71.740  1.00  0.00    -0.487 A  
HETATM   13  C   UNL     1     -12.407  10.813  70.936  1.00  0.00    -0.497 A  
HETATM   14  C   UNL     1     -11.613  11.279  69.884  1.00  0.00    -0.413 A  
ENDBRANCH   8   9
BRANCH   8  15
HETATM   15  C   UNL     1     -10.221  14.679  68.416  1.00  0.00    -0.235 A  
HETATM   16  C   UNL     1      -8.917  15.214  68.455  1.00  0.00    -0.186 A  
HETATM   17  C   UNL     1      -8.682  16.599  68.374  1.00  0.00    -0.225 A  
HETATM   18  C   UNL     1      -9.742  17.496  68.244  1.00  0.00    -0.311 A  
HETATM   19  C   UNL     1     -11.264  15.633  68.318  1.00  0.00    -0.353 A  
HETATM   20  C   UNL     1     -11.037  17.009  68.226  1.00  0.00    -0.172 A  
ENDBRANCH   8  15
BRANCH   8  21
HETATM   21  C   UNL     1      -9.139  12.301  68.426  1.00  0.00    -0.146 C  
BRANCH  21  22
HETATM   22  C   UNL     1      -7.967  12.351  67.378  1.00  0.00    -0.178 C  
HETATM   23  C   UNL     1      -7.785  10.999  66.664  1.00  0.00    -0.153 C  
BRANCH  22  24
HETATM   24  N   UNL     1      -6.685  12.939  67.828  1.00  0.00    -0.124 NA 
HETATM   25  C   UNL     1      -6.501  12.928  69.286  1.00  0.00    -0.104 C  
HETATM   26  C   UNL     1      -5.501  12.290  67.235  1.00  0.00    -0.113 C  
ENDBRANCH  22  24
ENDBRANCH  21  22
ENDBRANCH   8  21
ENDBRANCH   3   8
ENDBRANCH   2   3
TORSDOF 9
ENDMDL
MODEL      121
REMARK 921   NORMALIZED FREE ENERGY PREDICTED BY IDOCK:   -4.16 KCAL/MOL
REMARK 922        TOTAL FREE ENERGY PREDICTED BY IDOCK:   -8.04 KCAL/MOL
REMARK 923 INTER-LIGAND FREE ENERGY PREDICTED BY IDOCK:   -6.53 KCAL/MOL
REMARK 924 INTRA-LIGAND FREE ENERGY PREDICTED BY IDOCK:   -1.51 KCAL/MOL
REMARK 927      BINDING AFFINITY PREDICTED BY RF-SCORE:    0.00 PKD
ROOT
HETATM    1  C   UNL     1     -10.927   6.259  67.988  1.00  0.00    -0.418 C  
HETATM    2  C   UNL     1     -11.095   6.948  69.337  1.00  0.00    -0.249 C  
ENDROOT
BRANCH   2   3
HETATM    3  C   UNL     1      -9.748   7.155  70.060  1.00  0.00    -0.171 C  
BRANCH   3   4
HETATM    4  O   UNL     1      -9.631   6.097  71.062  1.00  0.00    -0.173 OA 
BRANCH   4   5
HETATM    5  C   UNL     1      -9.048   4.923  70.708  1.00  0.00    -0.137 C  
HETATM    6  C   UNL     1      -7.726   5.195  70.036  1.00  0.00    -0.067 C  
HETATM    7  O   UNL     1      -9.547   3.813  70.825  1.00  0.00    -0.158 OA 
ENDBRANCH   4   5
ENDBRANCH   3   4
BRANCH   3   8
HETATM    8  C   UNL     1      -9.589   8.595  70.766  1.00  0.00    -0.231 C  
BRANCH   8   9
HETATM    9  C   UNL     1      -8.633   8.421  71.997  1.00  0.00    -0.254 A  
HETATM   10  C   UNL     1      -9.066   8.143  73.306  1.00  0.00    -0.327 A  
HETATM   11  C   UNL     1      -8.155   7.892  74.344  1.00  0.00    -0.293 A  
HETATM   12  C   UNL     1      -6.786   7.991  74.126  1.00  0.00    -0.150 A  
HETATM   13  C   UNL     1      -6.325   8.322  72.863  1.00  0.00    -0.091 A  
HETATM   14  C   UNL     1      -7.235   8.502  71.817  1.00  0.00    -0.112 A  
ENDBRANCH   8   9
BRANCH   8  15
HETATM   15  C   UNL     1     -11.071   9.057  71.194  1.00  0.00    -0.371 A  
HETATM   16  C   UNL     1     -11.917   8.297  72.027  1.00  0.00    -0.405 A  
HETATM   17  C   UNL     1     -13.170   8.778  72.447  1.00  0.00    -0.441 A  
HETATM   18  C   UNL     1     -13.619  10.039  72.055  1.00  0.00    -0.366 A  
HETATM   19  C   UNL     1     -11.586  10.315  70.795  1.00  0.00    -0.446 A  
HETATM   20  C   UNL     1     -12.826  10.803  71.217  1.00  0.00    -0.540 A  
ENDBRANCH   8  15
BRANCH   8  21
HETATM   21  C   UNL     1      -8.981   9.704  69.767  1.00  0.00    -0.226 C  
BRANCH  21  22
HETATM   22  C   UNL     1      -8.851   9.647  68.201  1.00  0.00    -0.119 C  
HETATM   23  C   UNL     1      -7.710  10.547  67.692  1.00  0.00    -0.097 C  
BRANCH  22  24
HETATM   24  N   UNL     1     -10.098   9.801  67.416  1.00  0.00    -0.194 NA 
HETATM   25  C   UNL     1     -10.597  11.181  67.352  1.00  0.00    -0.234 C  
HETATM   26  C   UNL     1      -9.981   9.314  66.028  1.00  0.00    -0.255 C  
ENDBRANCH  22  24
ENDBRANCH  21  22
ENDBRANCH   8  21
ENDBRANCH   3   8
ENDBRANCH   2   3
TORSDOF 9
ENDMDL
MODEL      122
REMARK 921   NORMALIZED FREE ENERGY PREDICTED BY IDOCK:   -4.15 KCAL/MOL
REMARK 922        TOTAL FREE ENERGY PREDICTED BY IDOCK:   -8.03 KCAL/MOL
REMARK 923 INTER-LIGAND FREE ENERGY PREDICTED BY IDOCK:   -6.83 KCAL/MOL
REMARK 924 INTRA-LIGAND FREE ENERGY PREDICTED BY IDOCK:   -1.19 KCAL/MOL
REMARK 927      BINDING AFFINITY PREDICTED BY RF-SCORE:    0.00 PKD
ROOT
HETATM    1  C   UNL     1      -6.690   9.180  66.522  1.00  0.00    -0.075 C  
HETATM    2  C   UNL     1      -7.397   8.899  67.843  1.00  0.00    -0.084 C  
ENDROOT
BRANCH   2   3
HETATM    3  C   UNL     1      -8.220  10.108  68.333  1.00  0.00    -0.112 C  
BRANCH   3   4
HETATM    4  O   UNL     1      -7.727  10.452  69.665  1.00  0.00    -0.153 OA 
BRANCH   4   5
HETATM    5  C   UNL     1      -6.685  11.318  69.773  1.00  0.00    -0.099 C  
HETATM    6  C   UNL     1      -5.618  10.722  70.653  1.00  0.00    -0.114 C  
HETATM    7  O   UNL     1      -6.646  12.449  69.309  1.00  0.00    -0.102 OA 
ENDBRANCH   4   5
ENDBRANCH   3   4
BRANCH   3   8
HETATM    8  C   UNL     1      -9.810   9.848  68.391  1.00  0.00    -0.166 C  
BRANCH   8   9
HETATM    9  C   UNL     1     -10.047   8.304  68.248  1.00  0.00    -0.231 A  
HETATM   10  C   UNL     1      -9.723   7.356  69.234  1.00  0.00    -0.165 A  
HETATM   11  C   UNL     1     -10.059   6.000  69.090  1.00  0.00    -0.229 A  
HETATM   12  C   UNL     1     -10.654   5.537  67.922  1.00  0.00    -0.219 A  
HETATM   13  C   UNL     1     -10.932   6.433  66.905  1.00  0.00    -0.413 A  
HETATM   14  C   UNL     1     -10.660   7.793  67.083  1.00  0.00    -0.401 A  
ENDBRANCH   8   9
BRANCH   8  15
HETATM   15  C   UNL     1     -10.452  10.688  67.177  1.00  0.00    -0.295 A  
HETATM   16  C   UNL     1     -11.359  11.752  67.357  1.00  0.00    -0.376 A  
HETATM   17  C   UNL     1     -11.828  12.516  66.273  1.00  0.00    -0.453 A  
HETATM   18  C   UNL     1     -11.403  12.247  64.972  1.00  0.00    -0.376 A  
HETATM   19  C   UNL     1     -10.077  10.433  65.836  1.00  0.00    -0.326 A  
HETATM   20  C   UNL     1     -10.531  11.194  64.755  1.00  0.00    -0.388 A  
ENDBRANCH   8  15
BRANCH   8  21
HETATM   21  C   UNL     1     -10.467  10.364  69.770  1.00  0.00    -0.284 C  
BRANCH  21  22
HETATM   22  C   UNL     1     -11.939  10.168  70.286  1.00  0.00    -0.233 C  
HETATM   23  C   UNL     1     -12.496  11.457  70.918  1.00  0.00    -0.478 C  
BRANCH  22  24
HETATM   24  N   UNL     1     -12.212   8.964  71.104  1.00  0.00    -0.282 NA 
HETATM   25  C   UNL     1     -11.206   8.708  72.145  1.00  0.00    -0.367 C  
HETATM   26  C   UNL     1     -13.529   8.991  71.768  1.00  0.00    -0.411 C  
ENDBRANCH  22  24
ENDBRANCH  21  22
ENDBRANCH   8  21
ENDBRANCH   3   8
ENDBRANCH   2   3
TORSDOF 9
ENDMDL
MODEL      123
REMARK 921   NORMALIZED FREE ENERGY PREDICTED BY IDOCK:   -4.15 KCAL/MOL
REMARK 922        TOTAL FREE ENERGY PREDICTED BY IDOCK:   -8.02 KCAL/MOL
REMARK 923 INTER-LIGAND FREE ENERGY PREDICTED BY IDOCK:   -7.06 KCAL/MOL
REMARK 924 INTRA-LIGAND FREE ENERGY PREDICTED BY IDOCK:   -0.97 KCAL/MOL
REMARK 927      BINDING AFFINITY PREDICTED BY RF-SCORE:    0.00 PKD
ROOT
HETATM    1  C   UNL     1     -10.846  11.687  64.015  1.00  0.00    -0.455 C  
HETATM    2  C   UNL     1     -11.031  11.705  65.529  1.00  0.00    -0.327 C  
ENDROOT
BRANCH   2   3
HETATM    3  C   UNL     1     -10.924  13.128  66.113  1.00  0.00    -0.283 C  
BRANCH   3   4
HETATM    4  O   UNL     1     -10.426  13.994  65.046  1.00  0.00    -0.373 OA 
BRANCH   4   5
HETATM    5  C   UNL     1     -11.088  15.151  64.781  1.00  0.00    -0.382 C  
HETATM    6  C   UNL     1     -12.503  14.841  64.366  1.00  0.00    -0.274 C  
HETATM    7  O   UNL     1     -10.598  16.271  64.783  1.00  0.00    -0.658 OA 
ENDBRANCH   4   5
ENDBRANCH   3   4
BRANCH   3   8
HETATM    8  C   UNL     1      -9.964  13.244  67.402  1.00  0.00    -0.233 C  
BRANCH   8   9
HETATM    9  C   UNL     1      -9.046  11.972  67.431  1.00  0.00    -0.178 A  
HETATM   10  C   UNL     1      -8.207  11.574  66.376  1.00  0.00    -0.092 A  
HETATM   11  C   UNL     1      -7.329  10.485  66.504  1.00  0.00    -0.125 A  
HETATM   12  C   UNL     1      -7.322   9.712  67.659  1.00  0.00    -0.090 A  
HETATM   13  C   UNL     1      -8.180  10.039  68.696  1.00  0.00    -0.111 A  
HETATM   14  C   UNL     1      -9.001  11.165  68.590  1.00  0.00    -0.162 A  
ENDBRANCH   8   9
BRANCH   8  15
HETATM   15  C   UNL     1     -10.934  13.337  68.684  1.00  0.00    -0.294 A  
HETATM   16  C   UNL     1     -11.644  12.238  69.209  1.00  0.00    -0.383 A  
HETATM   17  C   UNL     1     -12.411  12.343  70.383  1.00  0.00    -0.307 A  
HETATM   18  C   UNL     1     -12.491  13.550  71.077  1.00  0.00    -0.451 A  
HETATM   19  C   UNL     1     -11.074  14.547  69.406  1.00  0.00    -0.297 A  
HETATM   20  C   UNL     1     -11.827  14.657  70.578  1.00  0.00    -0.367 A  
ENDBRANCH   8  15
BRANCH   8  21
HETATM   21  C   UNL     1      -9.043  14.567  67.366  1.00  0.00    -0.201 C  
BRANCH  21  22
HETATM   22  C   UNL     1      -7.524  14.713  67.745  1.00  0.00    -0.166 C  
HETATM   23  C   UNL     1      -7.315  14.703  69.270  1.00  0.00    -0.149 C  
BRANCH  22  24
HETATM   24  N   UNL     1      -6.761  15.788  67.068  1.00  0.00    -0.281 NA 
HETATM   25  C   UNL     1      -7.598  16.876  66.545  1.00  0.00    -0.293 C  
HETATM   26  C   UNL     1      -5.729  16.403  67.924  1.00  0.00    -0.127 C  
ENDBRANCH  22  24
ENDBRANCH  21  22
ENDBRANCH   8  21
ENDBRANCH   3   8
ENDBRANCH   2   3
TORSDOF 9
ENDMDL
MODEL      124
REMARK 921   NORMALIZED FREE ENERGY PREDICTED BY IDOCK:   -4.15 KCAL/MOL
REMARK 922        TOTAL FREE ENERGY PREDICTED BY IDOCK:   -8.02 KCAL/MOL
REMARK 923 INTER-LIGAND FREE ENERGY PREDICTED BY IDOCK:   -6.50 KCAL/MOL
REMARK 924 INTRA-LIGAND FREE ENERGY PREDICTED BY IDOCK:   -1.52 KCAL/MOL
REMARK 927      BINDING AFFINITY PREDICTED BY RF-SCORE:    0.00 PKD
ROOT
HETATM    1  C   UNL     1     -11.080   6.645  67.928  1.00  0.00    -0.310 C  
HETATM    2  C   UNL     1     -11.020   6.442  69.438  1.00  0.00    -0.421 C  
ENDROOT
BRANCH   2   3
HETATM    3  C   UNL     1      -9.674   6.901  70.035  1.00  0.00    -0.167 C  
BRANCH   3   4
HETATM    4  O   UNL     1      -8.821   5.717  70.134  1.00  0.00    -0.136 OA 
BRANCH   4   5
HETATM    5  C   UNL     1      -8.034   5.389  69.076  1.00  0.00    -0.094 C  
HETATM    6  C   UNL     1      -8.388   4.008  68.589  1.00  0.00    -0.093 C  
HETATM    7  O   UNL     1      -7.113   6.062  68.636  1.00  0.00    -0.076 OA 
ENDBRANCH   4   5
ENDBRANCH   3   4
BRANCH   3   8
HETATM    8  C   UNL     1      -9.795   7.606  71.479  1.00  0.00    -0.192 C  
BRANCH   8   9
HETATM    9  C   UNL     1     -10.074   6.483  72.538  1.00  0.00    -0.189 A  
HETATM   10  C   UNL     1     -11.185   5.623  72.509  1.00  0.00    -0.346 A  
HETATM   11  C   UNL     1     -11.322   4.567  73.424  1.00  0.00    -0.376 A  
HETATM   12  C   UNL     1     -10.396   4.388  74.445  1.00  0.00    -0.301 A  
HETATM   13  C   UNL     1      -9.321   5.255  74.541  1.00  0.00    -0.132 A  
HETATM   14  C   UNL     1      -9.152   6.261  73.585  1.00  0.00    -0.134 A  
ENDBRANCH   8   9
BRANCH   8  15
HETATM   15  C   UNL     1     -11.004   8.664  71.367  1.00  0.00    -0.341 A  
HETATM   16  C   UNL     1     -12.170   8.606  72.158  1.00  0.00    -0.453 A  
HETATM   17  C   UNL     1     -13.162   9.601  72.089  1.00  0.00    -0.535 A  
HETATM   18  C   UNL     1     -13.021  10.692  71.231  1.00  0.00    -0.513 A  
HETATM   19  C   UNL     1     -10.924   9.772  70.488  1.00  0.00    -0.384 A  
HETATM   20  C   UNL     1     -11.901  10.769  70.422  1.00  0.00    -0.450 A  
ENDBRANCH   8  15
BRANCH   8  21
HETATM   21  C   UNL     1      -8.457   8.407  71.886  1.00  0.00    -0.237 C  
BRANCH  21  22
HETATM   22  C   UNL     1      -7.222   8.772  70.984  1.00  0.00    -0.088 C  
HETATM   23  C   UNL     1      -5.890   8.448  71.686  1.00  0.00    -0.041 C  
BRANCH  22  24
HETATM   24  N   UNL     1      -7.224  10.110  70.348  1.00  0.00    -0.277 NA 
HETATM   25  C   UNL     1      -5.944  10.823  70.450  1.00  0.00    -0.128 C  
HETATM   26  C   UNL     1      -7.594  10.080  68.920  1.00  0.00    -0.086 C  
ENDBRANCH  22  24
ENDBRANCH  21  22
ENDBRANCH   8  21
ENDBRANCH   3   8
ENDBRANCH   2   3
TORSDOF 9
ENDMDL
MODEL      125
REMARK 921   NORMALIZED FREE ENERGY PREDICTED BY IDOCK:   -4.14 KCAL/MOL
REMARK 922        TOTAL FREE ENERGY PREDICTED BY IDOCK:   -8.01 KCAL/MOL
REMARK 923 INTER-LIGAND FREE ENERGY PREDICTED BY IDOCK:   -7.06 KCAL/MOL
REMARK 924 INTRA-LIGAND FREE ENERGY PREDICTED BY IDOCK:   -0.94 KCAL/MOL
REMARK 927      BINDING AFFINITY PREDICTED BY RF-SCORE:    0.00 PKD
ROOT
HETATM    1  C   UNL     1     -10.610   6.129  67.379  1.00  0.00    -0.352 C  
HETATM    2  C   UNL     1     -11.144   6.550  68.744  1.00  0.00    -0.357 C  
ENDROOT
BRANCH   2   3
HETATM    3  C   UNL     1     -10.017   6.739  69.779  1.00  0.00    -0.177 C  
BRANCH   3   4
HETATM    4  O   UNL     1     -10.085   5.606  70.700  1.00  0.00    -0.188 OA 
BRANCH   4   5
HETATM    5  C   UNL     1      -9.307   4.518  70.457  1.00  0.00    -0.148 C  
HETATM    6  C   UNL     1      -7.960   4.962  69.948  1.00  0.00    -0.069 C  
HETATM    7  O   UNL     1      -9.662   3.352  70.545  1.00  0.00    -0.177 OA 
ENDBRANCH   4   5
ENDBRANCH   3   4
BRANCH   3   8
HETATM    8  C   UNL     1     -10.102   8.119  70.607  1.00  0.00    -0.209 C  
BRANCH   8   9
HETATM    9  C   UNL     1      -9.106   8.014  71.815  1.00  0.00    -0.207 A  
HETATM   10  C   UNL     1      -7.733   8.306  71.740  1.00  0.00    -0.136 A  
HETATM   11  C   UNL     1      -6.916   8.297  72.882  1.00  0.00    -0.124 A  
HETATM   12  C   UNL     1      -7.427   7.918  74.117  1.00  0.00    -0.202 A  
HETATM   13  C   UNL     1      -8.762   7.566  74.216  1.00  0.00    -0.264 A  
HETATM   14  C   UNL     1      -9.587   7.644  73.090  1.00  0.00    -0.314 A  
ENDBRANCH   8   9
BRANCH   8  15
HETATM   15  C   UNL     1     -11.633   8.273  71.078  1.00  0.00    -0.301 A  
HETATM   16  C   UNL     1     -12.545   7.199  71.136  1.00  0.00    -0.384 A  
HETATM   17  C   UNL     1     -13.849   7.361  71.637  1.00  0.00    -0.490 A  
HETATM   18  C   UNL     1     -14.286   8.600  72.105  1.00  0.00    -0.520 A  
HETATM   19  C   UNL     1     -12.135   9.517  71.533  1.00  0.00    -0.468 A  
HETATM   20  C   UNL     1     -13.426   9.683  72.042  1.00  0.00    -0.514 A  
ENDBRANCH   8  15
BRANCH   8  21
HETATM   21  C   UNL     1      -9.717   9.400  69.706  1.00  0.00    -0.215 C  
BRANCH  21  22
HETATM   22  C   UNL     1     -10.654  10.268  68.789  1.00  0.00    -0.209 C  
HETATM   23  C   UNL     1     -10.576   9.827  67.316  1.00  0.00    -0.320 C  
BRANCH  22  24
HETATM   24  N   UNL     1     -10.582  11.739  68.952  1.00  0.00    -0.205 NA 
HETATM   25  C   UNL     1      -9.695  12.404  67.988  1.00  0.00    -0.210 C  
HETATM   26  C   UNL     1     -11.895  12.404  68.869  1.00  0.00    -0.301 C  
ENDBRANCH  22  24
ENDBRANCH  21  22
ENDBRANCH   8  21
ENDBRANCH   3   8
ENDBRANCH   2   3
TORSDOF 9
ENDMDL
MODEL      126
REMARK 921   NORMALIZED FREE ENERGY PREDICTED BY IDOCK:   -4.14 KCAL/MOL
REMARK 922        TOTAL FREE ENERGY PREDICTED BY IDOCK:   -8.00 KCAL/MOL
REMARK 923 INTER-LIGAND FREE ENERGY PREDICTED BY IDOCK:   -6.46 KCAL/MOL
REMARK 924 INTRA-LIGAND FREE ENERGY PREDICTED BY IDOCK:   -1.54 KCAL/MOL
REMARK 927      BINDING AFFINITY PREDICTED BY RF-SCORE:    0.00 PKD
ROOT
HETATM    1  C   UNL     1      -6.819   7.559  71.497  1.00  0.00    -0.050 C  
HETATM    2  C   UNL     1      -7.942   7.470  70.470  1.00  0.00    -0.098 C  
ENDROOT
BRANCH   2   3
HETATM    3  C   UNL     1      -9.334   7.660  71.108  1.00  0.00    -0.154 C  
BRANCH   3   4
HETATM    4  O   UNL     1      -9.613   6.460  71.895  1.00  0.00    -0.154 OA 
BRANCH   4   5
HETATM    5  C   UNL     1      -9.978   6.601  73.196  1.00  0.00    -0.183 C  
HETATM    6  C   UNL     1     -10.764   5.394  73.636  1.00  0.00    -0.337 C  
HETATM    7  O   UNL     1      -9.785   7.591  73.888  1.00  0.00    -0.281 OA 
ENDBRANCH   4   5
ENDBRANCH   3   4
BRANCH   3   8
HETATM    8  C   UNL     1     -10.522   7.904  70.047  1.00  0.00    -0.231 C  
BRANCH   8   9
HETATM    9  C   UNL     1     -10.115   9.121  69.145  1.00  0.00    -0.199 A  
HETATM   10  C   UNL     1      -9.076  10.020  69.446  1.00  0.00    -0.228 A  
HETATM   11  C   UNL     1      -8.690  11.025  68.545  1.00  0.00    -0.159 A  
HETATM   12  C   UNL     1      -9.380  11.215  67.355  1.00  0.00    -0.172 A  
HETATM   13  C   UNL     1     -10.448  10.386  67.054  1.00  0.00    -0.309 A  
HETATM   14  C   UNL     1     -10.783   9.343  67.921  1.00  0.00    -0.269 A  
ENDBRANCH   8   9
BRANCH   8  15
HETATM   15  C   UNL     1     -11.850   8.191  70.910  1.00  0.00    -0.232 A  
HETATM   16  C   UNL     1     -12.107   9.411  71.568  1.00  0.00    -0.456 A  
HETATM   17  C   UNL     1     -13.321   9.650  72.238  1.00  0.00    -0.498 A  
HETATM   18  C   UNL     1     -14.322   8.680  72.269  1.00  0.00    -0.486 A  
HETATM   19  C   UNL     1     -12.884   7.227  70.999  1.00  0.00    -0.259 A  
HETATM   20  C   UNL     1     -14.096   7.461  71.654  1.00  0.00    -0.552 A  
ENDBRANCH   8  15
BRANCH   8  21
HETATM   21  C   UNL     1     -10.790   6.614  69.117  1.00  0.00    -0.329 C  
BRANCH  21  22
HETATM   22  C   UNL     1      -9.882   6.024  67.976  1.00  0.00    -0.124 C  
HETATM   23  C   UNL     1     -10.575   6.099  66.603  1.00  0.00    -0.296 C  
BRANCH  22  24
HETATM   24  N   UNL     1      -9.251   4.709  68.230  1.00  0.00    -0.121 NA 
HETATM   25  C   UNL     1      -7.788   4.710  68.090  1.00  0.00    -0.081 C  
HETATM   26  C   UNL     1      -9.562   4.156  69.561  1.00  0.00    -0.204 C  
ENDBRANCH  22  24
ENDBRANCH  21  22
ENDBRANCH   8  21
ENDBRANCH   3   8
ENDBRANCH   2   3
TORSDOF 9
ENDMDL
MODEL      127
REMARK 921   NORMALIZED FREE ENERGY PREDICTED BY IDOCK:   -4.13 KCAL/MOL
REMARK 922        TOTAL FREE ENERGY PREDICTED BY IDOCK:   -8.00 KCAL/MOL
REMARK 923 INTER-LIGAND FREE ENERGY PREDICTED BY IDOCK:   -6.97 KCAL/MOL
REMARK 924 INTRA-LIGAND FREE ENERGY PREDICTED BY IDOCK:   -1.02 KCAL/MOL
REMARK 927      BINDING AFFINITY PREDICTED BY RF-SCORE:    0.00 PKD
ROOT
HETATM    1  C   UNL     1     -11.822  14.396  70.140  1.00  0.00    -0.380 C  
HETATM    2  C   UNL     1     -11.681  13.253  69.140  1.00  0.00    -0.379 C  
ENDROOT
BRANCH   2   3
HETATM    3  C   UNL     1     -10.578  13.524  68.096  1.00  0.00    -0.245 C  
BRANCH   3   4
HETATM    4  O   UNL     1     -11.094  14.538  67.179  1.00  0.00    -0.302 OA 
BRANCH   4   5
HETATM    5  C   UNL     1     -10.404  15.700  67.033  1.00  0.00    -0.289 C  
HETATM    6  C   UNL     1     -10.536  16.193  65.616  1.00  0.00    -0.402 C  
HETATM    7  O   UNL     1      -9.703  16.226  67.886  1.00  0.00    -0.230 OA 
ENDBRANCH   4   5
ENDBRANCH   3   4
BRANCH   3   8
HETATM    8  C   UNL     1     -10.117  12.222  67.266  1.00  0.00    -0.212 C  
BRANCH   8   9
HETATM    9  C   UNL     1      -8.550  12.227  67.198  1.00  0.00    -0.187 A  
HETATM   10  C   UNL     1      -7.735  13.225  67.761  1.00  0.00    -0.159 A  
HETATM   11  C   UNL     1      -6.335  13.117  67.760  1.00  0.00    -0.156 A  
HETATM   12  C   UNL     1      -5.705  12.053  67.125  1.00  0.00    -0.142 A  
HETATM   13  C   UNL     1      -6.476  11.084  66.507  1.00  0.00    -0.132 A  
HETATM   14  C   UNL     1      -7.870  11.159  66.573  1.00  0.00    -0.151 A  
ENDBRANCH   8   9
BRANCH   8  15
HETATM   15  C   UNL     1     -10.800  12.345  65.813  1.00  0.00    -0.312 A  
HETATM   16  C   UNL     1     -10.083  12.263  64.602  1.00  0.00    -0.275 A  
HETATM   17  C   UNL     1     -10.730  12.288  63.354  1.00  0.00    -0.438 A  
HETATM   18  C   UNL     1     -12.119  12.389  63.272  1.00  0.00    -0.519 A  
HETATM   19  C   UNL     1     -12.204  12.480  65.676  1.00  0.00    -0.403 A  
HETATM   20  C   UNL     1     -12.855  12.495  64.439  1.00  0.00    -0.366 A  
ENDBRANCH   8  15
BRANCH   8  21
HETATM   21  C   UNL     1     -10.619  10.850  67.947  1.00  0.00    -0.246 C  
BRANCH  21  22
HETATM   22  C   UNL     1      -9.898   9.453  67.981  1.00  0.00    -0.164 C  
HETATM   23  C   UNL     1     -10.513   8.471  66.966  1.00  0.00    -0.362 C  
BRANCH  22  24
HETATM   24  N   UNL     1      -9.678   8.839  69.311  1.00  0.00    -0.169 NA 
HETATM   25  C   UNL     1     -10.852   8.138  69.847  1.00  0.00    -0.215 C  
HETATM   26  C   UNL     1      -8.550   7.888  69.339  1.00  0.00    -0.137 C  
ENDBRANCH  22  24
ENDBRANCH  21  22
ENDBRANCH   8  21
ENDBRANCH   3   8
ENDBRANCH   2   3
TORSDOF 9
ENDMDL
MODEL      128
REMARK 921   NORMALIZED FREE ENERGY PREDICTED BY IDOCK:   -4.13 KCAL/MOL
REMARK 922        TOTAL FREE ENERGY PREDICTED BY IDOCK:   -7.99 KCAL/MOL
REMARK 923 INTER-LIGAND FREE ENERGY PREDICTED BY IDOCK:   -7.49 KCAL/MOL
REMARK 924 INTRA-LIGAND FREE ENERGY PREDICTED BY IDOCK:   -0.50 KCAL/MOL
REMARK 927      BINDING AFFINITY PREDICTED BY RF-SCORE:    0.00 PKD
ROOT
HETATM    1  C   UNL     1     -10.600  17.297  65.992  1.00  0.00    -0.217 C  
HETATM    2  C   UNL     1      -9.979  16.427  67.079  1.00  0.00    -0.261 C  
ENDROOT
BRANCH   2   3
HETATM    3  C   UNL     1     -10.299  14.931  66.884  1.00  0.00    -0.264 C  
BRANCH   3   4
HETATM    4  O   UNL     1     -11.737  14.827  66.646  1.00  0.00    -0.358 OA 
BRANCH   4   5
HETATM    5  C   UNL     1     -12.170  14.183  65.530  1.00  0.00    -0.432 C  
HETATM    6  C   UNL     1     -11.042  14.076  64.537  1.00  0.00    -0.360 C  
HETATM    7  O   UNL     1     -13.318  13.823  65.313  1.00  0.00    -0.710 OA 
ENDBRANCH   4   5
ENDBRANCH   3   4
BRANCH   3   8
HETATM    8  C   UNL     1      -9.884  13.997  68.130  1.00  0.00    -0.235 C  
BRANCH   8   9
HETATM    9  C   UNL     1     -10.117  12.504  67.707  1.00  0.00    -0.218 A  
HETATM   10  C   UNL     1      -9.530  11.897  66.583  1.00  0.00    -0.217 A  
HETATM   11  C   UNL     1      -9.692  10.527  66.318  1.00  0.00    -0.254 A  
HETATM   12  C   UNL     1     -10.509   9.741  67.121  1.00  0.00    -0.316 A  
HETATM   13  C   UNL     1     -11.152  10.320  68.202  1.00  0.00    -0.324 A  
HETATM   14  C   UNL     1     -10.931  11.668  68.502  1.00  0.00    -0.264 A  
ENDBRANCH   8   9
BRANCH   8  15
HETATM   15  C   UNL     1     -10.818  14.443  69.363  1.00  0.00    -0.227 A  
HETATM   16  C   UNL     1     -10.581  15.588  70.150  1.00  0.00    -0.336 A  
HETATM   17  C   UNL     1     -11.472  15.989  71.162  1.00  0.00    -0.470 A  
HETATM   18  C   UNL     1     -12.634  15.263  71.419  1.00  0.00    -0.444 A  
HETATM   19  C   UNL     1     -11.994  13.721  69.685  1.00  0.00    -0.399 A  
HETATM   20  C   UNL     1     -12.888  14.120  70.683  1.00  0.00    -0.356 A  
ENDBRANCH   8  15
BRANCH   8  21
HETATM   21  C   UNL     1      -8.344  14.197  68.562  1.00  0.00    -0.155 C  
BRANCH  21  22
HETATM   22  C   UNL     1      -7.114  14.574  67.657  1.00  0.00    -0.183 C  
HETATM   23  C   UNL     1      -6.237  13.347  67.351  1.00  0.00     0.033 C  
BRANCH  22  24
HETATM   24  N   UNL     1      -6.323  15.761  68.056  1.00  0.00    -0.118 NA 
HETATM   25  C   UNL     1      -6.271  16.816  67.035  1.00  0.00    -0.186 C  
HETATM   26  C   UNL     1      -6.792  16.386  69.307  1.00  0.00    -0.218 C  
ENDBRANCH  22  24
ENDBRANCH  21  22
ENDBRANCH   8  21
ENDBRANCH   3   8
ENDBRANCH   2   3
TORSDOF 9
ENDMDL
MODEL      129
REMARK 921   NORMALIZED FREE ENERGY PREDICTED BY IDOCK:   -4.13 KCAL/MOL
REMARK 922        TOTAL FREE ENERGY PREDICTED BY IDOCK:   -7.99 KCAL/MOL
REMARK 923 INTER-LIGAND FREE ENERGY PREDICTED BY IDOCK:   -6.62 KCAL/MOL
REMARK 924 INTRA-LIGAND FREE ENERGY PREDICTED BY IDOCK:   -1.37 KCAL/MOL
REMARK 927      BINDING AFFINITY PREDICTED BY RF-SCORE:    0.00 PKD
ROOT
HETATM    1  C   UNL     1     -11.791  10.186  71.419  1.00  0.00    -0.414 C  
HETATM    2  C   UNL     1     -10.691   9.176  71.113  1.00  0.00    -0.380 C  
ENDROOT
BRANCH   2   3
HETATM    3  C   UNL     1     -11.028   8.297  69.891  1.00  0.00    -0.166 C  
BRANCH   3   4
HETATM    4  O   UNL     1     -11.177   6.926  70.375  1.00  0.00    -0.276 OA 
BRANCH   4   5
HETATM    5  C   UNL     1     -12.147   6.657  71.287  1.00  0.00    -0.341 C  
HETATM    6  C   UNL     1     -11.593   5.767  72.369  1.00  0.00    -0.320 C  
HETATM    7  O   UNL     1     -13.318   6.999  71.206  1.00  0.00    -0.346 OA 
ENDBRANCH   4   5
ENDBRANCH   3   4
BRANCH   3   8
HETATM    8  C   UNL     1      -9.925   8.344  68.717  1.00  0.00    -0.197 C  
BRANCH   8   9
HETATM    9  C   UNL     1     -10.308   9.516  67.747  1.00  0.00    -0.291 A  
HETATM   10  C   UNL     1     -11.169  10.576  68.083  1.00  0.00    -0.357 A  
HETATM   11  C   UNL     1     -11.388  11.651  67.207  1.00  0.00    -0.372 A  
HETATM   12  C   UNL     1     -10.820  11.660  65.939  1.00  0.00    -0.339 A  
HETATM   13  C   UNL     1     -10.016  10.602  65.551  1.00  0.00    -0.333 A  
HETATM   14  C   UNL     1      -9.744   9.569  66.453  1.00  0.00    -0.295 A  
ENDBRANCH   8   9
BRANCH   8  15
HETATM   15  C   UNL     1      -9.966   6.905  67.996  1.00  0.00    -0.175 A  
HETATM   16  C   UNL     1     -10.954   6.525  67.065  1.00  0.00    -0.466 A  
HETATM   17  C   UNL     1     -10.903   5.291  66.393  1.00  0.00    -0.198 A  
HETATM   18  C   UNL     1      -9.860   4.394  66.625  1.00  0.00    -0.246 A  
HETATM   19  C   UNL     1      -8.947   5.947  68.222  1.00  0.00    -0.112 A  
HETATM   20  C   UNL     1      -8.885   4.723  67.550  1.00  0.00    -0.108 A  
ENDBRANCH   8  15
BRANCH   8  21
HETATM   21  C   UNL     1      -8.435   8.585  69.284  1.00  0.00    -0.128 C  
BRANCH  21  22
HETATM   22  C   UNL     1      -7.811   9.904  69.870  1.00  0.00    -0.173 C  
HETATM   23  C   UNL     1      -7.093  10.725  68.782  1.00  0.00    -0.079 C  
BRANCH  22  24
HETATM   24  N   UNL     1      -7.017   9.780  71.113  1.00  0.00    -0.330 NA 
HETATM   25  C   UNL     1      -7.128   8.468  71.765  1.00  0.00    -0.094 C  
HETATM   26  C   UNL     1      -5.579  10.051  70.921  1.00  0.00    -0.082 C  
ENDBRANCH  22  24
ENDBRANCH  21  22
ENDBRANCH   8  21
ENDBRANCH   3   8
ENDBRANCH   2   3
TORSDOF 9
ENDMDL
MODEL      130
REMARK 921   NORMALIZED FREE ENERGY PREDICTED BY IDOCK:   -4.12 KCAL/MOL
REMARK 922        TOTAL FREE ENERGY PREDICTED BY IDOCK:   -7.98 KCAL/MOL
REMARK 923 INTER-LIGAND FREE ENERGY PREDICTED BY IDOCK:   -7.35 KCAL/MOL
REMARK 924 INTRA-LIGAND FREE ENERGY PREDICTED BY IDOCK:   -0.62 KCAL/MOL
REMARK 927      BINDING AFFINITY PREDICTED BY RF-SCORE:    0.00 PKD
ROOT
HETATM    1  C   UNL     1     -12.838  14.176  65.589  1.00  0.00    -0.402 C  
HETATM    2  C   UNL     1     -12.337  13.118  66.566  1.00  0.00    -0.252 C  
ENDROOT
BRANCH   2   3
HETATM    3  C   UNL     1     -10.918  12.626  66.217  1.00  0.00    -0.283 C  
BRANCH   3   4
HETATM    4  O   UNL     1     -11.068  11.469  65.336  1.00  0.00    -0.267 OA 
BRANCH   4   5
HETATM    5  C   UNL     1     -10.720  11.594  64.029  1.00  0.00    -0.384 C  
HETATM    6  C   UNL     1      -9.736  10.514  63.661  1.00  0.00    -0.375 C  
HETATM    7  O   UNL     1     -11.070  12.494  63.279  1.00  0.00    -0.438 OA 
ENDBRANCH   4   5
ENDBRANCH   3   4
BRANCH   3   8
HETATM    8  C   UNL     1     -10.023  12.224  67.495  1.00  0.00    -0.201 C  
BRANCH   8   9
HETATM    9  C   UNL     1      -9.584  10.728  67.321  1.00  0.00    -0.182 A  
HETATM   10  C   UNL     1     -10.473   9.640  67.277  1.00  0.00    -0.323 A  
HETATM   11  C   UNL     1     -10.027   8.336  67.010  1.00  0.00    -0.325 A  
HETATM   12  C   UNL     1      -8.672   8.066  66.862  1.00  0.00    -0.136 A  
HETATM   13  C   UNL     1      -7.762   9.105  66.961  1.00  0.00    -0.098 A  
HETATM   14  C   UNL     1      -8.218  10.411  67.155  1.00  0.00    -0.122 A  
ENDBRANCH   8   9
BRANCH   8  15
HETATM   15  C   UNL     1     -10.953  12.449  68.790  1.00  0.00    -0.287 A  
HETATM   16  C   UNL     1     -11.338  13.719  69.266  1.00  0.00    -0.325 A  
HETATM   17  C   UNL     1     -12.224  13.867  70.348  1.00  0.00    -0.438 A  
HETATM   18  C   UNL     1     -12.761  12.751  70.990  1.00  0.00    -0.331 A  
HETATM   19  C   UNL     1     -11.499  11.348  69.495  1.00  0.00    -0.381 A  
HETATM   20  C   UNL     1     -12.387  11.488  70.565  1.00  0.00    -0.432 A  
ENDBRANCH   8  15
BRANCH   8  21
HETATM   21  C   UNL     1      -8.713  13.152  67.645  1.00  0.00    -0.192 C  
BRANCH  21  22
HETATM   22  C   UNL     1      -8.449  14.578  67.036  1.00  0.00    -0.196 C  
HETATM   23  C   UNL     1      -7.063  15.118  67.433  1.00  0.00    -0.219 C  
BRANCH  22  24
HETATM   24  N   UNL     1      -9.523  15.586  67.190  1.00  0.00    -0.212 NA 
HETATM   25  C   UNL     1      -9.237  16.615  68.199  1.00  0.00    -0.220 C  
HETATM   26  C   UNL     1      -9.855  16.286  65.935  1.00  0.00    -0.334 C  
ENDBRANCH  22  24
ENDBRANCH  21  22
ENDBRANCH   8  21
ENDBRANCH   3   8
ENDBRANCH   2   3
TORSDOF 9
ENDMDL
MODEL      131
REMARK 921   NORMALIZED FREE ENERGY PREDICTED BY IDOCK:   -4.11 KCAL/MOL
REMARK 922        TOTAL FREE ENERGY PREDICTED BY IDOCK:   -7.96 KCAL/MOL
REMARK 923 INTER-LIGAND FREE ENERGY PREDICTED BY IDOCK:   -6.67 KCAL/MOL
REMARK 924 INTRA-LIGAND FREE ENERGY PREDICTED BY IDOCK:   -1.29 KCAL/MOL
REMARK 927      BINDING AFFINITY PREDICTED BY RF-SCORE:    0.00 PKD
ROOT
HETATM    1  C   UNL     1      -8.817   8.351  72.541  1.00  0.00    -0.296 C  
HETATM    2  C   UNL     1      -9.026   7.416  71.354  1.00  0.00    -0.141 C  
ENDROOT
BRANCH   2   3
HETATM    3  C   UNL     1      -9.081   8.177  70.014  1.00  0.00    -0.151 C  
BRANCH   3   4
HETATM    4  O   UNL     1      -8.708   9.563  70.291  1.00  0.00    -0.207 OA 
BRANCH   4   5
HETATM    5  C   UNL     1      -7.486  10.003  69.891  1.00  0.00    -0.167 C  
HETATM    6  C   UNL     1      -7.650  11.170  68.952  1.00  0.00    -0.133 C  
HETATM    7  O   UNL     1      -6.415   9.483  70.168  1.00  0.00    -0.053 OA 
ENDBRANCH   4   5
ENDBRANCH   3   4
BRANCH   3   8
HETATM    8  C   UNL     1     -10.519   8.134  69.287  1.00  0.00    -0.221 C  
BRANCH   8   9
HETATM    9  C   UNL     1     -10.498   9.187  68.123  1.00  0.00    -0.260 A  
HETATM   10  C   UNL     1      -9.812   9.013  66.909  1.00  0.00    -0.288 A  
HETATM   11  C   UNL     1      -9.921   9.944  65.863  1.00  0.00    -0.347 A  
HETATM   12  C   UNL     1     -10.649  11.116  66.029  1.00  0.00    -0.298 A  
HETATM   13  C   UNL     1     -11.288  11.348  67.236  1.00  0.00    -0.347 A  
HETATM   14  C   UNL     1     -11.235  10.385  68.247  1.00  0.00    -0.330 A  
ENDBRANCH   8   9
BRANCH   8  15
HETATM   15  C   UNL     1     -11.610   8.485  70.418  1.00  0.00    -0.075 A  
HETATM   16  C   UNL     1     -11.770   9.768  70.980  1.00  0.00    -0.453 A  
HETATM   17  C   UNL     1     -12.794  10.051  71.901  1.00  0.00    -0.524 A  
HETATM   18  C   UNL     1     -13.698   9.062  72.290  1.00  0.00    -0.550 A  
HETATM   19  C   UNL     1     -12.532   7.508  70.869  1.00  0.00    -0.163 A  
HETATM   20  C   UNL     1     -13.558   7.785  71.778  1.00  0.00    -0.390 A  
ENDBRANCH   8  15
BRANCH   8  21
HETATM   21  C   UNL     1     -10.861   6.678  68.686  1.00  0.00    -0.319 C  
BRANCH  21  22
HETATM   22  C   UNL     1      -9.918   5.699  67.897  1.00  0.00    -0.143 C  
HETATM   23  C   UNL     1     -10.544   5.260  66.560  1.00  0.00    -0.348 C  
BRANCH  22  24
HETATM   24  N   UNL     1      -9.334   4.568  68.656  1.00  0.00    -0.131 NA 
HETATM   25  C   UNL     1      -9.925   4.373  69.987  1.00  0.00    -0.175 C  
HETATM   26  C   UNL     1      -9.422   3.278  67.946  1.00  0.00    -0.164 C  
ENDBRANCH  22  24
ENDBRANCH  21  22
ENDBRANCH   8  21
ENDBRANCH   3   8
ENDBRANCH   2   3
TORSDOF 9
ENDMDL
MODEL      132
REMARK 921   NORMALIZED FREE ENERGY PREDICTED BY IDOCK:   -4.10 KCAL/MOL
REMARK 922        TOTAL FREE ENERGY PREDICTED BY IDOCK:   -7.95 KCAL/MOL
REMARK 923 INTER-LIGAND FREE ENERGY PREDICTED BY IDOCK:   -6.04 KCAL/MOL
REMARK 924 INTRA-LIGAND FREE ENERGY PREDICTED BY IDOCK:   -1.91 KCAL/MOL
REMARK 927      BINDING AFFINITY PREDICTED BY RF-SCORE:    0.00 PKD
ROOT
HETATM    1  C   UNL     1      -6.351   7.215  68.787  1.00  0.00    -0.031 C  
HETATM    2  C   UNL     1      -7.740   7.617  69.271  1.00  0.00    -0.104 C  
ENDROOT
BRANCH   2   3
HETATM    3  C   UNL     1      -8.345   8.758  68.427  1.00  0.00    -0.126 C  
BRANCH   3   4
HETATM    4  O   UNL     1      -8.391   9.945  69.279  1.00  0.00    -0.126 OA 
BRANCH   4   5
HETATM    5  C   UNL     1      -7.303  10.757  69.328  1.00  0.00    -0.129 C  
HETATM    6  C   UNL     1      -6.833  11.061  67.929  1.00  0.00    -0.068 C  
HETATM    7  O   UNL     1      -6.727  11.118  70.344  1.00  0.00    -0.233 OA 
ENDBRANCH   4   5
ENDBRANCH   3   4
BRANCH   3   8
HETATM    8  C   UNL     1      -9.815   8.445  67.846  1.00  0.00    -0.208 C  
BRANCH   8   9
HETATM    9  C   UNL     1      -9.709   7.172  66.936  1.00  0.00    -0.242 A  
HETATM   10  C   UNL     1      -8.655   6.922  66.040  1.00  0.00    -0.150 A  
HETATM   11  C   UNL     1      -8.563   5.713  65.332  1.00  0.00    -0.150 A  
HETATM   12  C   UNL     1      -9.561   4.752  65.435  1.00  0.00    -0.152 A  
HETATM   13  C   UNL     1     -10.646   4.992  66.262  1.00  0.00    -0.332 A  
HETATM   14  C   UNL     1     -10.697   6.166  67.018  1.00  0.00    -0.423 A  
ENDBRANCH   8   9
BRANCH   8  15
HETATM   15  C   UNL     1     -10.268   9.755  67.027  1.00  0.00    -0.292 A  
HETATM   16  C   UNL     1      -9.898  10.009  65.691  1.00  0.00    -0.363 A  
HETATM   17  C   UNL     1     -10.388  11.123  64.985  1.00  0.00    -0.362 A  
HETATM   18  C   UNL     1     -11.270  12.019  65.588  1.00  0.00    -0.377 A  
HETATM   19  C   UNL     1     -11.138  10.712  67.605  1.00  0.00    -0.385 A  
HETATM   20  C   UNL     1     -11.637  11.815  66.906  1.00  0.00    -0.310 A  
ENDBRANCH   8  15
BRANCH   8  21
HETATM   21  C   UNL     1     -10.893   8.180  69.015  1.00  0.00    -0.014 C  
BRANCH  21  22
HETATM   22  C   UNL     1     -10.666   7.523  70.426  1.00  0.00    -0.239 C  
HETATM   23  C   UNL     1     -11.355   6.151  70.531  1.00  0.00    -0.381 C  
BRANCH  22  24
HETATM   24  N   UNL     1     -10.904   8.377  71.613  1.00  0.00    -0.249 NA 
HETATM   25  C   UNL     1      -9.831   8.320  72.615  1.00  0.00    -0.287 C  
HETATM   26  C   UNL     1     -11.115   9.799  71.280  1.00  0.00    -0.304 C  
ENDBRANCH  22  24
ENDBRANCH  21  22
ENDBRANCH   8  21
ENDBRANCH   3   8
ENDBRANCH   2   3
TORSDOF 9
ENDMDL
MODEL      133
REMARK 921   NORMALIZED FREE ENERGY PREDICTED BY IDOCK:   -4.08 KCAL/MOL
REMARK 922        TOTAL FREE ENERGY PREDICTED BY IDOCK:   -7.92 KCAL/MOL
REMARK 923 INTER-LIGAND FREE ENERGY PREDICTED BY IDOCK:   -6.62 KCAL/MOL
REMARK 924 INTRA-LIGAND FREE ENERGY PREDICTED BY IDOCK:   -1.30 KCAL/MOL
REMARK 927      BINDING AFFINITY PREDICTED BY RF-SCORE:    0.00 PKD
ROOT
HETATM    1  C   UNL     1      -8.108  10.571  65.598  1.00  0.00    -0.161 C  
HETATM    2  C   UNL     1      -9.153  11.067  66.591  1.00  0.00    -0.177 C  
ENDROOT
BRANCH   2   3
HETATM    3  C   UNL     1      -8.906  12.528  67.018  1.00  0.00    -0.212 C  
BRANCH   3   4
HETATM    4  O   UNL     1      -8.484  12.502  68.418  1.00  0.00    -0.168 OA 
BRANCH   4   5
HETATM    5  C   UNL     1      -7.217  12.108  68.711  1.00  0.00    -0.103 C  
HETATM    6  C   UNL     1      -6.232  12.972  67.967  1.00  0.00    -0.112 C  
HETATM    7  O   UNL     1      -6.909  11.143  69.396  1.00  0.00    -0.102 OA 
ENDBRANCH   4   5
ENDBRANCH   3   4
BRANCH   3   8
HETATM    8  C   UNL     1     -10.186  13.493  66.853  1.00  0.00    -0.256 C  
BRANCH   8   9
HETATM    9  C   UNL     1     -10.949  13.056  65.554  1.00  0.00    -0.296 A  
HETATM   10  C   UNL     1     -10.336  12.841  64.308  1.00  0.00    -0.402 A  
HETATM   11  C   UNL     1     -11.056  12.347  63.208  1.00  0.00    -0.347 A  
HETATM   12  C   UNL     1     -12.426  12.131  63.297  1.00  0.00    -0.528 A  
HETATM   13  C   UNL     1     -13.075  12.391  64.493  1.00  0.00     0.014 A  
HETATM   14  C   UNL     1     -12.340  12.816  65.604  1.00  0.00    -0.444 A  
ENDBRANCH   8   9
BRANCH   8  15
HETATM   15  C   UNL     1      -9.615  14.995  66.760  1.00  0.00    -0.260 A  
HETATM   16  C   UNL     1      -8.249  15.304  66.599  1.00  0.00    -0.140 A  
HETATM   17  C   UNL     1      -7.802  16.627  66.434  1.00  0.00    -0.347 A  
HETATM   18  C   UNL     1      -8.707  17.689  66.418  1.00  0.00    -0.263 A  
HETATM   19  C   UNL     1     -10.489  16.109  66.770  1.00  0.00    -0.294 A  
HETATM   20  C   UNL     1     -10.053  17.426  66.596  1.00  0.00    -0.317 A  
ENDBRANCH   8  15
BRANCH   8  21
HETATM   21  C   UNL     1     -11.186  13.408  68.115  1.00  0.00    -0.304 C  
BRANCH  21  22
HETATM   22  C   UNL     1     -11.251  12.310  69.240  1.00  0.00    -0.213 C  
HETATM   23  C   UNL     1     -11.829  10.986  68.708  1.00  0.00    -0.352 C  
BRANCH  22  24
HETATM   24  N   UNL     1     -11.838  12.712  70.540  1.00  0.00    -0.180 NA 
HETATM   25  C   UNL     1     -12.572  13.984  70.497  1.00  0.00    -0.329 C  
HETATM   26  C   UNL     1     -12.750  11.701  71.109  1.00  0.00    -0.325 C  
ENDBRANCH  22  24
ENDBRANCH  21  22
ENDBRANCH   8  21
ENDBRANCH   3   8
ENDBRANCH   2   3
TORSDOF 9
ENDMDL
MODEL      134
REMARK 921   NORMALIZED FREE ENERGY PREDICTED BY IDOCK:   -4.08 KCAL/MOL
REMARK 922        TOTAL FREE ENERGY PREDICTED BY IDOCK:   -7.92 KCAL/MOL
REMARK 923 INTER-LIGAND FREE ENERGY PREDICTED BY IDOCK:   -7.22 KCAL/MOL
REMARK 924 INTRA-LIGAND FREE ENERGY PREDICTED BY IDOCK:   -0.70 KCAL/MOL
REMARK 927      BINDING AFFINITY PREDICTED BY RF-SCORE:    0.00 PKD
ROOT
HETATM    1  C   UNL     1     -11.722  14.130  65.461  1.00  0.00    -0.344 C  
HETATM    2  C   UNL     1     -11.825  14.886  66.781  1.00  0.00    -0.187 C  
ENDROOT
BRANCH   2   3
HETATM    3  C   UNL     1     -11.069  14.175  67.922  1.00  0.00    -0.268 C  
BRANCH   3   4
HETATM    4  O   UNL     1     -12.025  13.290  68.584  1.00  0.00    -0.339 OA 
BRANCH   4   5
HETATM    5  C   UNL     1     -11.811  11.948  68.540  1.00  0.00    -0.297 C  
HETATM    6  C   UNL     1     -11.657  11.413  69.940  1.00  0.00    -0.402 C  
HETATM    7  O   UNL     1     -11.670  11.281  67.526  1.00  0.00    -0.574 OA 
ENDBRANCH   4   5
ENDBRANCH   3   4
BRANCH   3   8
HETATM    8  C   UNL     1     -10.411  15.173  69.003  1.00  0.00    -0.248 C  
BRANCH   8   9
HETATM    9  C   UNL     1     -11.411  15.302  70.205  1.00  0.00    -0.318 A  
HETATM   10  C   UNL     1     -12.811  15.279  70.080  1.00  0.00    -0.123 A  
HETATM   11  C   UNL     1     -13.651  15.290  71.205  1.00  0.00    -0.584 A  
HETATM   12  C   UNL     1     -13.121  15.407  72.484  1.00  0.00    -0.518 A  
HETATM   13  C   UNL     1     -11.748  15.494  72.641  1.00  0.00    -0.564 A  
HETATM   14  C   UNL     1     -10.914  15.411  71.523  1.00  0.00    -0.156 A  
ENDBRANCH   8   9
BRANCH   8  15
HETATM   15  C   UNL     1     -10.174  16.573  68.244  1.00  0.00    -0.268 A  
HETATM   16  C   UNL     1     -10.576  17.821  68.761  1.00  0.00    -0.135 A  
HETATM   17  C   UNL     1     -10.270  19.028  68.105  1.00  0.00    -0.472 A  
HETATM   18  C   UNL     1      -9.548  19.030  66.913  1.00  0.00    -0.364 A  
HETATM   19  C   UNL     1      -9.473  16.626  67.014  1.00  0.00    -0.239 A  
HETATM   20  C   UNL     1      -9.158  17.821  66.362  1.00  0.00    -0.254 A  
ENDBRANCH   8  15
BRANCH   8  21
HETATM   21  C   UNL     1      -8.989  14.642  69.544  1.00  0.00     0.217 C  
BRANCH  21  22
HETATM   22  C   UNL     1      -7.549  15.162  69.184  1.00  0.00    -0.188 C  
HETATM   23  C   UNL     1      -6.948  14.391  67.994  1.00  0.00    -0.149 C  
BRANCH  22  24
HETATM   24  N   UNL     1      -6.592  15.326  70.303  1.00  0.00    -0.062 NA 
HETATM   25  C   UNL     1      -5.829  14.111  70.619  1.00  0.00    -0.191 C  
HETATM   26  C   UNL     1      -5.616  16.411  70.086  1.00  0.00    -0.189 C  
ENDBRANCH  22  24
ENDBRANCH  21  22
ENDBRANCH   8  21
ENDBRANCH   3   8
ENDBRANCH   2   3
TORSDOF 9
ENDMDL
MODEL      135
REMARK 921   NORMALIZED FREE ENERGY PREDICTED BY IDOCK:   -4.08 KCAL/MOL
REMARK 922        TOTAL FREE ENERGY PREDICTED BY IDOCK:   -7.91 KCAL/MOL
REMARK 923 INTER-LIGAND FREE ENERGY PREDICTED BY IDOCK:   -6.82 KCAL/MOL
REMARK 924 INTRA-LIGAND FREE ENERGY PREDICTED BY IDOCK:   -1.09 KCAL/MOL
REMARK 927      BINDING AFFINITY PREDICTED BY RF-SCORE:    0.00 PKD
ROOT
HETATM    1  C   UNL     1     -10.081  11.642  64.430  1.00  0.00    -0.322 C  
HETATM    2  C   UNL     1     -11.074  11.737  65.583  1.00  0.00    -0.340 C  
ENDROOT
BRANCH   2   3
HETATM    3  C   UNL     1     -10.969  13.080  66.335  1.00  0.00    -0.281 C  
BRANCH   3   4
HETATM    4  O   UNL     1     -10.302  14.023  65.439  1.00  0.00    -0.321 OA 
BRANCH   4   5
HETATM    5  C   UNL     1     -10.991  15.111  65.005  1.00  0.00    -0.430 C  
HETATM    6  C   UNL     1     -12.265  14.669  64.332  1.00  0.00    -0.473 C  
HETATM    7  O   UNL     1     -10.606  16.270  65.063  1.00  0.00    -0.620 OA 
ENDBRANCH   4   5
ENDBRANCH   3   4
BRANCH   3   8
HETATM    8  C   UNL     1     -10.168  12.996  67.731  1.00  0.00    -0.228 C  
BRANCH   8   9
HETATM    9  C   UNL     1     -10.038  11.480  68.117  1.00  0.00    -0.201 A  
HETATM   10  C   UNL     1      -8.832  10.758  68.100  1.00  0.00    -0.133 A  
HETATM   11  C   UNL     1      -8.762   9.433  68.560  1.00  0.00    -0.128 A  
HETATM   12  C   UNL     1      -9.907   8.764  68.973  1.00  0.00    -0.183 A  
HETATM   13  C   UNL     1     -11.123   9.426  68.946  1.00  0.00    -0.003 A  
HETATM   14  C   UNL     1     -11.175  10.767  68.554  1.00  0.00    -0.340 A  
ENDBRANCH   8   9
BRANCH   8  15
HETATM   15  C   UNL     1     -11.030  13.835  68.801  1.00  0.00    -0.289 A  
HETATM   16  C   UNL     1     -11.270  15.220  68.698  1.00  0.00    -0.303 A  
HETATM   17  C   UNL     1     -12.103  15.897  69.608  1.00  0.00    -0.216 A  
HETATM   18  C   UNL     1     -12.729  15.212  70.648  1.00  0.00    -0.451 A  
HETATM   19  C   UNL     1     -11.662  13.191  69.893  1.00  0.00    -0.327 A  
HETATM   20  C   UNL     1     -12.498  13.856  70.794  1.00  0.00    -0.445 A  
ENDBRANCH   8  15
BRANCH   8  21
HETATM   21  C   UNL     1      -8.699  13.652  67.637  1.00  0.00    -0.182 C  
BRANCH  21  22
HETATM   22  C   UNL     1      -7.774  14.154  68.806  1.00  0.00    -0.121 C  
HETATM   23  C   UNL     1      -7.786  15.689  68.921  1.00  0.00    -0.186 C  
BRANCH  22  24
HETATM   24  N   UNL     1      -6.409  13.584  68.877  1.00  0.00    -0.091 NA 
HETATM   25  C   UNL     1      -6.225  12.606  69.958  1.00  0.00    -0.060 C  
HETATM   26  C   UNL     1      -5.977  12.936  67.624  1.00  0.00    -0.148 C  
ENDBRANCH  22  24
ENDBRANCH  21  22
ENDBRANCH   8  21
ENDBRANCH   3   8
ENDBRANCH   2   3
TORSDOF 9
ENDMDL
MODEL      136
REMARK 921   NORMALIZED FREE ENERGY PREDICTED BY IDOCK:   -4.07 KCAL/MOL
REMARK 922        TOTAL FREE ENERGY PREDICTED BY IDOCK:   -7.90 KCAL/MOL
REMARK 923 INTER-LIGAND FREE ENERGY PREDICTED BY IDOCK:   -6.84 KCAL/MOL
REMARK 924 INTRA-LIGAND FREE ENERGY PREDICTED BY IDOCK:   -1.06 KCAL/MOL
REMARK 927      BINDING AFFINITY PREDICTED BY RF-SCORE:    0.00 PKD
ROOT
HETATM    1  C   UNL     1     -11.020   7.053  67.063  1.00  0.00    -0.357 C  
HETATM    2  C   UNL     1     -10.220   8.001  67.950  1.00  0.00    -0.267 C  
ENDROOT
BRANCH   2   3
HETATM    3  C   UNL     1     -10.200   9.441  67.397  1.00  0.00    -0.239 C  
BRANCH   3   4
HETATM    4  O   UNL     1      -9.048   9.541  66.502  1.00  0.00    -0.143 OA 
BRANCH   4   5
HETATM    5  C   UNL     1      -9.245   9.393  65.166  1.00  0.00    -0.225 C  
HETATM    6  C   UNL     1      -8.260   8.393  64.617  1.00  0.00    -0.157 C  
HETATM    7  O   UNL     1     -10.031  10.034  64.484  1.00  0.00    -0.287 OA 
ENDBRANCH   4   5
ENDBRANCH   3   4
BRANCH   3   8
HETATM    8  C   UNL     1     -10.111  10.584  68.530  1.00  0.00    -0.187 C  
BRANCH   8   9
HETATM    9  C   UNL     1     -10.879  10.064  69.795  1.00  0.00    -0.308 A  
HETATM   10  C   UNL     1     -10.292   9.306  70.824  1.00  0.00    -0.348 A  
HETATM   11  C   UNL     1     -11.006   8.963  71.983  1.00  0.00    -0.412 A  
HETATM   12  C   UNL     1     -12.349   9.294  72.114  1.00  0.00    -0.398 A  
HETATM   13  C   UNL     1     -12.976   9.988  71.092  1.00  0.00    -0.478 A  
HETATM   14  C   UNL     1     -12.242  10.389  69.972  1.00  0.00    -0.262 A  
ENDBRANCH   8   9
BRANCH   8  15
HETATM   15  C   UNL     1     -10.783  11.903  67.897  1.00  0.00    -0.239 A  
HETATM   16  C   UNL     1     -11.422  11.930  66.640  1.00  0.00    -0.382 A  
HETATM   17  C   UNL     1     -12.073  13.082  66.164  1.00  0.00    -0.473 A  
HETATM   18  C   UNL     1     -12.114  14.247  66.931  1.00  0.00    -0.440 A  
HETATM   19  C   UNL     1     -10.824  13.120  68.622  1.00  0.00    -0.287 A  
HETATM   20  C   UNL     1     -11.478  14.265  68.159  1.00  0.00    -0.336 A  
ENDBRANCH   8  15
BRANCH   8  21
HETATM   21  C   UNL     1      -8.590  10.933  68.932  1.00  0.00    -0.143 C  
BRANCH  21  22
HETATM   22  C   UNL     1      -7.692  12.123  68.429  1.00  0.00    -0.134 C  
HETATM   23  C   UNL     1      -7.523  12.099  66.899  1.00  0.00    -0.019 C  
BRANCH  22  24
HETATM   24  N   UNL     1      -6.416  12.353  69.144  1.00  0.00    -0.094 NA 
HETATM   25  C   UNL     1      -6.261  13.717  69.667  1.00  0.00    -0.121 C  
HETATM   26  C   UNL     1      -6.199  11.426  70.271  1.00  0.00    -0.106 C  
ENDBRANCH  22  24
ENDBRANCH  21  22
ENDBRANCH   8  21
ENDBRANCH   3   8
ENDBRANCH   2   3
TORSDOF 9
ENDMDL
MODEL      137
REMARK 921   NORMALIZED FREE ENERGY PREDICTED BY IDOCK:   -4.07 KCAL/MOL
REMARK 922        TOTAL FREE ENERGY PREDICTED BY IDOCK:   -7.90 KCAL/MOL
REMARK 923 INTER-LIGAND FREE ENERGY PREDICTED BY IDOCK:   -6.23 KCAL/MOL
REMARK 924 INTRA-LIGAND FREE ENERGY PREDICTED BY IDOCK:   -1.67 KCAL/MOL
REMARK 927      BINDING AFFINITY PREDICTED BY RF-SCORE:    0.00 PKD
ROOT
HETATM    1  C   UNL     1     -12.453  13.099  69.739  1.00  0.00    -0.039 C  
HETATM    2  C   UNL     1     -10.951  12.918  69.549  1.00  0.00     0.048 C  
ENDROOT
BRANCH   2   3
HETATM    3  C   UNL     1     -10.618  12.094  68.288  1.00  0.00    -0.217 C  
BRANCH   3   4
HETATM    4  O   UNL     1      -9.817  10.950  68.721  1.00  0.00    -0.184 OA 
BRANCH   4   5
HETATM    5  C   UNL     1     -10.451   9.787  69.026  1.00  0.00    -0.213 C  
HETATM    6  C   UNL     1     -10.701   9.001  67.765  1.00  0.00    -0.217 C  
HETATM    7  O   UNL     1     -10.846   9.458  70.135  1.00  0.00    -0.225 OA 
ENDBRANCH   4   5
ENDBRANCH   3   4
BRANCH   3   8
HETATM    8  C   UNL     1      -9.824  12.915  67.151  1.00  0.00    -0.225 C  
BRANCH   8   9
HETATM    9  C   UNL     1     -10.623  12.767  65.809  1.00  0.00    -0.295 A  
HETATM   10  C   UNL     1     -10.031  12.558  64.552  1.00  0.00    -0.195 A  
HETATM   11  C   UNL     1     -10.805  12.326  63.403  1.00  0.00    -0.457 A  
HETATM   12  C   UNL     1     -12.192  12.378  63.461  1.00  0.00    -0.661 A  
HETATM   13  C   UNL     1     -12.809  12.643  64.672  1.00  0.00    -0.361 A  
HETATM   14  C   UNL     1     -12.035  12.803  65.825  1.00  0.00    -0.502 A  
ENDBRANCH   8   9
BRANCH   8  15
HETATM   15  C   UNL     1      -8.352  12.268  67.068  1.00  0.00    -0.168 A  
HETATM   16  C   UNL     1      -8.068  11.050  66.419  1.00  0.00    -0.166 A  
HETATM   17  C   UNL     1      -6.753  10.565  66.294  1.00  0.00    -0.123 A  
HETATM   18  C   UNL     1      -5.675  11.285  66.809  1.00  0.00    -0.120 A  
HETATM   19  C   UNL     1      -7.228  12.944  67.603  1.00  0.00    -0.147 A  
HETATM   20  C   UNL     1      -5.918  12.474  67.475  1.00  0.00    -0.152 A  
ENDBRANCH   8  15
BRANCH   8  21
HETATM   21  C   UNL     1      -9.672  14.478  67.515  1.00  0.00    -0.211 C  
BRANCH  21  22
HETATM   22  C   UNL     1     -10.218  15.724  66.726  1.00  0.00    -0.282 C  
HETATM   23  C   UNL     1      -9.165  16.287  65.754  1.00  0.00    -0.151 C  
BRANCH  22  24
HETATM   24  N   UNL     1     -10.891  16.780  67.517  1.00  0.00    -0.270 NA 
HETATM   25  C   UNL     1     -11.011  16.470  68.948  1.00  0.00    -0.325 C  
HETATM   26  C   UNL     1     -10.238  18.099  67.410  1.00  0.00    -0.372 C  
ENDBRANCH  22  24
ENDBRANCH  21  22
ENDBRANCH   8  21
ENDBRANCH   3   8
ENDBRANCH   2   3
TORSDOF 9
ENDMDL
MODEL      138
REMARK 921   NORMALIZED FREE ENERGY PREDICTED BY IDOCK:   -4.07 KCAL/MOL
REMARK 922        TOTAL FREE ENERGY PREDICTED BY IDOCK:   -7.89 KCAL/MOL
REMARK 923 INTER-LIGAND FREE ENERGY PREDICTED BY IDOCK:   -7.32 KCAL/MOL
REMARK 924 INTRA-LIGAND FREE ENERGY PREDICTED BY IDOCK:   -0.58 KCAL/MOL
REMARK 927      BINDING AFFINITY PREDICTED BY RF-SCORE:    0.00 PKD
ROOT
HETATM    1  C   UNL     1      -6.188  12.461  67.243  1.00  0.00    -0.144 C  
HETATM    2  C   UNL     1      -7.670  12.522  67.595  1.00  0.00    -0.151 C  
ENDROOT
BRANCH   2   3
HETATM    3  C   UNL     1      -8.169  13.971  67.772  1.00  0.00    -0.168 C  
BRANCH   3   4
HETATM    4  O   UNL     1      -8.013  14.310  69.185  1.00  0.00    -0.075 OA 
BRANCH   4   5
HETATM    5  C   UNL     1      -7.078  15.232  69.536  1.00  0.00    -0.201 C  
HETATM    6  C   UNL     1      -6.035  14.587  70.412  1.00  0.00    -0.165 C  
HETATM    7  O   UNL     1      -7.115  16.424  69.269  1.00  0.00    -0.213 OA 
ENDBRANCH   4   5
ENDBRANCH   3   4
BRANCH   3   8
HETATM    8  C   UNL     1      -9.698  14.205  67.321  1.00  0.00    -0.236 C  
BRANCH   8   9
HETATM    9  C   UNL     1      -9.937  15.753  67.224  1.00  0.00    -0.238 A  
HETATM   10  C   UNL     1      -9.723  16.517  66.064  1.00  0.00    -0.331 A  
HETATM   11  C   UNL     1     -10.059  17.880  66.009  1.00  0.00    -0.258 A  
HETATM   12  C   UNL     1     -10.540  18.538  67.134  1.00  0.00    -0.439 A  
HETATM   13  C   UNL     1     -10.705  17.829  68.312  1.00  0.00    -0.255 A  
HETATM   14  C   UNL     1     -10.437  16.458  68.341  1.00  0.00    -0.298 A  
ENDBRANCH   8   9
BRANCH   8  15
HETATM   15  C   UNL     1     -10.615  13.507  68.446  1.00  0.00    -0.258 A  
HETATM   16  C   UNL     1     -11.387  14.225  69.382  1.00  0.00    -0.325 A  
HETATM   17  C   UNL     1     -12.242  13.576  70.291  1.00  0.00    -0.417 A  
HETATM   18  C   UNL     1     -12.359  12.186  70.292  1.00  0.00    -0.269 A  
HETATM   19  C   UNL     1     -10.744  12.098  68.510  1.00  0.00    -0.257 A  
HETATM   20  C   UNL     1     -11.599  11.447  69.404  1.00  0.00    -0.391 A  
ENDBRANCH   8  15
BRANCH   8  21
HETATM   21  C   UNL     1     -10.031  13.521  65.900  1.00  0.00    -0.295 C  
BRANCH  21  22
HETATM   22  C   UNL     1     -11.415  13.430  65.158  1.00  0.00    -0.296 C  
HETATM   23  C   UNL     1     -12.533  14.131  65.951  1.00  0.00    -0.479 C  
BRANCH  22  24
HETATM   24  N   UNL     1     -11.820  12.099  64.650  1.00  0.00    -0.350 NA 
HETATM   25  C   UNL     1     -12.489  12.136  63.342  1.00  0.00    -0.512 C  
HETATM   26  C   UNL     1     -10.699  11.147  64.539  1.00  0.00    -0.297 C  
ENDBRANCH  22  24
ENDBRANCH  21  22
ENDBRANCH   8  21
ENDBRANCH   3   8
ENDBRANCH   2   3
TORSDOF 9
ENDMDL
MODEL      139
REMARK 921   NORMALIZED FREE ENERGY PREDICTED BY IDOCK:   -4.06 KCAL/MOL
REMARK 922        TOTAL FREE ENERGY PREDICTED BY IDOCK:   -7.89 KCAL/MOL
REMARK 923 INTER-LIGAND FREE ENERGY PREDICTED BY IDOCK:   -6.16 KCAL/MOL
REMARK 924 INTRA-LIGAND FREE ENERGY PREDICTED BY IDOCK:   -1.73 KCAL/MOL
REMARK 927      BINDING AFFINITY PREDICTED BY RF-SCORE:    0.00 PKD
ROOT
HETATM    1  C   UNL     1     -10.917   6.242  68.039  1.00  0.00    -0.418 C  
HETATM    2  C   UNL     1     -10.797   7.306  66.954  1.00  0.00    -0.265 C  
ENDROOT
BRANCH   2   3
HETATM    3  C   UNL     1      -9.544   8.187  67.136  1.00  0.00    -0.174 C  
BRANCH   3   4
HETATM    4  O   UNL     1      -8.789   7.634  68.259  1.00  0.00    -0.127 OA 
BRANCH   4   5
HETATM    5  C   UNL     1      -7.517   7.208  68.044  1.00  0.00    -0.099 C  
HETATM    6  C   UNL     1      -6.600   7.808  69.078  1.00  0.00    -0.048 C  
HETATM    7  O   UNL     1      -7.144   6.518  67.106  1.00  0.00    -0.072 OA 
ENDBRANCH   4   5
ENDBRANCH   3   4
BRANCH   3   8
HETATM    8  C   UNL     1      -9.862   9.744  67.407  1.00  0.00    -0.219 C  
BRANCH   8   9
HETATM    9  C   UNL     1      -8.500  10.523  67.376  1.00  0.00    -0.122 A  
HETATM   10  C   UNL     1      -7.475  10.292  66.442  1.00  0.00    -0.114 A  
HETATM   11  C   UNL     1      -6.325  11.096  66.400  1.00  0.00    -0.116 A  
HETATM   12  C   UNL     1      -6.126  12.100  67.339  1.00  0.00    -0.143 A  
HETATM   13  C   UNL     1      -7.088  12.315  68.312  1.00  0.00    -0.093 A  
HETATM   14  C   UNL     1      -8.263  11.559  68.306  1.00  0.00    -0.152 A  
ENDBRANCH   8   9
BRANCH   8  15
HETATM   15  C   UNL     1     -10.584   9.817  68.844  1.00  0.00    -0.240 A  
HETATM   16  C   UNL     1     -10.093   9.175  69.999  1.00  0.00    -0.230 A  
HETATM   17  C   UNL     1     -10.707   9.337  71.254  1.00  0.00    -0.422 A  
HETATM   18  C   UNL     1     -11.830  10.151  71.400  1.00  0.00    -0.414 A  
HETATM   19  C   UNL     1     -11.745  10.604  69.038  1.00  0.00    -0.305 A  
HETATM   20  C   UNL     1     -12.354  10.778  70.284  1.00  0.00    -0.423 A  
ENDBRANCH   8  15
BRANCH   8  21
HETATM   21  C   UNL     1     -10.861  10.368  66.306  1.00  0.00    -0.022 C  
BRANCH  21  22
HETATM   22  C   UNL     1     -10.677  11.670  65.444  1.00  0.00    -0.287 C  
HETATM   23  C   UNL     1     -11.324  12.894  66.119  1.00  0.00    -0.356 C  
BRANCH  22  24
HETATM   24  N   UNL     1     -10.998  11.575  64.001  1.00  0.00    -0.374 NA 
HETATM   25  C   UNL     1     -11.791  12.701  63.489  1.00  0.00    -0.541 C  
HETATM   26  C   UNL     1      -9.805  11.455  63.142  1.00  0.00    -0.388 C  
ENDBRANCH  22  24
ENDBRANCH  21  22
ENDBRANCH   8  21
ENDBRANCH   3   8
ENDBRANCH   2   3
TORSDOF 9
ENDMDL
MODEL      140
REMARK 921   NORMALIZED FREE ENERGY PREDICTED BY IDOCK:   -4.06 KCAL/MOL
REMARK 922        TOTAL FREE ENERGY PREDICTED BY IDOCK:   -7.89 KCAL/MOL
REMARK 923 INTER-LIGAND FREE ENERGY PREDICTED BY IDOCK:   -6.69 KCAL/MOL
REMARK 924 INTRA-LIGAND FREE ENERGY PREDICTED BY IDOCK:   -1.20 KCAL/MOL
REMARK 927      BINDING AFFINITY PREDICTED BY RF-SCORE:    0.00 PKD
ROOT
HETATM    1  C   UNL     1      -8.394   9.549  69.684  1.00  0.00    -0.155 C  
HETATM    2  C   UNL     1      -9.039   8.169  69.610  1.00  0.00    -0.151 C  
ENDROOT
BRANCH   2   3
HETATM    3  C   UNL     1      -9.436   7.635  71.002  1.00  0.00    -0.159 C  
BRANCH   3   4
HETATM    4  O   UNL     1      -8.284   6.904  71.526  1.00  0.00    -0.109 OA 
BRANCH   4   5
HETATM    5  C   UNL     1      -7.455   7.531  72.402  1.00  0.00    -0.075 C  
HETATM    6  C   UNL     1      -8.269   8.200  73.479  1.00  0.00    -0.276 C  
HETATM    7  O   UNL     1      -6.241   7.626  72.294  1.00  0.00    -0.039 OA 
ENDBRANCH   4   5
ENDBRANCH   3   4
BRANCH   3   8
HETATM    8  C   UNL     1     -10.733   6.679  70.999  1.00  0.00    -0.278 C  
BRANCH   8   9
HETATM    9  C   UNL     1     -11.984   7.568  71.324  1.00  0.00    -0.333 A  
HETATM   10  C   UNL     1     -13.308   7.096  71.350  1.00  0.00    -0.380 A  
HETATM   11  C   UNL     1     -14.373   7.917  71.754  1.00  0.00    -0.589 A  
HETATM   12  C   UNL     1     -14.160   9.255  72.064  1.00  0.00    -0.323 A  
HETATM   13  C   UNL     1     -12.876   9.769  71.990  1.00  0.00    -0.491 A  
HETATM   14  C   UNL     1     -11.810   8.930  71.656  1.00  0.00    -0.415 A  
ENDBRANCH   8   9
BRANCH   8  15
HETATM   15  C   UNL     1     -10.468   5.551  72.118  1.00  0.00    -0.272 A  
HETATM   16  C   UNL     1     -10.595   5.779  73.503  1.00  0.00    -0.295 A  
HETATM   17  C   UNL     1     -10.440   4.743  74.442  1.00  0.00    -0.331 A  
HETATM   18  C   UNL     1     -10.158   3.441  74.028  1.00  0.00    -0.194 A  
HETATM   19  C   UNL     1     -10.149   4.221  71.751  1.00  0.00    -0.227 A  
HETATM   20  C   UNL     1     -10.003   3.185  72.677  1.00  0.00    -0.219 A  
ENDBRANCH   8  15
BRANCH   8  21
HETATM   21  C   UNL     1     -10.952   5.944  69.581  1.00  0.00    -0.447 C  
BRANCH  21  22
HETATM   22  C   UNL     1      -9.957   5.844  68.367  1.00  0.00    -0.150 C  
HETATM   23  C   UNL     1     -10.699   5.893  67.019  1.00  0.00    -0.396 C  
BRANCH  22  24
HETATM   24  N   UNL     1      -8.935   4.773  68.420  1.00  0.00    -0.107 NA 
HETATM   25  C   UNL     1      -9.385   3.489  67.867  1.00  0.00    -0.187 C  
HETATM   26  C   UNL     1      -7.678   5.127  67.733  1.00  0.00    -0.088 C  
ENDBRANCH  22  24
ENDBRANCH  21  22
ENDBRANCH   8  21
ENDBRANCH   3   8
ENDBRANCH   2   3
TORSDOF 9
ENDMDL
MODEL      141
REMARK 921   NORMALIZED FREE ENERGY PREDICTED BY IDOCK:   -4.06 KCAL/MOL
REMARK 922        TOTAL FREE ENERGY PREDICTED BY IDOCK:   -7.88 KCAL/MOL
REMARK 923 INTER-LIGAND FREE ENERGY PREDICTED BY IDOCK:   -6.26 KCAL/MOL
REMARK 924 INTRA-LIGAND FREE ENERGY PREDICTED BY IDOCK:   -1.61 KCAL/MOL
REMARK 927      BINDING AFFINITY PREDICTED BY RF-SCORE:    0.00 PKD
ROOT
HETATM    1  C   UNL     1     -11.815  14.099  67.406  1.00  0.00    -0.447 C  
HETATM    2  C   UNL     1     -11.776  12.576  67.478  1.00  0.00    -0.439 C  
ENDROOT
BRANCH   2   3
HETATM    3  C   UNL     1     -10.686  11.977  66.566  1.00  0.00    -0.258 C  
BRANCH   3   4
HETATM    4  O   UNL     1     -11.371  11.286  65.475  1.00  0.00    -0.086 OA 
BRANCH   4   5
HETATM    5  C   UNL     1     -11.908  12.026  64.469  1.00  0.00    -0.285 C  
HETATM    6  C   UNL     1     -10.808  12.712  63.702  1.00  0.00    -0.437 C  
HETATM    7  O   UNL     1     -13.101  12.192  64.264  1.00  0.00    -0.723 OA 
ENDBRANCH   4   5
ENDBRANCH   3   4
BRANCH   3   8
HETATM    8  C   UNL     1      -9.685  10.957  67.312  1.00  0.00    -0.189 C  
BRANCH   8   9
HETATM    9  C   UNL     1      -8.596  11.812  68.051  1.00  0.00    -0.158 A  
HETATM   10  C   UNL     1      -8.545  13.217  68.037  1.00  0.00    -0.182 A  
HETATM   11  C   UNL     1      -7.609  13.926  68.807  1.00  0.00    -0.108 A  
HETATM   12  C   UNL     1      -6.645  13.255  69.548  1.00  0.00    -0.040 A  
HETATM   13  C   UNL     1      -6.627  11.870  69.536  1.00  0.00    -0.093 A  
HETATM   14  C   UNL     1      -7.604  11.169  68.825  1.00  0.00    -0.129 A  
ENDBRANCH   8   9
BRANCH   8  15
HETATM   15  C   UNL     1      -9.059  10.015  66.166  1.00  0.00    -0.188 A  
HETATM   16  C   UNL     1      -9.180   8.611  66.155  1.00  0.00    -0.271 A  
HETATM   17  C   UNL     1      -8.694   7.833  65.089  1.00  0.00     0.051 A  
HETATM   18  C   UNL     1      -8.074   8.433  63.993  1.00  0.00    -0.142 A  
HETATM   19  C   UNL     1      -8.392  10.573  65.047  1.00  0.00    -0.140 A  
HETATM   20  C   UNL     1      -7.915   9.807  63.980  1.00  0.00    -0.147 A  
ENDBRANCH   8  15
BRANCH   8  21
HETATM   21  C   UNL     1     -10.445  10.020  68.380  1.00  0.00    -0.235 C  
BRANCH  21  22
HETATM   22  C   UNL     1     -10.681  10.276  69.914  1.00  0.00    -0.294 C  
HETATM   23  C   UNL     1      -9.827   9.336  70.784  1.00  0.00    -0.350 C  
BRANCH  22  24
HETATM   24  N   UNL     1     -12.087  10.364  70.374  1.00  0.00    -0.301 NA 
HETATM   25  C   UNL     1     -12.463   9.330  71.347  1.00  0.00    -0.341 C  
HETATM   26  C   UNL     1     -12.428  11.669  70.970  1.00  0.00    -0.334 C  
ENDBRANCH  22  24
ENDBRANCH  21  22
ENDBRANCH   8  21
ENDBRANCH   3   8
ENDBRANCH   2   3
TORSDOF 9
ENDMDL
MODEL      142
REMARK 921   NORMALIZED FREE ENERGY PREDICTED BY IDOCK:   -4.05 KCAL/MOL
REMARK 922        TOTAL FREE ENERGY PREDICTED BY IDOCK:   -7.87 KCAL/MOL
REMARK 923 INTER-LIGAND FREE ENERGY PREDICTED BY IDOCK:   -6.71 KCAL/MOL
REMARK 924 INTRA-LIGAND FREE ENERGY PREDICTED BY IDOCK:   -1.16 KCAL/MOL
REMARK 927      BINDING AFFINITY PREDICTED BY RF-SCORE:    0.00 PKD
ROOT
HETATM    1  C   UNL     1     -14.407   7.644  71.653  1.00  0.00    -0.613 C  
HETATM    2  C   UNL     1     -13.060   6.943  71.511  1.00  0.00    -0.341 C  
ENDROOT
BRANCH   2   3
HETATM    3  C   UNL     1     -11.882   7.938  71.515  1.00  0.00    -0.289 C  
BRANCH   3   4
HETATM    4  O   UNL     1     -12.187   8.970  70.525  1.00  0.00    -0.068 OA 
BRANCH   4   5
HETATM    5  C   UNL     1     -12.202  10.270  70.920  1.00  0.00    -0.365 C  
HETATM    6  C   UNL     1     -11.338  11.090  69.997  1.00  0.00    -0.358 C  
HETATM    7  O   UNL     1     -12.751  10.706  71.921  1.00  0.00    -0.412 OA 
ENDBRANCH   4   5
ENDBRANCH   3   4
BRANCH   3   8
HETATM    8  C   UNL     1     -10.452   7.272  71.185  1.00  0.00    -0.221 C  
BRANCH   8   9
HETATM    9  C   UNL     1     -10.301   7.211  69.624  1.00  0.00    -0.224 A  
HETATM   10  C   UNL     1      -9.425   8.020  68.879  1.00  0.00    -0.151 A  
HETATM   11  C   UNL     1      -9.258   7.843  67.496  1.00  0.00    -0.152 A  
HETATM   12  C   UNL     1     -10.019   6.910  66.803  1.00  0.00    -0.248 A  
HETATM   13  C   UNL     1     -10.936   6.138  67.496  1.00  0.00    -0.404 A  
HETATM   14  C   UNL     1     -11.047   6.269  68.883  1.00  0.00    -0.434 A  
ENDBRANCH   8   9
BRANCH   8  15
HETATM   15  C   UNL     1     -10.463   5.812  71.863  1.00  0.00    -0.272 A  
HETATM   16  C   UNL     1      -9.953   4.656  71.238  1.00  0.00    -0.268 A  
HETATM   17  C   UNL     1      -9.903   3.416  71.901  1.00  0.00    -0.238 A  
HETATM   18  C   UNL     1     -10.357   3.290  73.214  1.00  0.00    -0.239 A  
HETATM   19  C   UNL     1     -10.942   5.625  73.183  1.00  0.00    -0.326 A  
HETATM   20  C   UNL     1     -10.887   4.398  73.851  1.00  0.00    -0.339 A  
ENDBRANCH   8  15
BRANCH   8  21
HETATM   21  C   UNL     1      -9.225   8.111  71.809  1.00  0.00    -0.232 C  
BRANCH  21  22
HETATM   22  C   UNL     1      -8.015   7.586  72.666  1.00  0.00    -0.100 C  
HETATM   23  C   UNL     1      -8.307   7.678  74.176  1.00  0.00    -0.272 C  
BRANCH  22  24
HETATM   24  N   UNL     1      -6.668   8.089  72.311  1.00  0.00    -0.065 NA 
HETATM   25  C   UNL     1      -5.773   7.061  71.761  1.00  0.00    -0.037 C  
HETATM   26  C   UNL     1      -6.694   9.205  71.347  1.00  0.00    -0.045 C  
ENDBRANCH  22  24
ENDBRANCH  21  22
ENDBRANCH   8  21
ENDBRANCH   3   8
ENDBRANCH   2   3
TORSDOF 9
ENDMDL
MODEL      143
REMARK 921   NORMALIZED FREE ENERGY PREDICTED BY IDOCK:   -4.04 KCAL/MOL
REMARK 922        TOTAL FREE ENERGY PREDICTED BY IDOCK:   -7.86 KCAL/MOL
REMARK 923 INTER-LIGAND FREE ENERGY PREDICTED BY IDOCK:   -6.40 KCAL/MOL
REMARK 924 INTRA-LIGAND FREE ENERGY PREDICTED BY IDOCK:   -1.46 KCAL/MOL
REMARK 927      BINDING AFFINITY PREDICTED BY RF-SCORE:    0.00 PKD
ROOT
HETATM    1  C   UNL     1     -10.434   9.367  68.384  1.00  0.00    -0.256 C  
HETATM    2  C   UNL     1      -9.474  10.364  69.024  1.00  0.00    -0.205 C  
ENDROOT
BRANCH   2   3
HETATM    3  C   UNL     1      -9.870  11.826  68.732  1.00  0.00    -0.087 C  
BRANCH   3   4
HETATM    4  O   UNL     1     -11.330  11.877  68.698  1.00  0.00    -0.228 OA 
BRANCH   4   5
HETATM    5  C   UNL     1     -12.001  12.177  69.841  1.00  0.00    -0.309 C  
HETATM    6  C   UNL     1     -12.121  13.673  69.980  1.00  0.00    -0.417 C  
HETATM    7  O   UNL     1     -12.372  11.373  70.683  1.00  0.00    -0.353 OA 
ENDBRANCH   4   5
ENDBRANCH   3   4
BRANCH   3   8
HETATM    8  C   UNL     1      -9.272  12.412  67.355  1.00  0.00    -0.184 C  
BRANCH   8   9
HETATM    9  C   UNL     1      -7.849  11.784  67.146  1.00  0.00    -0.166 A  
HETATM   10  C   UNL     1      -6.715  12.118  67.907  1.00  0.00    -0.085 A  
HETATM   11  C   UNL     1      -5.495  11.443  67.743  1.00  0.00    -0.046 A  
HETATM   12  C   UNL     1      -5.347  10.472  66.760  1.00  0.00    -0.045 A  
HETATM   13  C   UNL     1      -6.427  10.161  65.951  1.00  0.00    -0.104 A  
HETATM   14  C   UNL     1      -7.659  10.786  66.166  1.00  0.00    -0.139 A  
ENDBRANCH   8   9
BRANCH   8  15
HETATM   15  C   UNL     1      -9.223  14.012  67.525  1.00  0.00    -0.197 A  
HETATM   16  C   UNL     1      -9.238  14.667  68.773  1.00  0.00    -0.184 A  
HETATM   17  C   UNL     1      -9.105  16.063  68.879  1.00  0.00    -0.235 A  
HETATM   18  C   UNL     1      -8.946  16.854  67.741  1.00  0.00    -0.225 A  
HETATM   19  C   UNL     1      -9.093  14.861  66.398  1.00  0.00    -0.293 A  
HETATM   20  C   UNL     1      -8.951  16.248  66.497  1.00  0.00    -0.313 A  
ENDBRANCH   8  15
BRANCH   8  21
HETATM   21  C   UNL     1     -10.202  12.065  66.084  1.00  0.00    -0.255 C  
BRANCH  21  22
HETATM   22  C   UNL     1     -11.014  13.051  65.168  1.00  0.00    -0.295 C  
HETATM   23  C   UNL     1     -12.398  13.370  65.763  1.00  0.00    -0.513 C  
BRANCH  22  24
HETATM   24  N   UNL     1     -11.070  12.735  63.722  1.00  0.00    -0.432 NA 
HETATM   25  C   UNL     1     -10.078  11.742  63.288  1.00  0.00    -0.420 C  
HETATM   26  C   UNL     1     -12.392  12.254  63.277  1.00  0.00    -0.409 C  
ENDBRANCH  22  24
ENDBRANCH  21  22
ENDBRANCH   8  21
ENDBRANCH   3   8
ENDBRANCH   2   3
TORSDOF 9
ENDMDL
MODEL      144
REMARK 921   NORMALIZED FREE ENERGY PREDICTED BY IDOCK:   -4.04 KCAL/MOL
REMARK 922        TOTAL FREE ENERGY PREDICTED BY IDOCK:   -7.86 KCAL/MOL
REMARK 923 INTER-LIGAND FREE ENERGY PREDICTED BY IDOCK:   -6.71 KCAL/MOL
REMARK 924 INTRA-LIGAND FREE ENERGY PREDICTED BY IDOCK:   -1.15 KCAL/MOL
REMARK 927      BINDING AFFINITY PREDICTED BY RF-SCORE:    0.00 PKD
ROOT
HETATM    1  C   UNL     1      -6.526  14.840  70.204  1.00  0.00    -0.163 C  
HETATM    2  C   UNL     1      -6.908  15.334  68.813  1.00  0.00    -0.109 C  
ENDROOT
BRANCH   2   3
HETATM    3  C   UNL     1      -7.979  14.443  68.151  1.00  0.00    -0.136 C  
BRANCH   3   4
HETATM    4  O   UNL     1      -7.334  13.750  67.038  1.00  0.00     0.049 OA 
BRANCH   4   5
HETATM    5  C   UNL     1      -6.603  12.635  67.299  1.00  0.00    -0.104 C  
HETATM    6  C   UNL     1      -7.369  11.734  68.233  1.00  0.00    -0.095 C  
HETATM    7  O   UNL     1      -5.461  12.423  66.917  1.00  0.00    -0.332 OA 
ENDBRANCH   4   5
ENDBRANCH   3   4
BRANCH   3   8
HETATM    8  C   UNL     1      -9.271  15.246  67.617  1.00  0.00    -0.187 C  
BRANCH   8   9
HETATM    9  C   UNL     1      -8.891  16.767  67.542  1.00  0.00    -0.205 A  
HETATM   10  C   UNL     1      -8.434  17.414  66.381  1.00  0.00    -0.292 A  
HETATM   11  C   UNL     1      -8.214  18.800  66.350  1.00  0.00    -0.299 A  
HETATM   12  C   UNL     1      -8.364  19.568  67.498  1.00  0.00    -0.333 A  
HETATM   13  C   UNL     1      -8.755  18.953  68.675  1.00  0.00    -0.374 A  
HETATM   14  C   UNL     1      -9.041  17.585  68.683  1.00  0.00    -0.263 A  
ENDBRANCH   8   9
BRANCH   8  15
HETATM   15  C   UNL     1     -10.454  14.956  68.670  1.00  0.00    -0.242 A  
HETATM   16  C   UNL     1     -11.295  15.956  69.198  1.00  0.00    -0.366 A  
HETATM   17  C   UNL     1     -12.372  15.647  70.047  1.00  0.00    -0.304 A  
HETATM   18  C   UNL     1     -12.650  14.325  70.395  1.00  0.00    -0.405 A  
HETATM   19  C   UNL     1     -10.756  13.634  69.080  1.00  0.00    -0.194 A  
HETATM   20  C   UNL     1     -11.831  13.318  69.916  1.00  0.00    -0.380 A  
ENDBRANCH   8  15
BRANCH   8  21
HETATM   21  C   UNL     1      -9.751  14.741  66.163  1.00  0.00    -0.338 C  
BRANCH  21  22
HETATM   22  C   UNL     1     -10.712  13.548  65.809  1.00  0.00    -0.275 C  
HETATM   23  C   UNL     1      -9.929  12.249  65.540  1.00  0.00    -0.264 C  
BRANCH  22  24
HETATM   24  N   UNL     1     -11.762  13.806  64.797  1.00  0.00    -0.363 NA 
HETATM   25  C   UNL     1     -11.802  15.194  64.318  1.00  0.00    -0.251 C  
HETATM   26  C   UNL     1     -11.658  12.937  63.610  1.00  0.00    -0.485 C  
ENDBRANCH  22  24
ENDBRANCH  21  22
ENDBRANCH   8  21
ENDBRANCH   3   8
ENDBRANCH   2   3
TORSDOF 9
ENDMDL
MODEL      145
REMARK 921   NORMALIZED FREE ENERGY PREDICTED BY IDOCK:   -4.03 KCAL/MOL
REMARK 922        TOTAL FREE ENERGY PREDICTED BY IDOCK:   -7.84 KCAL/MOL
REMARK 923 INTER-LIGAND FREE ENERGY PREDICTED BY IDOCK:   -6.87 KCAL/MOL
REMARK 924 INTRA-LIGAND FREE ENERGY PREDICTED BY IDOCK:   -0.96 KCAL/MOL
REMARK 927      BINDING AFFINITY PREDICTED BY RF-SCORE:    0.00 PKD
ROOT
HETATM    1  C   UNL     1      -9.676   8.864  66.008  1.00  0.00    -0.308 C  
HETATM    2  C   UNL     1     -10.575   9.106  67.216  1.00  0.00    -0.303 C  
ENDROOT
BRANCH   2   3
HETATM    3  C   UNL     1     -10.898  10.601  67.413  1.00  0.00    -0.296 C  
BRANCH   3   4
HETATM    4  O   UNL     1     -10.505  11.291  66.186  1.00  0.00    -0.241 OA 
BRANCH   4   5
HETATM    5  C   UNL     1     -11.459  11.931  65.461  1.00  0.00    -0.252 C  
HETATM    6  C   UNL     1     -11.122  11.852  63.995  1.00  0.00    -0.459 C  
HETATM    7  O   UNL     1     -12.403  12.560  65.920  1.00  0.00    -0.626 OA 
ENDBRANCH   4   5
ENDBRANCH   3   4
BRANCH   3   8
HETATM    8  C   UNL     1     -10.162  11.277  68.677  1.00  0.00    -0.214 C  
BRANCH   8   9
HETATM    9  C   UNL     1     -10.693  12.747  68.810  1.00  0.00    -0.246 A  
HETATM   10  C   UNL     1     -11.944  13.094  69.348  1.00  0.00    -0.347 A  
HETATM   11  C   UNL     1     -12.317  14.434  69.540  1.00  0.00    -0.263 A  
HETATM   12  C   UNL     1     -11.486  15.468  69.124  1.00  0.00    -0.356 A  
HETATM   13  C   UNL     1     -10.272  15.162  68.534  1.00  0.00    -0.231 A  
HETATM   14  C   UNL     1      -9.875  13.828  68.411  1.00  0.00    -0.227 A  
ENDBRANCH   8   9
BRANCH   8  15
HETATM   15  C   UNL     1      -8.583  11.215  68.371  1.00  0.00    -0.152 A  
HETATM   16  C   UNL     1      -7.981  11.806  67.241  1.00  0.00    -0.161 A  
HETATM   17  C   UNL     1      -6.587  11.803  67.057  1.00  0.00    -0.140 A  
HETATM   18  C   UNL     1      -5.744  11.214  67.999  1.00  0.00    -0.042 A  
HETATM   19  C   UNL     1      -7.687  10.600  69.280  1.00  0.00    -0.142 A  
HETATM   20  C   UNL     1      -6.300  10.602  69.108  1.00  0.00    -0.053 A  
ENDBRANCH   8  15
BRANCH   8  21
HETATM   21  C   UNL     1     -10.444  10.480  70.050  1.00  0.00    -0.163 C  
BRANCH  21  22
HETATM   22  C   UNL     1     -11.620   9.491  70.384  1.00  0.00    -0.212 C  
HETATM   23  C   UNL     1     -12.802  10.219  71.052  1.00  0.00    -0.490 C  
BRANCH  22  24
HETATM   24  N   UNL     1     -11.264   8.227  71.069  1.00  0.00    -0.254 NA 
HETATM   25  C   UNL     1     -10.435   8.410  72.268  1.00  0.00    -0.337 C  
HETATM   26  C   UNL     1     -12.437   7.425  71.468  1.00  0.00    -0.361 C  
ENDBRANCH  22  24
ENDBRANCH  21  22
ENDBRANCH   8  21
ENDBRANCH   3   8
ENDBRANCH   2   3
TORSDOF 9
ENDMDL
MODEL      146
REMARK 921   NORMALIZED FREE ENERGY PREDICTED BY IDOCK:   -4.01 KCAL/MOL
REMARK 922        TOTAL FREE ENERGY PREDICTED BY IDOCK:   -7.82 KCAL/MOL
REMARK 923 INTER-LIGAND FREE ENERGY PREDICTED BY IDOCK:   -6.42 KCAL/MOL
REMARK 924 INTRA-LIGAND FREE ENERGY PREDICTED BY IDOCK:   -1.40 KCAL/MOL
REMARK 927      BINDING AFFINITY PREDICTED BY RF-SCORE:    0.00 PKD
ROOT
HETATM    1  C   UNL     1     -12.907  13.296  65.411  1.00  0.00    -0.340 C  
HETATM    2  C   UNL     1     -11.891  14.257  66.019  1.00  0.00    -0.399 C  
ENDROOT
BRANCH   2   3
HETATM    3  C   UNL     1     -11.319  13.735  67.353  1.00  0.00    -0.324 C  
BRANCH   3   4
HETATM    4  O   UNL     1     -11.294  14.864  68.281  1.00  0.00    -0.282 OA 
BRANCH   4   5
HETATM    5  C   UNL     1     -11.834  14.705  69.518  1.00  0.00    -0.330 C  
HETATM    6  C   UNL     1     -11.216  15.693  70.472  1.00  0.00    -0.382 C  
HETATM    7  O   UNL     1     -12.631  13.836  69.843  1.00  0.00    -0.253 OA 
ENDBRANCH   4   5
ENDBRANCH   3   4
BRANCH   3   8
HETATM    8  C   UNL     1      -9.845  13.094  67.235  1.00  0.00    -0.232 C  
BRANCH   8   9
HETATM    9  C   UNL     1      -9.755  11.911  68.261  1.00  0.00    -0.200 A  
HETATM   10  C   UNL     1     -10.868  11.277  68.841  1.00  0.00    -0.253 A  
HETATM   11  C   UNL     1     -10.724  10.152  69.670  1.00  0.00    -0.295 A  
HETATM   12  C   UNL     1      -9.463   9.678  70.010  1.00  0.00    -0.277 A  
HETATM   13  C   UNL     1      -8.343  10.316  69.506  1.00  0.00    -0.162 A  
HETATM   14  C   UNL     1      -8.493  11.391  68.625  1.00  0.00    -0.131 A  
ENDBRANCH   8   9
BRANCH   8  15
HETATM   15  C   UNL     1      -8.806  14.280  67.566  1.00  0.00    -0.202 A  
HETATM   16  C   UNL     1      -8.112  14.393  68.787  1.00  0.00    -0.127 A  
HETATM   17  C   UNL     1      -7.148  15.395  69.001  1.00  0.00    -0.144 A  
HETATM   18  C   UNL     1      -6.840  16.315  68.000  1.00  0.00    -0.142 A  
HETATM   19  C   UNL     1      -8.483  15.257  66.593  1.00  0.00    -0.264 A  
HETATM   20  C   UNL     1      -7.519  16.249  66.796  1.00  0.00    -0.266 A  
ENDBRANCH   8  15
BRANCH   8  21
HETATM   21  C   UNL     1      -9.531  12.543  65.753  1.00  0.00    -0.066 C  
BRANCH  21  22
HETATM   22  C   UNL     1      -9.525  11.056  65.243  1.00  0.00    -0.223 C  
HETATM   23  C   UNL     1      -8.134  10.411  65.386  1.00  0.00    -0.152 C  
BRANCH  22  24
HETATM   24  N   UNL     1     -10.146  10.794  63.924  1.00  0.00    -0.335 NA 
HETATM   25  C   UNL     1     -10.562  12.007  63.208  1.00  0.00    -0.348 C  
HETATM   26  C   UNL     1      -9.280  10.023  63.011  1.00  0.00    -0.286 C  
ENDBRANCH  22  24
ENDBRANCH  21  22
ENDBRANCH   8  21
ENDBRANCH   3   8
ENDBRANCH   2   3
TORSDOF 9
ENDMDL
MODEL      147
REMARK 921   NORMALIZED FREE ENERGY PREDICTED BY IDOCK:   -3.99 KCAL/MOL
REMARK 922        TOTAL FREE ENERGY PREDICTED BY IDOCK:   -7.78 KCAL/MOL
REMARK 923 INTER-LIGAND FREE ENERGY PREDICTED BY IDOCK:   -6.31 KCAL/MOL
REMARK 924 INTRA-LIGAND FREE ENERGY PREDICTED BY IDOCK:   -1.46 KCAL/MOL
REMARK 927      BINDING AFFINITY PREDICTED BY RF-SCORE:    0.00 PKD
ROOT
HETATM    1  C   UNL     1     -13.025  10.099  70.890  1.00  0.00    -0.432 C  
HETATM    2  C   UNL     1     -11.595  10.546  70.610  1.00  0.00    -0.445 C  
ENDROOT
BRANCH   2   3
HETATM    3  C   UNL     1     -10.652   9.355  70.343  1.00  0.00    -0.261 C  
BRANCH   3   4
HETATM    4  O   UNL     1      -9.483   9.530  71.204  1.00  0.00    -0.200 OA 
BRANCH   4   5
HETATM    5  C   UNL     1      -9.299   8.670  72.239  1.00  0.00    -0.252 C  
HETATM    6  C   UNL     1     -10.585   7.936  72.524  1.00  0.00    -0.378 C  
HETATM    7  O   UNL     1      -8.281   8.563  72.907  1.00  0.00    -0.344 OA 
ENDBRANCH   4   5
ENDBRANCH   3   4
BRANCH   3   8
HETATM    8  C   UNL     1     -10.181   9.214  68.808  1.00  0.00    -0.228 C  
BRANCH   8   9
HETATM    9  C   UNL     1     -10.249   7.694  68.425  1.00  0.00    -0.226 A  
HETATM   10  C   UNL     1     -10.172   6.638  69.351  1.00  0.00    -0.207 A  
HETATM   11  C   UNL     1     -10.347   5.301  68.957  1.00  0.00    -0.246 A  
HETATM   12  C   UNL     1     -10.523   4.973  67.619  1.00  0.00    -0.074 A  
HETATM   13  C   UNL     1     -10.543   5.983  66.672  1.00  0.00    -0.312 A  
HETATM   14  C   UNL     1     -10.438   7.317  67.078  1.00  0.00    -0.398 A  
ENDBRANCH   8   9
BRANCH   8  15
HETATM   15  C   UNL     1      -8.685   9.804  68.736  1.00  0.00    -0.128 A  
HETATM   16  C   UNL     1      -7.540   9.009  68.523  1.00  0.00    -0.093 A  
HETATM   17  C   UNL     1      -6.261   9.575  68.379  1.00  0.00    -0.048 A  
HETATM   18  C   UNL     1      -6.081  10.957  68.437  1.00  0.00    -0.046 A  
HETATM   19  C   UNL     1      -8.446  11.197  68.820  1.00  0.00    -0.134 A  
HETATM   20  C   UNL     1      -7.179  11.768  68.668  1.00  0.00    -0.112 A  
ENDBRANCH   8  15
BRANCH   8  21
HETATM   21  C   UNL     1     -11.110  10.062  67.800  1.00  0.00    -0.246 C  
BRANCH  21  22
HETATM   22  C   UNL     1     -10.689  11.215  66.817  1.00  0.00    -0.276 C  
HETATM   23  C   UNL     1     -11.555  12.473  67.013  1.00  0.00    -0.437 C  
BRANCH  22  24
HETATM   24  N   UNL     1     -10.516  10.854  65.391  1.00  0.00    -0.251 NA 
HETATM   25  C   UNL     1     -11.004  11.874  64.453  1.00  0.00    -0.337 C  
HETATM   26  C   UNL     1      -9.117  10.559  65.026  1.00  0.00    -0.201 C  
ENDBRANCH  22  24
ENDBRANCH  21  22
ENDBRANCH   8  21
ENDBRANCH   3   8
ENDBRANCH   2   3
TORSDOF 9
ENDMDL
MODEL      148
REMARK 921   NORMALIZED FREE ENERGY PREDICTED BY IDOCK:   -3.98 KCAL/MOL
REMARK 922        TOTAL FREE ENERGY PREDICTED BY IDOCK:   -7.76 KCAL/MOL
REMARK 923 INTER-LIGAND FREE ENERGY PREDICTED BY IDOCK:   -7.05 KCAL/MOL
REMARK 924 INTRA-LIGAND FREE ENERGY PREDICTED BY IDOCK:   -0.72 KCAL/MOL
REMARK 927      BINDING AFFINITY PREDICTED BY RF-SCORE:    0.00 PKD
ROOT
HETATM    1  C   UNL     1     -11.884  15.810  71.453  1.00  0.00    -0.503 C  
HETATM    2  C   UNL     1     -10.805  15.680  70.384  1.00  0.00    -0.358 C  
ENDROOT
BRANCH   2   3
HETATM    3  C   UNL     1     -11.212  14.707  69.259  1.00  0.00    -0.282 C  
BRANCH   3   4
HETATM    4  O   UNL     1     -10.996  13.352  69.764  1.00  0.00     0.027 OA 
BRANCH   4   5
HETATM    5  C   UNL     1     -11.990  12.436  69.623  1.00  0.00    -0.274 C  
HETATM    6  C   UNL     1     -12.627  12.170  70.962  1.00  0.00    -0.359 C  
HETATM    7  O   UNL     1     -12.273  11.842  68.593  1.00  0.00    -0.405 OA 
ENDBRANCH   4   5
ENDBRANCH   3   4
BRANCH   3   8
HETATM    8  C   UNL     1     -10.401  14.910  67.881  1.00  0.00    -0.237 C  
BRANCH   8   9
HETATM    9  C   UNL     1      -9.122  14.003  67.940  1.00  0.00    -0.188 A  
HETATM   10  C   UNL     1      -7.990  14.278  68.727  1.00  0.00    -0.119 A  
HETATM   11  C   UNL     1      -6.921  13.372  68.819  1.00  0.00    -0.103 A  
HETATM   12  C   UNL     1      -6.914  12.203  68.067  1.00  0.00    -0.090 A  
HETATM   13  C   UNL     1      -7.987  11.930  67.235  1.00  0.00    -0.171 A  
HETATM   14  C   UNL     1      -9.079  12.801  67.200  1.00  0.00    -0.219 A  
ENDBRANCH   8   9
BRANCH   8  15
HETATM   15  C   UNL     1     -10.043  16.478  67.792  1.00  0.00    -0.264 A  
HETATM   16  C   UNL     1     -10.992  17.482  67.513  1.00  0.00    -0.088 A  
HETATM   17  C   UNL     1     -10.654  18.847  67.532  1.00  0.00    -0.524 A  
HETATM   18  C   UNL     1      -9.356  19.257  67.836  1.00  0.00    -0.378 A  
HETATM   19  C   UNL     1      -8.733  16.943  68.062  1.00  0.00    -0.215 A  
HETATM   20  C   UNL     1      -8.392  18.298  68.092  1.00  0.00    -0.296 A  
ENDBRANCH   8  15
BRANCH   8  21
HETATM   21  C   UNL     1     -11.278  14.516  66.588  1.00  0.00    -0.346 C  
BRANCH  21  22
HETATM   22  C   UNL     1     -10.850  14.527  65.074  1.00  0.00    -0.412 C  
HETATM   23  C   UNL     1     -11.359  15.786  64.349  1.00  0.00    -0.274 C  
BRANCH  22  24
HETATM   24  N   UNL     1     -11.082  13.286  64.300  1.00  0.00    -0.382 NA 
HETATM   25  C   UNL     1     -11.415  12.118  65.127  1.00  0.00    -0.323 C  
HETATM   26  C   UNL     1     -12.143  13.418  63.284  1.00  0.00    -0.262 C  
ENDBRANCH  22  24
ENDBRANCH  21  22
ENDBRANCH   8  21
ENDBRANCH   3   8
ENDBRANCH   2   3
TORSDOF 9
ENDMDL
MODEL      149
REMARK 921   NORMALIZED FREE ENERGY PREDICTED BY IDOCK:   -3.97 KCAL/MOL
REMARK 922        TOTAL FREE ENERGY PREDICTED BY IDOCK:   -7.75 KCAL/MOL
REMARK 923 INTER-LIGAND FREE ENERGY PREDICTED BY IDOCK:   -6.60 KCAL/MOL
REMARK 924 INTRA-LIGAND FREE ENERGY PREDICTED BY IDOCK:   -1.15 KCAL/MOL
REMARK 927      BINDING AFFINITY PREDICTED BY RF-SCORE:    0.00 PKD
ROOT
HETATM    1  C   UNL     1     -12.709  13.889  65.790  1.00  0.00    -0.503 C  
HETATM    2  C   UNL     1     -12.147  12.485  65.984  1.00  0.00    -0.390 C  
ENDROOT
BRANCH   2   3
HETATM    3  C   UNL     1     -11.217  12.392  67.211  1.00  0.00    -0.303 C  
BRANCH   3   4
HETATM    4  O   UNL     1     -11.412  13.613  67.992  1.00  0.00    -0.274 OA 
BRANCH   4   5
HETATM    5  C   UNL     1     -11.881  13.508  69.263  1.00  0.00    -0.341 C  
HETATM    6  C   UNL     1     -12.112  14.883  69.833  1.00  0.00    -0.379 C  
HETATM    7  O   UNL     1     -12.011  12.468  69.893  1.00  0.00    -0.326 OA 
ENDBRANCH   4   5
ENDBRANCH   3   4
BRANCH   3   8
HETATM    8  C   UNL     1      -9.657  12.221  66.849  1.00  0.00    -0.214 C  
BRANCH   8   9
HETATM    9  C   UNL     1      -9.565  11.533  65.442  1.00  0.00    -0.249 A  
HETATM   10  C   UNL     1      -9.801  12.189  64.221  1.00  0.00    -0.174 A  
HETATM   11  C   UNL     1      -9.598  11.546  62.989  1.00  0.00    -0.371 A  
HETATM   12  C   UNL     1      -9.233  10.206  62.940  1.00  0.00    -0.316 A  
HETATM   13  C   UNL     1      -9.051   9.512  64.124  1.00  0.00    -0.203 A  
HETATM   14  C   UNL     1      -9.186  10.176  65.347  1.00  0.00    -0.249 A  
ENDBRANCH   8   9
BRANCH   8  15
HETATM   15  C   UNL     1      -9.014  11.321  68.020  1.00  0.00    -0.156 A  
HETATM   16  C   UNL     1      -7.668  11.413  68.427  1.00  0.00    -0.127 A  
HETATM   17  C   UNL     1      -7.171  10.671  69.514  1.00  0.00    -0.140 A  
HETATM   18  C   UNL     1      -8.003   9.815  70.235  1.00  0.00    -0.185 A  
HETATM   19  C   UNL     1      -9.810  10.415  68.762  1.00  0.00    -0.190 A  
HETATM   20  C   UNL     1      -9.325   9.681  69.849  1.00  0.00    -0.256 A  
ENDBRANCH   8  15
BRANCH   8  21
HETATM   21  C   UNL     1      -8.877  13.631  66.807  1.00  0.00    -0.150 C  
BRANCH  21  22
HETATM   22  C   UNL     1      -9.455  15.076  67.033  1.00  0.00    -0.229 C  
HETATM   23  C   UNL     1      -9.548  15.863  65.712  1.00  0.00    -0.339 C  
BRANCH  22  24
HETATM   24  N   UNL     1      -8.868  15.872  68.135  1.00  0.00    -0.174 NA 
HETATM   25  C   UNL     1      -8.177  15.067  69.151  1.00  0.00    -0.188 C  
HETATM   26  C   UNL     1      -7.919  16.902  67.674  1.00  0.00    -0.174 C  
ENDBRANCH  22  24
ENDBRANCH  21  22
ENDBRANCH   8  21
ENDBRANCH   3   8
ENDBRANCH   2   3
TORSDOF 9
ENDMDL
MODEL      150
REMARK 921   NORMALIZED FREE ENERGY PREDICTED BY IDOCK:   -3.96 KCAL/MOL
REMARK 922        TOTAL FREE ENERGY PREDICTED BY IDOCK:   -7.73 KCAL/MOL
REMARK 923 INTER-LIGAND FREE ENERGY PREDICTED BY IDOCK:   -6.74 KCAL/MOL
REMARK 924 INTRA-LIGAND FREE ENERGY PREDICTED BY IDOCK:   -0.99 KCAL/MOL
REMARK 927      BINDING AFFINITY PREDICTED BY RF-SCORE:    0.00 PKD
ROOT
HETATM    1  C   UNL     1     -11.743  15.852  71.159  1.00  0.00    -0.490 C  
HETATM    2  C   UNL     1     -12.033  15.648  69.676  1.00  0.00    -0.367 C  
ENDROOT
BRANCH   2   3
HETATM    3  C   UNL     1     -10.771  15.816  68.805  1.00  0.00    -0.253 C  
BRANCH   3   4
HETATM    4  O   UNL     1     -11.145  16.647  67.662  1.00  0.00    -0.244 OA 
BRANCH   4   5
HETATM    5  C   UNL     1     -10.724  17.938  67.627  1.00  0.00    -0.331 C  
HETATM    6  C   UNL     1      -9.972  18.261  68.892  1.00  0.00    -0.361 C  
HETATM    7  O   UNL     1     -10.987  18.752  66.753  1.00  0.00    -0.263 OA 
ENDBRANCH   4   5
ENDBRANCH   3   4
BRANCH   3   8
HETATM    8  C   UNL     1     -10.133  14.430  68.287  1.00  0.00    -0.239 C  
BRANCH   8   9
HETATM    9  C   UNL     1      -8.586  14.640  68.140  1.00  0.00    -0.166 A  
HETATM   10  C   UNL     1      -7.613  13.814  68.730  1.00  0.00    -0.099 A  
HETATM   11  C   UNL     1      -6.244  13.991  68.473  1.00  0.00    -0.093 A  
HETATM   12  C   UNL     1      -5.800  15.046  67.685  1.00  0.00    -0.065 A  
HETATM   13  C   UNL     1      -6.728  15.916  67.137  1.00  0.00    -0.168 A  
HETATM   14  C   UNL     1      -8.093  15.693  67.339  1.00  0.00    -0.195 A  
ENDBRANCH   8   9
BRANCH   8  15
HETATM   15  C   UNL     1     -10.849  14.099  66.883  1.00  0.00    -0.296 A  
HETATM   16  C   UNL     1     -12.244  14.137  66.687  1.00  0.00    -0.450 A  
HETATM   17  C   UNL     1     -12.821  13.927  65.422  1.00  0.00    -0.466 A  
HETATM   18  C   UNL     1     -12.023  13.676  64.306  1.00  0.00    -0.488 A  
HETATM   19  C   UNL     1     -10.084  13.808  65.726  1.00  0.00    -0.322 A  
HETATM   20  C   UNL     1     -10.650  13.607  64.464  1.00  0.00    -0.428 A  
ENDBRANCH   8  15
BRANCH   8  21
HETATM   21  C   UNL     1     -10.414  13.208  69.300  1.00  0.00     0.183 C  
BRANCH  21  22
HETATM   22  C   UNL     1     -11.272  11.912  69.057  1.00  0.00    -0.258 C  
HETATM   23  C   UNL     1     -12.393  11.769  70.103  1.00  0.00    -0.272 C  
BRANCH  22  24
HETATM   24  N   UNL     1     -10.535  10.648  68.829  1.00  0.00    -0.182 NA 
HETATM   25  C   UNL     1      -9.215  10.830  68.210  1.00  0.00    -0.157 C  
HETATM   26  C   UNL     1     -10.335   9.856  70.058  1.00  0.00    -0.272 C  
ENDBRANCH  22  24
ENDBRANCH  21  22
ENDBRANCH   8  21
ENDBRANCH   3   8
ENDBRANCH   2   3
TORSDOF 9
ENDMDL
MODEL      151
REMARK 921   NORMALIZED FREE ENERGY PREDICTED BY IDOCK:   -3.95 KCAL/MOL
REMARK 922        TOTAL FREE ENERGY PREDICTED BY IDOCK:   -7.72 KCAL/MOL
REMARK 923 INTER-LIGAND FREE ENERGY PREDICTED BY IDOCK:   -7.02 KCAL/MOL
REMARK 924 INTRA-LIGAND FREE ENERGY PREDICTED BY IDOCK:   -0.70 KCAL/MOL
REMARK 927      BINDING AFFINITY PREDICTED BY RF-SCORE:    0.00 PKD
ROOT
HETATM    1  C   UNL     1      -9.811  10.218  65.212  1.00  0.00    -0.372 C  
HETATM    2  C   UNL     1     -10.694   9.866  66.405  1.00  0.00    -0.034 C  
ENDROOT
BRANCH   2   3
HETATM    3  C   UNL     1     -11.118  11.114  67.205  1.00  0.00    -0.302 C  
BRANCH   3   4
HETATM    4  O   UNL     1     -10.979  12.264  66.314  1.00  0.00    -0.268 OA 
BRANCH   4   5
HETATM    5  C   UNL     1     -12.067  13.045  66.080  1.00  0.00    -0.432 C  
HETATM    6  C   UNL     1     -12.753  12.593  64.817  1.00  0.00    -0.460 C  
HETATM    7  O   UNL     1     -12.397  14.024  66.733  1.00  0.00    -0.439 OA 
ENDBRANCH   4   5
ENDBRANCH   3   4
BRANCH   3   8
HETATM    8  C   UNL     1     -10.264  11.361  68.549  1.00  0.00    -0.216 C  
BRANCH   8   9
HETATM    9  C   UNL     1     -11.266  11.777  69.683  1.00  0.00    -0.225 A  
HETATM   10  C   UNL     1     -11.678  13.098  69.932  1.00  0.00    -0.327 A  
HETATM   11  C   UNL     1     -12.660  13.393  70.892  1.00  0.00    -0.406 A  
HETATM   12  C   UNL     1     -13.200  12.390  71.687  1.00  0.00    -0.367 A  
HETATM   13  C   UNL     1     -12.772  11.085  71.510  1.00  0.00    -0.521 A  
HETATM   14  C   UNL     1     -11.847  10.787  70.506  1.00  0.00    -0.453 A  
ENDBRANCH   8   9
BRANCH   8  15
HETATM   15  C   UNL     1      -9.202  12.521  68.206  1.00  0.00    -0.186 A  
HETATM   16  C   UNL     1      -9.466  13.896  68.367  1.00  0.00    -0.211 A  
HETATM   17  C   UNL     1      -8.479  14.872  68.138  1.00  0.00    -0.146 A  
HETATM   18  C   UNL     1      -7.191  14.507  67.748  1.00  0.00    -0.192 A  
HETATM   19  C   UNL     1      -7.890  12.204  67.776  1.00  0.00    -0.148 A  
HETATM   20  C   UNL     1      -6.902  13.168  67.557  1.00  0.00    -0.156 A  
ENDBRANCH   8  15
BRANCH   8  21
HETATM   21  C   UNL     1      -9.451  10.048  69.010  1.00  0.00    -0.190 C  
BRANCH  21  22
HETATM   22  C   UNL     1      -8.860   9.709  70.428  1.00  0.00    -0.178 C  
HETATM   23  C   UNL     1      -7.324   9.813  70.442  1.00  0.00    -0.151 C  
BRANCH  22  24
HETATM   24  N   UNL     1      -9.358   8.481  71.089  1.00  0.00    -0.179 NA 
HETATM   25  C   UNL     1      -9.922   8.710  72.427  1.00  0.00    -0.249 C  
HETATM   26  C   UNL     1     -10.379   7.763  70.302  1.00  0.00    -0.215 C  
ENDBRANCH  22  24
ENDBRANCH  21  22
ENDBRANCH   8  21
ENDBRANCH   3   8
ENDBRANCH   2   3
TORSDOF 9
ENDMDL
MODEL      152
REMARK 921   NORMALIZED FREE ENERGY PREDICTED BY IDOCK:   -3.95 KCAL/MOL
REMARK 922        TOTAL FREE ENERGY PREDICTED BY IDOCK:   -7.72 KCAL/MOL
REMARK 923 INTER-LIGAND FREE ENERGY PREDICTED BY IDOCK:   -6.88 KCAL/MOL
REMARK 924 INTRA-LIGAND FREE ENERGY PREDICTED BY IDOCK:   -0.84 KCAL/MOL
REMARK 927      BINDING AFFINITY PREDICTED BY RF-SCORE:    0.00 PKD
ROOT
HETATM    1  C   UNL     1      -9.774   9.616  65.729  1.00  0.00    -0.350 C  
HETATM    2  C   UNL     1     -10.765   9.734  66.883  1.00  0.00    -0.192 C  
ENDROOT
BRANCH   2   3
HETATM    3  C   UNL     1     -11.001  11.200  67.302  1.00  0.00    -0.296 C  
BRANCH   3   4
HETATM    4  O   UNL     1     -10.448  12.044  66.244  1.00  0.00    -0.228 OA 
BRANCH   4   5
HETATM    5  C   UNL     1     -11.283  12.878  65.571  1.00  0.00    -0.288 C  
HETATM    6  C   UNL     1     -10.500  14.041  65.018  1.00  0.00    -0.440 C  
HETATM    7  O   UNL     1     -12.498  12.766  65.497  1.00  0.00    -0.573 OA 
ENDBRANCH   4   5
ENDBRANCH   3   4
BRANCH   3   8
HETATM    8  C   UNL     1     -10.341  11.598  68.717  1.00  0.00    -0.213 C  
BRANCH   8   9
HETATM    9  C   UNL     1      -8.825  11.200  68.667  1.00  0.00    -0.155 A  
HETATM   10  C   UNL     1      -7.790  12.064  68.269  1.00  0.00    -0.145 A  
HETATM   11  C   UNL     1      -6.441  11.681  68.349  1.00  0.00    -0.052 A  
HETATM   12  C   UNL     1      -6.090  10.398  68.751  1.00  0.00    -0.040 A  
HETATM   13  C   UNL     1      -7.087   9.501  69.092  1.00  0.00    -0.062 A  
HETATM   14  C   UNL     1      -8.424   9.909  69.078  1.00  0.00    -0.136 A  
ENDBRANCH   8   9
BRANCH   8  15
HETATM   15  C   UNL     1     -11.157  10.787  69.843  1.00  0.00    -0.339 A  
HETATM   16  C   UNL     1     -12.558  10.845  69.989  1.00  0.00    -0.253 A  
HETATM   17  C   UNL     1     -13.239  10.052  70.930  1.00  0.00    -0.336 A  
HETATM   18  C   UNL     1     -12.544   9.168  71.755  1.00  0.00    -0.446 A  
HETATM   19  C   UNL     1     -10.494   9.899  70.726  1.00  0.00    -0.253 A  
HETATM   20  C   UNL     1     -11.166   9.101  71.656  1.00  0.00    -0.447 A  
ENDBRANCH   8  15
BRANCH   8  21
HETATM   21  C   UNL     1     -10.471  13.174  69.034  1.00  0.00    -0.031 C  
BRANCH  21  22
HETATM   22  C   UNL     1     -11.765  14.001  69.372  1.00  0.00    -0.315 C  
HETATM   23  C   UNL     1     -12.020  15.107  68.331  1.00  0.00    -0.216 C  
BRANCH  22  24
HETATM   24  N   UNL     1     -11.913  14.480  70.766  1.00  0.00    -0.307 NA 
HETATM   25  C   UNL     1     -11.449  15.858  70.977  1.00  0.00    -0.418 C  
HETATM   26  C   UNL     1     -13.298  14.404  71.268  1.00  0.00    -0.343 C  
ENDBRANCH  22  24
ENDBRANCH  21  22
ENDBRANCH   8  21
ENDBRANCH   3   8
ENDBRANCH   2   3
TORSDOF 9
ENDMDL
MODEL      153
REMARK 921   NORMALIZED FREE ENERGY PREDICTED BY IDOCK:   -3.93 KCAL/MOL
REMARK 922        TOTAL FREE ENERGY PREDICTED BY IDOCK:   -7.69 KCAL/MOL
REMARK 923 INTER-LIGAND FREE ENERGY PREDICTED BY IDOCK:   -6.50 KCAL/MOL
REMARK 924 INTRA-LIGAND FREE ENERGY PREDICTED BY IDOCK:   -1.20 KCAL/MOL
REMARK 927      BINDING AFFINITY PREDICTED BY RF-SCORE:    0.00 PKD
ROOT
HETATM    1  C   UNL     1      -8.329   8.553  65.250  1.00  0.00    -0.168 C  
HETATM    2  C   UNL     1      -9.626   8.649  66.046  1.00  0.00    -0.265 C  
ENDROOT
BRANCH   2   3
HETATM    3  C   UNL     1     -10.161  10.094  66.116  1.00  0.00    -0.215 C  
BRANCH   3   4
HETATM    4  O   UNL     1      -9.468  10.860  65.082  1.00  0.00    -0.204 OA 
BRANCH   4   5
HETATM    5  C   UNL     1     -10.120  11.131  63.922  1.00  0.00    -0.348 C  
HETATM    6  C   UNL     1      -9.147  11.089  62.772  1.00  0.00    -0.361 C  
HETATM    7  O   UNL     1     -11.295  11.452  63.821  1.00  0.00    -0.382 OA 
ENDBRANCH   4   5
ENDBRANCH   3   4
BRANCH   3   8
HETATM    8  C   UNL     1      -9.961  10.806  67.548  1.00  0.00    -0.203 C  
BRANCH   8   9
HETATM    9  C   UNL     1     -10.454  12.290  67.418  1.00  0.00    -0.228 A  
HETATM   10  C   UNL     1      -9.747  13.406  67.898  1.00  0.00    -0.226 A  
HETATM   11  C   UNL     1     -10.189  14.716  67.655  1.00  0.00    -0.232 A  
HETATM   12  C   UNL     1     -11.391  14.949  66.999  1.00  0.00    -0.345 A  
HETATM   13  C   UNL     1     -12.145  13.871  66.566  1.00  0.00    -0.484 A  
HETATM   14  C   UNL     1     -11.665  12.571  66.748  1.00  0.00    -0.453 A  
ENDBRANCH   8   9
BRANCH   8  15
HETATM   15  C   UNL     1      -8.391  10.704  67.891  1.00  0.00    -0.120 A  
HETATM   16  C   UNL     1      -7.859   9.847  68.875  1.00  0.00    -0.091 A  
HETATM   17  C   UNL     1      -6.473   9.725  69.081  1.00  0.00    -0.044 A  
HETATM   18  C   UNL     1      -5.569  10.451  68.306  1.00  0.00    -0.037 A  
HETATM   19  C   UNL     1      -7.435  11.444  67.153  1.00  0.00    -0.138 A  
HETATM   20  C   UNL     1      -6.056  11.320  67.346  1.00  0.00    -0.066 A  
ENDBRANCH   8  15
BRANCH   8  21
HETATM   21  C   UNL     1     -10.785  10.068  68.721  1.00  0.00    -0.250 C  
BRANCH  21  22
HETATM   22  C   UNL     1     -11.104  10.590  70.170  1.00  0.00    -0.298 C  
HETATM   23  C   UNL     1     -10.731   9.550  71.243  1.00  0.00    -0.386 C  
BRANCH  22  24
HETATM   24  N   UNL     1     -12.440  11.189  70.392  1.00  0.00    -0.311 NA 
HETATM   25  C   UNL     1     -13.122  10.702  71.599  1.00  0.00    -0.450 C  
HETATM   26  C   UNL     1     -12.418  12.662  70.468  1.00  0.00    -0.193 C  
ENDBRANCH  22  24
ENDBRANCH  21  22
ENDBRANCH   8  21
ENDBRANCH   3   8
ENDBRANCH   2   3
TORSDOF 9
ENDMDL
MODEL      154
REMARK 921   NORMALIZED FREE ENERGY PREDICTED BY IDOCK:   -3.93 KCAL/MOL
REMARK 922        TOTAL FREE ENERGY PREDICTED BY IDOCK:   -7.69 KCAL/MOL
REMARK 923 INTER-LIGAND FREE ENERGY PREDICTED BY IDOCK:   -7.03 KCAL/MOL
REMARK 924 INTRA-LIGAND FREE ENERGY PREDICTED BY IDOCK:   -0.67 KCAL/MOL
REMARK 927      BINDING AFFINITY PREDICTED BY RF-SCORE:    0.00 PKD
ROOT
HETATM    1  C   UNL     1     -10.988   6.690  67.310  1.00  0.00    -0.456 C  
HETATM    2  C   UNL     1     -10.227   7.539  68.323  1.00  0.00    -0.218 C  
ENDROOT
BRANCH   2   3
HETATM    3  C   UNL     1     -10.199   9.031  67.931  1.00  0.00    -0.221 C  
BRANCH   3   4
HETATM    4  O   UNL     1      -9.090   9.209  66.996  1.00  0.00    -0.121 OA 
BRANCH   4   5
HETATM    5  C   UNL     1      -9.344   9.155  65.663  1.00  0.00    -0.235 C  
HETATM    6  C   UNL     1      -8.426   8.153  65.012  1.00  0.00    -0.117 C  
HETATM    7  O   UNL     1     -10.128   9.870  65.055  1.00  0.00    -0.286 OA 
ENDBRANCH   4   5
ENDBRANCH   3   4
BRANCH   3   8
HETATM    8  C   UNL     1     -10.031  10.040  69.176  1.00  0.00    -0.213 C  
BRANCH   8   9
HETATM    9  C   UNL     1      -8.643   9.744  69.847  1.00  0.00    -0.236 A  
HETATM   10  C   UNL     1      -7.445  10.398  69.513  1.00  0.00    -0.148 A  
HETATM   11  C   UNL     1      -6.257  10.164  70.225  1.00  0.00    -0.103 A  
HETATM   12  C   UNL     1      -6.211   9.212  71.236  1.00  0.00    -0.073 A  
HETATM   13  C   UNL     1      -7.359   8.505  71.550  1.00  0.00    -0.112 A  
HETATM   14  C   UNL     1      -8.555   8.792  70.886  1.00  0.00    -0.229 A  
ENDBRANCH   8   9
BRANCH   8  15
HETATM   15  C   UNL     1     -11.269   9.753  70.164  1.00  0.00    -0.324 A  
HETATM   16  C   UNL     1     -11.564   8.483  70.701  1.00  0.00    -0.214 A  
HETATM   17  C   UNL     1     -12.603   8.295  71.630  1.00  0.00    -0.355 A  
HETATM   18  C   UNL     1     -13.380   9.370  72.060  1.00  0.00    -0.525 A  
HETATM   19  C   UNL     1     -12.107  10.806  70.606  1.00  0.00    -0.467 A  
HETATM   20  C   UNL     1     -13.135  10.627  71.537  1.00  0.00    -0.527 A  
ENDBRANCH   8  15
BRANCH   8  21
HETATM   21  C   UNL     1     -10.088  11.586  68.726  1.00  0.00    -0.191 C  
BRANCH  21  22
HETATM   22  C   UNL     1     -10.632  12.195  67.382  1.00  0.00    -0.226 C  
HETATM   23  C   UNL     1      -9.535  12.959  66.619  1.00  0.00    -0.255 C  
BRANCH  22  24
HETATM   24  N   UNL     1     -11.910  12.941  67.449  1.00  0.00    -0.374 NA 
HETATM   25  C   UNL     1     -11.971  13.925  68.538  1.00  0.00    -0.359 C  
HETATM   26  C   UNL     1     -12.240  13.653  66.199  1.00  0.00    -0.444 C  
ENDBRANCH  22  24
ENDBRANCH  21  22
ENDBRANCH   8  21
ENDBRANCH   3   8
ENDBRANCH   2   3
TORSDOF 9
ENDMDL
MODEL      155
REMARK 921   NORMALIZED FREE ENERGY PREDICTED BY IDOCK:   -3.92 KCAL/MOL
REMARK 922        TOTAL FREE ENERGY PREDICTED BY IDOCK:   -7.68 KCAL/MOL
REMARK 923 INTER-LIGAND FREE ENERGY PREDICTED BY IDOCK:   -6.13 KCAL/MOL
REMARK 924 INTRA-LIGAND FREE ENERGY PREDICTED BY IDOCK:   -1.55 KCAL/MOL
REMARK 927      BINDING AFFINITY PREDICTED BY RF-SCORE:    0.00 PKD
ROOT
HETATM    1  C   UNL     1      -6.318   9.613  64.272  1.00  0.00    -0.105 C  
HETATM    2  C   UNL     1      -7.130  10.420  65.279  1.00  0.00    -0.098 C  
ENDROOT
BRANCH   2   3
HETATM    3  C   UNL     1      -8.638  10.107  65.198  1.00  0.00    -0.164 C  
BRANCH   3   4
HETATM    4  O   UNL     1      -9.293  11.291  64.645  1.00  0.00    -0.208 OA 
BRANCH   4   5
HETATM    5  C   UNL     1     -10.116  11.143  63.574  1.00  0.00    -0.385 C  
HETATM    6  C   UNL     1      -9.358  10.508  62.437  1.00  0.00    -0.281 C  
HETATM    7  O   UNL     1     -11.269  11.542  63.498  1.00  0.00    -0.413 OA 
ENDBRANCH   4   5
ENDBRANCH   3   4
BRANCH   3   8
HETATM    8  C   UNL     1      -9.311   9.722  66.610  1.00  0.00    -0.200 C  
BRANCH   8   9
HETATM    9  C   UNL     1      -8.292  10.094  67.744  1.00  0.00    -0.114 A  
HETATM   10  C   UNL     1      -7.742  11.375  67.926  1.00  0.00    -0.114 A  
HETATM   11  C   UNL     1      -6.918  11.671  69.024  1.00  0.00    -0.111 A  
HETATM   12  C   UNL     1      -6.554  10.679  69.927  1.00  0.00    -0.137 A  
HETATM   13  C   UNL     1      -7.029   9.392  69.743  1.00  0.00    -0.065 A  
HETATM   14  C   UNL     1      -7.905   9.118  68.688  1.00  0.00    -0.097 A  
ENDBRANCH   8   9
BRANCH   8  15
HETATM   15  C   UNL     1      -9.620   8.142  66.550  1.00  0.00    -0.303 A  
HETATM   16  C   UNL     1      -8.778   7.205  65.917  1.00  0.00    -0.146 A  
HETATM   17  C   UNL     1      -9.041   5.824  65.964  1.00  0.00    -0.163 A  
HETATM   18  C   UNL     1     -10.150   5.331  66.651  1.00  0.00    -0.259 A  
HETATM   19  C   UNL     1     -10.750   7.595  67.205  1.00  0.00    -0.361 A  
HETATM   20  C   UNL     1     -11.011   6.223  67.264  1.00  0.00    -0.455 A  
ENDBRANCH   8  15
BRANCH   8  21
HETATM   21  C   UNL     1     -10.700  10.500  66.862  1.00  0.00    -0.281 C  
BRANCH  21  22
HETATM   22  C   UNL     1     -11.093  11.438  68.062  1.00  0.00    -0.257 C  
HETATM   23  C   UNL     1     -11.648  10.634  69.253  1.00  0.00    -0.346 C  
BRANCH  22  24
HETATM   24  N   UNL     1     -11.911  12.631  67.744  1.00  0.00    -0.374 NA 
HETATM   25  C   UNL     1     -11.937  13.639  68.813  1.00  0.00    -0.359 C  
HETATM   26  C   UNL     1     -11.493  13.317  66.507  1.00  0.00    -0.337 C  
ENDBRANCH  22  24
ENDBRANCH  21  22
ENDBRANCH   8  21
ENDBRANCH   3   8
ENDBRANCH   2   3
TORSDOF 9
ENDMDL
MODEL      156
REMARK 921   NORMALIZED FREE ENERGY PREDICTED BY IDOCK:   -3.92 KCAL/MOL
REMARK 922        TOTAL FREE ENERGY PREDICTED BY IDOCK:   -7.67 KCAL/MOL
REMARK 923 INTER-LIGAND FREE ENERGY PREDICTED BY IDOCK:   -5.95 KCAL/MOL
REMARK 924 INTRA-LIGAND FREE ENERGY PREDICTED BY IDOCK:   -1.72 KCAL/MOL
REMARK 927      BINDING AFFINITY PREDICTED BY RF-SCORE:    0.00 PKD
ROOT
HETATM    1  C   UNL     1      -8.065   8.275  64.030  1.00  0.00    -0.128 C  
HETATM    2  C   UNL     1      -7.884   9.494  64.927  1.00  0.00    -0.119 C  
ENDROOT
BRANCH   2   3
HETATM    3  C   UNL     1      -9.212   9.950  65.567  1.00  0.00    -0.203 C  
BRANCH   3   4
HETATM    4  O   UNL     1      -9.499  11.288  65.053  1.00  0.00    -0.222 OA 
BRANCH   4   5
HETATM    5  C   UNL     1     -10.161  11.406  63.873  1.00  0.00    -0.363 C  
HETATM    6  C   UNL     1     -11.538  11.967  64.117  1.00  0.00    -0.460 C  
HETATM    7  O   UNL     1      -9.751  11.033  62.783  1.00  0.00    -0.302 OA 
ENDBRANCH   4   5
ENDBRANCH   3   4
BRANCH   3   8
HETATM    8  C   UNL     1      -9.195   9.977  67.178  1.00  0.00    -0.161 C  
BRANCH   8   9
HETATM    9  C   UNL     1      -9.930   8.687  67.686  1.00  0.00    -0.248 A  
HETATM   10  C   UNL     1     -10.397   7.659  66.849  1.00  0.00    -0.388 A  
HETATM   11  C   UNL     1     -10.951   6.479  67.372  1.00  0.00    -0.458 A  
HETATM   12  C   UNL     1     -11.131   6.327  68.741  1.00  0.00    -0.424 A  
HETATM   13  C   UNL     1     -10.738   7.346  69.592  1.00  0.00    -0.245 A  
HETATM   14  C   UNL     1     -10.123   8.488  69.070  1.00  0.00    -0.207 A  
ENDBRANCH   8   9
BRANCH   8  15
HETATM   15  C   UNL     1      -9.947  11.331  67.618  1.00  0.00    -0.197 A  
HETATM   16  C   UNL     1     -11.336  11.417  67.843  1.00  0.00    -0.371 A  
HETATM   17  C   UNL     1     -11.939  12.598  68.311  1.00  0.00    -0.271 A  
HETATM   18  C   UNL     1     -11.174  13.734  68.576  1.00  0.00    -0.304 A  
HETATM   19  C   UNL     1      -9.219  12.520  67.869  1.00  0.00    -0.200 A  
HETATM   20  C   UNL     1      -9.811  13.694  68.344  1.00  0.00    -0.223 A  
ENDBRANCH   8  15
BRANCH   8  21
HETATM   21  C   UNL     1      -7.698  10.011  67.777  1.00  0.00    -0.090 C  
BRANCH  21  22
HETATM   22  C   UNL     1      -7.211   9.610  69.217  1.00  0.00    -0.069 C  
HETATM   23  C   UNL     1      -6.621  10.815  69.973  1.00  0.00    -0.159 C  
BRANCH  22  24
HETATM   24  N   UNL     1      -6.372   8.394  69.331  1.00  0.00    -0.037 NA 
HETATM   25  C   UNL     1      -6.673   7.568  70.508  1.00  0.00    -0.047 C  
HETATM   26  C   UNL     1      -6.450   7.515  68.149  1.00  0.00    -0.049 C  
ENDBRANCH  22  24
ENDBRANCH  21  22
ENDBRANCH   8  21
ENDBRANCH   3   8
ENDBRANCH   2   3
TORSDOF 9
ENDMDL
MODEL      157
REMARK 921   NORMALIZED FREE ENERGY PREDICTED BY IDOCK:   -3.91 KCAL/MOL
REMARK 922        TOTAL FREE ENERGY PREDICTED BY IDOCK:   -7.66 KCAL/MOL
REMARK 923 INTER-LIGAND FREE ENERGY PREDICTED BY IDOCK:   -6.41 KCAL/MOL
REMARK 924 INTRA-LIGAND FREE ENERGY PREDICTED BY IDOCK:   -1.25 KCAL/MOL
REMARK 927      BINDING AFFINITY PREDICTED BY RF-SCORE:    0.00 PKD
ROOT
HETATM    1  C   UNL     1      -7.963   5.179  70.839  1.00  0.00    -0.097 C  
HETATM    2  C   UNL     1      -9.201   5.984  71.217  1.00  0.00    -0.156 C  
ENDROOT
BRANCH   2   3
HETATM    3  C   UNL     1      -8.934   7.503  71.211  1.00  0.00    -0.137 C  
BRANCH   3   4
HETATM    4  O   UNL     1      -9.179   7.988  72.568  1.00  0.00    -0.171 OA 
BRANCH   4   5
HETATM    5  C   UNL     1      -8.950   7.149  73.612  1.00  0.00    -0.178 C  
HETATM    6  C   UNL     1     -10.263   6.648  74.156  1.00  0.00    -0.390 C  
HETATM    7  O   UNL     1      -7.859   6.904  74.106  1.00  0.00    -0.105 OA 
ENDBRANCH   4   5
ENDBRANCH   3   4
BRANCH   3   8
HETATM    8  C   UNL     1      -9.840   8.330  70.165  1.00  0.00    -0.184 C  
BRANCH   8   9
HETATM    9  C   UNL     1     -11.311   8.340  70.711  1.00  0.00    -0.285 A  
HETATM   10  C   UNL     1     -12.098   7.189  70.893  1.00  0.00    -0.368 A  
HETATM   11  C   UNL     1     -13.369   7.254  71.486  1.00  0.00    -0.435 A  
HETATM   12  C   UNL     1     -13.926   8.477  71.839  1.00  0.00    -0.498 A  
HETATM   13  C   UNL     1     -13.203   9.637  71.617  1.00  0.00    -0.499 A  
HETATM   14  C   UNL     1     -11.911   9.561  71.092  1.00  0.00    -0.436 A  
ENDBRANCH   8   9
BRANCH   8  15
HETATM   15  C   UNL     1      -9.710   7.571  68.752  1.00  0.00    -0.151 A  
HETATM   16  C   UNL     1      -8.482   7.341  68.097  1.00  0.00    -0.123 A  
HETATM   17  C   UNL     1      -8.405   6.596  66.907  1.00  0.00    -0.114 A  
HETATM   18  C   UNL     1      -9.552   6.050  66.331  1.00  0.00    -0.168 A  
HETATM   19  C   UNL     1     -10.848   7.025  68.110  1.00  0.00    -0.214 A  
HETATM   20  C   UNL     1     -10.778   6.275  66.932  1.00  0.00    -0.411 A  
ENDBRANCH   8  15
BRANCH   8  21
HETATM   21  C   UNL     1      -9.329   9.847  69.976  1.00  0.00    -0.232 C  
BRANCH  21  22
HETATM   22  C   UNL     1      -9.394  10.748  68.688  1.00  0.00    -0.184 C  
HETATM   23  C   UNL     1      -7.990  11.172  68.220  1.00  0.00    -0.127 C  
BRANCH  22  24
HETATM   24  N   UNL     1     -10.358  11.873  68.701  1.00  0.00    -0.217 NA 
HETATM   25  C   UNL     1      -9.858  13.096  68.059  1.00  0.00    -0.231 C  
HETATM   26  C   UNL     1     -11.651  11.545  68.070  1.00  0.00    -0.300 C  
ENDBRANCH  22  24
ENDBRANCH  21  22
ENDBRANCH   8  21
ENDBRANCH   3   8
ENDBRANCH   2   3
TORSDOF 9
ENDMDL
MODEL      158
REMARK 921   NORMALIZED FREE ENERGY PREDICTED BY IDOCK:   -3.91 KCAL/MOL
REMARK 922        TOTAL FREE ENERGY PREDICTED BY IDOCK:   -7.66 KCAL/MOL
REMARK 923 INTER-LIGAND FREE ENERGY PREDICTED BY IDOCK:   -6.39 KCAL/MOL
REMARK 924 INTRA-LIGAND FREE ENERGY PREDICTED BY IDOCK:   -1.27 KCAL/MOL
REMARK 927      BINDING AFFINITY PREDICTED BY RF-SCORE:    0.00 PKD
ROOT
HETATM    1  C   UNL     1     -10.163   7.872  67.266  1.00  0.00    -0.343 C  
HETATM    2  C   UNL     1     -10.737   9.188  67.780  1.00  0.00    -0.243 C  
ENDROOT
BRANCH   2   3
HETATM    3  C   UNL     1      -9.634  10.171  68.225  1.00  0.00    -0.141 C  
BRANCH   3   4
HETATM    4  O   UNL     1      -9.942  10.569  69.598  1.00  0.00    -0.202 OA 
BRANCH   4   5
HETATM    5  C   UNL     1     -10.266   9.606  70.500  1.00  0.00    -0.287 C  
HETATM    6  C   UNL     1     -11.578   9.947  71.156  1.00  0.00    -0.468 C  
HETATM    7  O   UNL     1      -9.565   8.653  70.810  1.00  0.00    -0.167 OA 
ENDBRANCH   4   5
ENDBRANCH   3   4
BRANCH   3   8
HETATM    8  C   UNL     1      -9.500  11.481  67.296  1.00  0.00    -0.176 C  
BRANCH   8   9
HETATM    9  C   UNL     1      -9.406  11.002  65.805  1.00  0.00    -0.236 A  
HETATM   10  C   UNL     1     -10.450  11.109  64.869  1.00  0.00    -0.372 A  
HETATM   11  C   UNL     1     -10.268  10.761  63.521  1.00  0.00    -0.315 A  
HETATM   12  C   UNL     1      -9.066  10.218  63.084  1.00  0.00    -0.287 A  
HETATM   13  C   UNL     1      -8.035  10.042  63.992  1.00  0.00    -0.151 A  
HETATM   14  C   UNL     1      -8.198  10.456  65.317  1.00  0.00    -0.162 A  
ENDBRANCH   8   9
BRANCH   8  15
HETATM   15  C   UNL     1      -8.171  12.249  67.783  1.00  0.00    -0.161 A  
HETATM   16  C   UNL     1      -7.225  11.692  68.666  1.00  0.00    -0.104 A  
HETATM   17  C   UNL     1      -6.034  12.363  68.997  1.00  0.00    -0.071 A  
HETATM   18  C   UNL     1      -5.745  13.614  68.452  1.00  0.00    -0.099 A  
HETATM   19  C   UNL     1      -7.848  13.534  67.283  1.00  0.00    -0.106 A  
HETATM   20  C   UNL     1      -6.662  14.203  67.599  1.00  0.00    -0.188 A  
ENDBRANCH   8  15
BRANCH   8  21
HETATM   21  C   UNL     1     -10.753  12.481  67.458  1.00  0.00    -0.250 C  
BRANCH  21  22
HETATM   22  C   UNL     1     -10.862  13.991  67.032  1.00  0.00    -0.290 C  
HETATM   23  C   UNL     1     -11.730  14.798  68.016  1.00  0.00    -0.360 C  
BRANCH  22  24
HETATM   24  N   UNL     1     -11.191  14.270  65.615  1.00  0.00    -0.307 NA 
HETATM   25  C   UNL     1     -12.611  14.085  65.284  1.00  0.00    -0.470 C  
HETATM   26  C   UNL     1     -10.815  15.628  65.182  1.00  0.00    -0.431 C  
ENDBRANCH  22  24
ENDBRANCH  21  22
ENDBRANCH   8  21
ENDBRANCH   3   8
ENDBRANCH   2   3
TORSDOF 9
ENDMDL
MODEL      159
REMARK 921   NORMALIZED FREE ENERGY PREDICTED BY IDOCK:   -3.90 KCAL/MOL
REMARK 922        TOTAL FREE ENERGY PREDICTED BY IDOCK:   -7.64 KCAL/MOL
REMARK 923 INTER-LIGAND FREE ENERGY PREDICTED BY IDOCK:   -5.72 KCAL/MOL
REMARK 924 INTRA-LIGAND FREE ENERGY PREDICTED BY IDOCK:   -1.92 KCAL/MOL
REMARK 927      BINDING AFFINITY PREDICTED BY RF-SCORE:    0.00 PKD
ROOT
HETATM    1  C   UNL     1      -7.921  11.638  68.681  1.00  0.00    -0.127 C  
HETATM    2  C   UNL     1      -8.477  10.287  68.245  1.00  0.00    -0.121 C  
ENDROOT
BRANCH   2   3
HETATM    3  C   UNL     1      -8.422   9.240  69.376  1.00  0.00    -0.137 C  
BRANCH   3   4
HETATM    4  O   UNL     1      -7.505   8.187  68.943  1.00  0.00    -0.085 OA 
BRANCH   4   5
HETATM    5  C   UNL     1      -6.170   8.441  68.947  1.00  0.00    -0.044 C  
HETATM    6  C   UNL     1      -5.712   8.728  70.353  1.00  0.00    -0.027 C  
HETATM    7  O   UNL     1      -5.455   8.520  67.958  1.00  0.00    -0.034 OA 
ENDBRANCH   4   5
ENDBRANCH   3   4
BRANCH   3   8
HETATM    8  C   UNL     1      -9.850   8.597  69.754  1.00  0.00    -0.183 C  
BRANCH   8   9
HETATM    9  C   UNL     1      -9.825   8.241  71.282  1.00  0.00    -0.225 A  
HETATM   10  C   UNL     1     -10.860   7.570  71.958  1.00  0.00    -0.273 A  
HETATM   11  C   UNL     1     -10.731   7.184  73.302  1.00  0.00    -0.403 A  
HETATM   12  C   UNL     1      -9.601   7.528  74.034  1.00  0.00    -0.175 A  
HETATM   13  C   UNL     1      -8.588   8.242  73.416  1.00  0.00    -0.277 A  
HETATM   14  C   UNL     1      -8.691   8.562  72.059  1.00  0.00    -0.265 A  
ENDBRANCH   8   9
BRANCH   8  15
HETATM   15  C   UNL     1     -10.026   7.298  68.819  1.00  0.00    -0.167 A  
HETATM   16  C   UNL     1     -10.587   7.335  67.526  1.00  0.00    -0.344 A  
HETATM   17  C   UNL     1     -10.640   6.192  66.709  1.00  0.00    -0.351 A  
HETATM   18  C   UNL     1     -10.130   4.972  67.153  1.00  0.00    -0.239 A  
HETATM   19  C   UNL     1      -9.552   6.030  69.237  1.00  0.00    -0.162 A  
HETATM   20  C   UNL     1      -9.593   4.892  68.426  1.00  0.00    -0.201 A  
ENDBRANCH   8  15
BRANCH   8  21
HETATM   21  C   UNL     1     -11.074   9.603  69.459  1.00  0.00    -0.198 C  
BRANCH  21  22
HETATM   22  C   UNL     1     -11.583  10.808  70.333  1.00  0.00    -0.339 C  
HETATM   23  C   UNL     1     -12.937  10.497  70.997  1.00  0.00    -0.475 C  
BRANCH  22  24
HETATM   24  N   UNL     1     -11.544  12.153  69.713  1.00  0.00    -0.289 NA 
HETATM   25  C   UNL     1     -11.905  12.166  68.289  1.00  0.00    -0.301 C  
HETATM   26  C   UNL     1     -12.408  13.137  70.392  1.00  0.00    -0.279 C  
ENDBRANCH  22  24
ENDBRANCH  21  22
ENDBRANCH   8  21
ENDBRANCH   3   8
ENDBRANCH   2   3
TORSDOF 9
ENDMDL
MODEL      160
REMARK 921   NORMALIZED FREE ENERGY PREDICTED BY IDOCK:   -3.89 KCAL/MOL
REMARK 922        TOTAL FREE ENERGY PREDICTED BY IDOCK:   -7.63 KCAL/MOL
REMARK 923 INTER-LIGAND FREE ENERGY PREDICTED BY IDOCK:   -6.26 KCAL/MOL
REMARK 924 INTRA-LIGAND FREE ENERGY PREDICTED BY IDOCK:   -1.38 KCAL/MOL
REMARK 927      BINDING AFFINITY PREDICTED BY RF-SCORE:    0.00 PKD
ROOT
HETATM    1  C   UNL     1     -11.580  11.843  64.087  1.00  0.00    -0.434 C  
HETATM    2  C   UNL     1     -10.419  12.558  64.768  1.00  0.00    -0.336 C  
ENDROOT
BRANCH   2   3
HETATM    3  C   UNL     1      -9.887  11.778  65.988  1.00  0.00    -0.232 C  
BRANCH   3   4
HETATM    4  O   UNL     1     -10.598  10.501  66.025  1.00  0.00    -0.190 OA 
BRANCH   4   5
HETATM    5  C   UNL     1      -9.909   9.361  65.757  1.00  0.00    -0.275 C  
HETATM    6  C   UNL     1     -10.342   8.272  66.703  1.00  0.00    -0.293 C  
HETATM    7  O   UNL     1      -9.006   9.248  64.939  1.00  0.00    -0.200 OA 
ENDBRANCH   4   5
ENDBRANCH   3   4
BRANCH   3   8
HETATM    8  C   UNL     1     -10.069  12.543  67.395  1.00  0.00    -0.211 C  
BRANCH   8   9
HETATM    9  C   UNL     1      -9.053  13.739  67.424  1.00  0.00    -0.221 A  
HETATM   10  C   UNL     1      -8.964  14.728  66.429  1.00  0.00    -0.223 A  
HETATM   11  C   UNL     1      -8.107  15.833  66.566  1.00  0.00    -0.231 A  
HETATM   12  C   UNL     1      -7.256  15.939  67.659  1.00  0.00    -0.182 A  
HETATM   13  C   UNL     1      -7.274  14.950  68.628  1.00  0.00    -0.117 A  
HETATM   14  C   UNL     1      -8.179  13.890  68.522  1.00  0.00    -0.131 A  
ENDBRANCH   8   9
BRANCH   8  15
HETATM   15  C   UNL     1      -9.777  11.455  68.545  1.00  0.00    -0.199 A  
HETATM   16  C   UNL     1     -10.773  10.920  69.387  1.00  0.00    -0.265 A  
HETATM   17  C   UNL     1     -10.489   9.907  70.320  1.00  0.00    -0.348 A  
HETATM   18  C   UNL     1      -9.200   9.389  70.441  1.00  0.00    -0.305 A  
HETATM   19  C   UNL     1      -8.479  10.920  68.729  1.00  0.00    -0.150 A  
HETATM   20  C   UNL     1      -8.191   9.906  69.648  1.00  0.00    -0.178 A  
ENDBRANCH   8  15
BRANCH   8  21
HETATM   21  C   UNL     1     -11.566  13.107  67.598  1.00  0.00    -0.392 C  
BRANCH  21  22
HETATM   22  C   UNL     1     -12.050  14.287  68.518  1.00  0.00    -0.260 C  
HETATM   23  C   UNL     1     -11.897  15.651  67.820  1.00  0.00     0.094 C  
BRANCH  22  24
HETATM   24  N   UNL     1     -11.558  14.299  69.915  1.00  0.00    -0.274 NA 
HETATM   25  C   UNL     1     -10.901  15.553  70.306  1.00  0.00    -0.339 C  
HETATM   26  C   UNL     1     -12.613  14.029  70.910  1.00  0.00    -0.361 C  
ENDBRANCH  22  24
ENDBRANCH  21  22
ENDBRANCH   8  21
ENDBRANCH   3   8
ENDBRANCH   2   3
TORSDOF 9
ENDMDL
MODEL      161
REMARK 921   NORMALIZED FREE ENERGY PREDICTED BY IDOCK:   -3.88 KCAL/MOL
REMARK 922        TOTAL FREE ENERGY PREDICTED BY IDOCK:   -7.62 KCAL/MOL
REMARK 923 INTER-LIGAND FREE ENERGY PREDICTED BY IDOCK:   -7.96 KCAL/MOL
REMARK 924 INTRA-LIGAND FREE ENERGY PREDICTED BY IDOCK:    0.34 KCAL/MOL
REMARK 927      BINDING AFFINITY PREDICTED BY RF-SCORE:    0.00 PKD
ROOT
HETATM    1  C   UNL     1      -9.994  10.674  64.446  1.00  0.00    -0.415 C  
HETATM    2  C   UNL     1     -10.177  10.775  65.956  1.00  0.00    -0.310 C  
ENDROOT
BRANCH   2   3
HETATM    3  C   UNL     1     -11.266  11.797  66.345  1.00  0.00    -0.323 C  
BRANCH   3   4
HETATM    4  O   UNL     1     -11.311  12.802  65.285  1.00  0.00    -0.290 OA 
BRANCH   4   5
HETATM    5  C   UNL     1     -12.521  13.204  64.817  1.00  0.00    -0.402 C  
HETATM    6  C   UNL     1     -12.875  12.416  63.582  1.00  0.00    -0.359 C  
HETATM    7  O   UNL     1     -13.189  14.126  65.264  1.00  0.00    -0.760 OA 
ENDBRANCH   4   5
ENDBRANCH   3   4
BRANCH   3   8
HETATM    8  C   UNL     1     -11.021  12.516  67.767  1.00  0.00    -0.270 C  
BRANCH   8   9
HETATM    9  C   UNL     1      -9.727  13.394  67.643  1.00  0.00    -0.222 A  
HETATM   10  C   UNL     1      -8.533  13.151  68.343  1.00  0.00    -0.126 A  
HETATM   11  C   UNL     1      -7.375  13.909  68.108  1.00  0.00    -0.123 A  
HETATM   12  C   UNL     1      -7.397  14.984  67.227  1.00  0.00    -0.195 A  
HETATM   13  C   UNL     1      -8.574  15.290  66.565  1.00  0.00    -0.264 A  
HETATM   14  C   UNL     1      -9.704  14.488  66.750  1.00  0.00    -0.269 A  
ENDBRANCH   8   9
BRANCH   8  15
HETATM   15  C   UNL     1     -10.866  11.336  68.852  1.00  0.00    -0.253 A  
HETATM   16  C   UNL     1      -9.679  10.601  69.044  1.00  0.00    -0.214 A  
HETATM   17  C   UNL     1      -9.560   9.639  70.063  1.00  0.00    -0.281 A  
HETATM   18  C   UNL     1     -10.622   9.381  70.929  1.00  0.00    -0.390 A  
HETATM   19  C   UNL     1     -11.926  11.014  69.735  1.00  0.00    -0.428 A  
HETATM   20  C   UNL     1     -11.811  10.066  70.756  1.00  0.00    -0.435 A  
ENDBRANCH   8  15
BRANCH   8  21
HETATM   21  C   UNL     1     -12.261  13.448  68.205  1.00  0.00    -0.122 C  
BRANCH  21  22
HETATM   22  C   UNL     1     -12.312  14.543  69.333  1.00  0.00    -0.177 C  
HETATM   23  C   UNL     1     -11.716  15.880  68.854  1.00  0.00    -0.376 C  
BRANCH  22  24
HETATM   24  N   UNL     1     -11.832  14.149  70.677  1.00  0.00    -0.292 NA 
HETATM   25  C   UNL     1     -11.191  15.239  71.426  1.00  0.00    -0.308 C  
HETATM   26  C   UNL     1     -12.891  13.591  71.538  1.00  0.00    -0.352 C  
ENDBRANCH  22  24
ENDBRANCH  21  22
ENDBRANCH   8  21
ENDBRANCH   3   8
ENDBRANCH   2   3
TORSDOF 9
ENDMDL
MODEL      162
REMARK 921   NORMALIZED FREE ENERGY PREDICTED BY IDOCK:   -3.86 KCAL/MOL
REMARK 922        TOTAL FREE ENERGY PREDICTED BY IDOCK:   -7.58 KCAL/MOL
REMARK 923 INTER-LIGAND FREE ENERGY PREDICTED BY IDOCK:   -6.84 KCAL/MOL
REMARK 924 INTRA-LIGAND FREE ENERGY PREDICTED BY IDOCK:   -0.74 KCAL/MOL
REMARK 927      BINDING AFFINITY PREDICTED BY RF-SCORE:    0.00 PKD
ROOT
HETATM    1  C   UNL     1     -11.098  14.114  69.182  1.00  0.00    -0.295 C  
HETATM    2  C   UNL     1     -11.510  12.758  68.619  1.00  0.00    -0.341 C  
ENDROOT
BRANCH   2   3
HETATM    3  C   UNL     1     -10.814  12.448  67.278  1.00  0.00    -0.243 C  
BRANCH   3   4
HETATM    4  O   UNL     1     -11.863  12.330  66.267  1.00  0.00    -0.517 OA 
BRANCH   4   5
HETATM    5  C   UNL     1     -12.296  13.455  65.640  1.00  0.00    -0.470 C  
HETATM    6  C   UNL     1     -11.136  14.392  65.422  1.00  0.00    -0.331 C  
HETATM    7  O   UNL     1     -13.459  13.721  65.372  1.00  0.00    -0.620 OA 
ENDBRANCH   4   5
ENDBRANCH   3   4
BRANCH   3   8
HETATM    8  C   UNL     1      -9.918  11.109  67.292  1.00  0.00    -0.211 C  
BRANCH   8   9
HETATM    9  C   UNL     1      -8.635  11.401  68.146  1.00  0.00    -0.153 A  
HETATM   10  C   UNL     1      -7.920  12.611  68.117  1.00  0.00    -0.158 A  
HETATM   11  C   UNL     1      -6.843  12.850  68.986  1.00  0.00    -0.080 A  
HETATM   12  C   UNL     1      -6.396  11.859  69.851  1.00  0.00    -0.104 A  
HETATM   13  C   UNL     1      -7.039  10.633  69.864  1.00  0.00    -0.133 A  
HETATM   14  C   UNL     1      -8.154  10.425  69.047  1.00  0.00    -0.138 A  
ENDBRANCH   8   9
BRANCH   8  15
HETATM   15  C   UNL     1      -9.574  10.777  65.754  1.00  0.00    -0.254 A  
HETATM   16  C   UNL     1     -10.508  10.881  64.704  1.00  0.00    -0.384 A  
HETATM   17  C   UNL     1     -10.142  10.666  63.362  1.00  0.00    -0.266 A  
HETATM   18  C   UNL     1      -8.827  10.345  63.024  1.00  0.00    -0.222 A  
HETATM   19  C   UNL     1      -8.261  10.415  65.362  1.00  0.00    -0.159 A  
HETATM   20  C   UNL     1      -7.888  10.210  64.031  1.00  0.00    -0.149 A  
ENDBRANCH   8  15
BRANCH   8  21
HETATM   21  C   UNL     1     -10.704   9.849  67.919  1.00  0.00    -0.316 C  
BRANCH  21  22
HETATM   22  C   UNL     1     -10.211   8.363  68.069  1.00  0.00    -0.212 C  
HETATM   23  C   UNL     1     -10.427   7.559  66.773  1.00  0.00    -0.319 C  
BRANCH  22  24
HETATM   24  N   UNL     1     -10.645   7.628  69.279  1.00  0.00    -0.220 NA 
HETATM   25  C   UNL     1     -11.116   6.262  69.012  1.00  0.00    -0.378 C  
HETATM   26  C   UNL     1      -9.600   7.534  70.316  1.00  0.00    -0.165 C  
ENDBRANCH  22  24
ENDBRANCH  21  22
ENDBRANCH   8  21
ENDBRANCH   3   8
ENDBRANCH   2   3
TORSDOF 9
ENDMDL
MODEL      163
REMARK 921   NORMALIZED FREE ENERGY PREDICTED BY IDOCK:   -3.85 KCAL/MOL
REMARK 922        TOTAL FREE ENERGY PREDICTED BY IDOCK:   -7.56 KCAL/MOL
REMARK 923 INTER-LIGAND FREE ENERGY PREDICTED BY IDOCK:   -7.18 KCAL/MOL
REMARK 924 INTRA-LIGAND FREE ENERGY PREDICTED BY IDOCK:   -0.38 KCAL/MOL
REMARK 927      BINDING AFFINITY PREDICTED BY RF-SCORE:    0.00 PKD
ROOT
HETATM    1  C   UNL     1     -12.896  13.771  65.876  1.00  0.00    -0.369 C  
HETATM    2  C   UNL     1     -11.567  14.086  66.553  1.00  0.00    -0.389 C  
ENDROOT
BRANCH   2   3
HETATM    3  C   UNL     1     -11.455  13.438  67.949  1.00  0.00    -0.315 C  
BRANCH   3   4
HETATM    4  O   UNL     1     -10.828  14.422  68.830  1.00  0.00    -0.242 OA 
BRANCH   4   5
HETATM    5  C   UNL     1     -11.609  15.104  69.708  1.00  0.00    -0.311 C  
HETATM    6  C   UNL     1     -10.913  16.374  70.125  1.00  0.00    -0.291 C  
HETATM    7  O   UNL     1     -12.672  14.715  70.170  1.00  0.00    -0.314 OA 
ENDBRANCH   4   5
ENDBRANCH   3   4
BRANCH   3   8
HETATM    8  C   UNL     1     -10.611  12.066  67.976  1.00  0.00    -0.233 C  
BRANCH   8   9
HETATM    9  C   UNL     1     -11.067  11.249  69.236  1.00  0.00    -0.314 A  
HETATM   10  C   UNL     1     -12.268  11.471  69.933  1.00  0.00    -0.328 A  
HETATM   11  C   UNL     1     -12.671  10.635  70.988  1.00  0.00    -0.512 A  
HETATM   12  C   UNL     1     -11.850   9.605  71.430  1.00  0.00    -0.484 A  
HETATM   13  C   UNL     1     -10.632   9.396  70.805  1.00  0.00    -0.371 A  
HETATM   14  C   UNL     1     -10.268  10.186  69.711  1.00  0.00    -0.286 A  
ENDBRANCH   8   9
BRANCH   8  15
HETATM   15  C   UNL     1      -9.059  12.488  68.043  1.00  0.00    -0.200 A  
HETATM   16  C   UNL     1      -8.052  11.680  68.608  1.00  0.00    -0.121 A  
HETATM   17  C   UNL     1      -6.695  12.049  68.566  1.00  0.00    -0.066 A  
HETATM   18  C   UNL     1      -6.296  13.236  67.952  1.00  0.00    -0.144 A  
HETATM   19  C   UNL     1      -8.607  13.698  67.461  1.00  0.00    -0.197 A  
HETATM   20  C   UNL     1      -7.260  14.066  67.407  1.00  0.00    -0.117 A  
ENDBRANCH   8  15
BRANCH   8  21
HETATM   21  C   UNL     1     -10.839  11.177  66.651  1.00  0.00    -0.308 C  
BRANCH  21  22
HETATM   22  C   UNL     1      -9.878  10.991  65.420  1.00  0.00    -0.251 C  
HETATM   23  C   UNL     1     -10.596  11.283  64.089  1.00  0.00    -0.437 C  
BRANCH  22  24
HETATM   24  N   UNL     1      -9.072   9.749  65.376  1.00  0.00    -0.187 NA 
HETATM   25  C   UNL     1      -9.677   8.619  66.093  1.00  0.00    -0.222 C  
HETATM   26  C   UNL     1      -8.776   9.290  64.006  1.00  0.00    -0.171 C  
ENDBRANCH  22  24
ENDBRANCH  21  22
ENDBRANCH   8  21
ENDBRANCH   3   8
ENDBRANCH   2   3
TORSDOF 9
ENDMDL
MODEL      164
REMARK 921   NORMALIZED FREE ENERGY PREDICTED BY IDOCK:   -3.84 KCAL/MOL
REMARK 922        TOTAL FREE ENERGY PREDICTED BY IDOCK:   -7.56 KCAL/MOL
REMARK 923 INTER-LIGAND FREE ENERGY PREDICTED BY IDOCK:   -5.96 KCAL/MOL
REMARK 924 INTRA-LIGAND FREE ENERGY PREDICTED BY IDOCK:   -1.60 KCAL/MOL
REMARK 927      BINDING AFFINITY PREDICTED BY RF-SCORE:    0.00 PKD
ROOT
HETATM    1  C   UNL     1     -11.008   6.475  66.977  1.00  0.00    -0.466 C  
HETATM    2  C   UNL     1     -11.208   6.333  68.482  1.00  0.00    -0.305 C  
ENDROOT
BRANCH   2   3
HETATM    3  C   UNL     1      -9.869   6.267  69.246  1.00  0.00    -0.141 C  
BRANCH   3   4
HETATM    4  O   UNL     1      -9.759   4.920  69.804  1.00  0.00    -0.154 OA 
BRANCH   4   5
HETATM    5  C   UNL     1      -9.038   3.989  69.127  1.00  0.00    -0.136 C  
HETATM    6  C   UNL     1      -9.394   2.612  69.624  1.00  0.00    -0.184 C  
HETATM    7  O   UNL     1      -8.164   4.222  68.304  1.00  0.00    -0.088 OA 
ENDBRANCH   4   5
ENDBRANCH   3   4
BRANCH   3   8
HETATM    8  C   UNL     1      -9.723   7.358  70.422  1.00  0.00    -0.175 C  
BRANCH   8   9
HETATM    9  C   UNL     1     -11.167   7.804  70.843  1.00  0.00    -0.284 A  
HETATM   10  C   UNL     1     -12.221   6.917  71.126  1.00  0.00    -0.428 A  
HETATM   11  C   UNL     1     -13.460   7.375  71.602  1.00  0.00    -0.437 A  
HETATM   12  C   UNL     1     -13.711   8.736  71.732  1.00  0.00    -0.461 A  
HETATM   13  C   UNL     1     -12.716   9.641  71.404  1.00  0.00    -0.466 A  
HETATM   14  C   UNL     1     -11.461   9.177  70.998  1.00  0.00    -0.372 A  
ENDBRANCH   8   9
BRANCH   8  15
HETATM   15  C   UNL     1      -8.855   8.570  69.812  1.00  0.00    -0.137 A  
HETATM   16  C   UNL     1      -9.007   9.057  68.498  1.00  0.00    -0.133 A  
HETATM   17  C   UNL     1      -8.289  10.174  68.035  1.00  0.00    -0.117 A  
HETATM   18  C   UNL     1      -7.399  10.848  68.871  1.00  0.00    -0.111 A  
HETATM   19  C   UNL     1      -7.915   9.267  70.611  1.00  0.00    -0.189 A  
HETATM   20  C   UNL     1      -7.206  10.383  70.160  1.00  0.00    -0.093 A  
ENDBRANCH   8  15
BRANCH   8  21
HETATM   21  C   UNL     1      -8.947   6.775  71.709  1.00  0.00    -0.139 C  
BRANCH  21  22
HETATM   22  C   UNL     1      -9.454   6.670  73.194  1.00  0.00    -0.143 C  
HETATM   23  C   UNL     1      -8.918   7.825  74.060  1.00  0.00    -0.273 C  
BRANCH  22  24
HETATM   24  N   UNL     1      -9.330   5.351  73.856  1.00  0.00    -0.132 NA 
HETATM   25  C   UNL     1     -10.617   4.727  74.190  1.00  0.00    -0.296 C  
HETATM   26  C   UNL     1      -8.560   4.369  73.070  1.00  0.00    -0.101 C  
ENDBRANCH  22  24
ENDBRANCH  21  22
ENDBRANCH   8  21
ENDBRANCH   3   8
ENDBRANCH   2   3
TORSDOF 9
ENDMDL
MODEL      165
REMARK 921   NORMALIZED FREE ENERGY PREDICTED BY IDOCK:   -3.83 KCAL/MOL
REMARK 922        TOTAL FREE ENERGY PREDICTED BY IDOCK:   -7.53 KCAL/MOL
REMARK 923 INTER-LIGAND FREE ENERGY PREDICTED BY IDOCK:   -6.22 KCAL/MOL
REMARK 924 INTRA-LIGAND FREE ENERGY PREDICTED BY IDOCK:   -1.32 KCAL/MOL
REMARK 927      BINDING AFFINITY PREDICTED BY RF-SCORE:    0.00 PKD
ROOT
HETATM    1  C   UNL     1      -8.177  14.828  67.424  1.00  0.00    -0.216 C  
HETATM    2  C   UNL     1      -8.552  13.516  66.745  1.00  0.00    -0.043 C  
ENDROOT
BRANCH   2   3
HETATM    3  C   UNL     1      -9.102  12.478  67.746  1.00  0.00    -0.191 C  
BRANCH   3   4
HETATM    4  O   UNL     1      -8.018  11.539  68.030  1.00  0.00    -0.117 OA 
BRANCH   4   5
HETATM    5  C   UNL     1      -7.324  11.674  69.189  1.00  0.00    -0.032 C  
HETATM    6  C   UNL     1      -7.364  10.380  69.959  1.00  0.00    -0.121 C  
HETATM    7  O   UNL     1      -6.818  12.708  69.602  1.00  0.00     0.011 OA 
ENDBRANCH   4   5
ENDBRANCH   3   4
BRANCH   3   8
HETATM    8  C   UNL     1     -10.396  11.674  67.221  1.00  0.00    -0.232 C  
BRANCH   8   9
HETATM    9  C   UNL     1     -10.646  10.476  68.204  1.00  0.00    -0.240 A  
HETATM   10  C   UNL     1     -10.449   9.124  67.873  1.00  0.00    -0.293 A  
HETATM   11  C   UNL     1     -10.586   8.105  68.830  1.00  0.00    -0.161 A  
HETATM   12  C   UNL     1     -11.004   8.398  70.123  1.00  0.00    -0.216 A  
HETATM   13  C   UNL     1     -11.266   9.714  70.466  1.00  0.00    -0.359 A  
HETATM   14  C   UNL     1     -11.060  10.730  69.530  1.00  0.00    -0.334 A  
ENDBRANCH   8   9
BRANCH   8  15
HETATM   15  C   UNL     1     -10.053  11.185  65.726  1.00  0.00    -0.299 A  
HETATM   16  C   UNL     1      -9.163  10.132  65.432  1.00  0.00    -0.249 A  
HETATM   17  C   UNL     1      -8.959   9.680  64.116  1.00  0.00    -0.269 A  
HETATM   18  C   UNL     1      -9.641  10.261  63.047  1.00  0.00    -0.297 A  
HETATM   19  C   UNL     1     -10.696  11.764  64.604  1.00  0.00    -0.363 A  
HETATM   20  C   UNL     1     -10.505  11.313  63.295  1.00  0.00    -0.370 A  
ENDBRANCH   8  15
BRANCH   8  21
HETATM   21  C   UNL     1     -11.714  12.601  67.162  1.00  0.00    -0.438 C  
BRANCH  21  22
HETATM   22  C   UNL     1     -12.014  13.926  67.953  1.00  0.00    -0.358 C  
HETATM   23  C   UNL     1     -11.696  15.175  67.111  1.00  0.00    -0.141 C  
BRANCH  22  24
HETATM   24  N   UNL     1     -11.492  14.018  69.336  1.00  0.00    -0.276 NA 
HETATM   25  C   UNL     1     -10.785  15.273  69.626  1.00  0.00    -0.281 C  
HETATM   26  C   UNL     1     -12.534  13.855  70.368  1.00  0.00    -0.334 C  
ENDBRANCH  22  24
ENDBRANCH  21  22
ENDBRANCH   8  21
ENDBRANCH   3   8
ENDBRANCH   2   3
TORSDOF 9
ENDMDL
MODEL      166
REMARK 921   NORMALIZED FREE ENERGY PREDICTED BY IDOCK:   -3.83 KCAL/MOL
REMARK 922        TOTAL FREE ENERGY PREDICTED BY IDOCK:   -7.53 KCAL/MOL
REMARK 923 INTER-LIGAND FREE ENERGY PREDICTED BY IDOCK:   -6.26 KCAL/MOL
REMARK 924 INTRA-LIGAND FREE ENERGY PREDICTED BY IDOCK:   -1.27 KCAL/MOL
REMARK 927      BINDING AFFINITY PREDICTED BY RF-SCORE:    0.00 PKD
ROOT
HETATM    1  C   UNL     1     -10.090   5.010  71.558  1.00  0.00    -0.263 C  
HETATM    2  C   UNL     1     -10.675   5.850  70.428  1.00  0.00    -0.373 C  
ENDROOT
BRANCH   2   3
HETATM    3  C   UNL     1     -10.523   7.363  70.686  1.00  0.00    -0.215 C  
BRANCH   3   4
HETATM    4  O   UNL     1     -11.859   7.887  70.964  1.00  0.00    -0.291 OA 
BRANCH   4   5
HETATM    5  C   UNL     1     -12.158   8.273  72.233  1.00  0.00    -0.379 C  
HETATM    6  C   UNL     1     -13.268   9.292  72.204  1.00  0.00    -0.535 C  
HETATM    7  O   UNL     1     -11.564   7.927  73.243  1.00  0.00    -0.252 OA 
ENDBRANCH   4   5
ENDBRANCH   3   4
BRANCH   3   8
HETATM    8  C   UNL     1      -9.861   8.180  69.465  1.00  0.00    -0.181 C  
BRANCH   8   9
HETATM    9  C   UNL     1      -9.731   7.199  68.248  1.00  0.00    -0.148 A  
HETATM   10  C   UNL     1      -8.508   6.766  67.704  1.00  0.00    -0.122 A  
HETATM   11  C   UNL     1      -8.456   5.803  66.684  1.00  0.00    -0.113 A  
HETATM   12  C   UNL     1      -9.624   5.304  66.120  1.00  0.00    -0.176 A  
HETATM   13  C   UNL     1     -10.847   5.754  66.589  1.00  0.00    -0.290 A  
HETATM   14  C   UNL     1     -10.892   6.659  67.652  1.00  0.00    -0.393 A  
ENDBRANCH   8   9
BRANCH   8  15
HETATM   15  C   UNL     1      -8.433   8.706  69.991  1.00  0.00    -0.130 A  
HETATM   16  C   UNL     1      -7.818   9.888  69.533  1.00  0.00    -0.140 A  
HETATM   17  C   UNL     1      -6.611  10.357  70.084  1.00  0.00    -0.146 A  
HETATM   18  C   UNL     1      -5.980   9.663  71.116  1.00  0.00    -0.072 A  
HETATM   19  C   UNL     1      -7.737   8.020  71.017  1.00  0.00    -0.085 A  
HETATM   20  C   UNL     1      -6.543   8.485  71.575  1.00  0.00    -0.070 A  
ENDBRANCH   8  15
BRANCH   8  21
HETATM   21  C   UNL     1     -10.743   9.458  69.030  1.00  0.00    -0.209 C  
BRANCH  21  22
HETATM   22  C   UNL     1     -11.019  10.010  67.584  1.00  0.00    -0.234 C  
HETATM   23  C   UNL     1      -9.729  10.081  66.747  1.00  0.00    -0.239 C  
BRANCH  22  24
HETATM   24  N   UNL     1     -11.840  11.239  67.477  1.00  0.00    -0.604 NA 
HETATM   25  C   UNL     1     -11.925  12.011  68.725  1.00  0.00    -0.244 C  
HETATM   26  C   UNL     1     -11.380  12.162  66.423  1.00  0.00    -0.356 C  
ENDBRANCH  22  24
ENDBRANCH  21  22
ENDBRANCH   8  21
ENDBRANCH   3   8
ENDBRANCH   2   3
TORSDOF 9
ENDMDL
MODEL      167
REMARK 921   NORMALIZED FREE ENERGY PREDICTED BY IDOCK:   -3.83 KCAL/MOL
REMARK 922        TOTAL FREE ENERGY PREDICTED BY IDOCK:   -7.53 KCAL/MOL
REMARK 923 INTER-LIGAND FREE ENERGY PREDICTED BY IDOCK:   -6.59 KCAL/MOL
REMARK 924 INTRA-LIGAND FREE ENERGY PREDICTED BY IDOCK:   -0.94 KCAL/MOL
REMARK 927      BINDING AFFINITY PREDICTED BY RF-SCORE:    0.00 PKD
ROOT
HETATM    1  C   UNL     1      -8.441  16.200  66.179  1.00  0.00    -0.288 C  
HETATM    2  C   UNL     1      -8.330  15.069  67.195  1.00  0.00    -0.244 C  
ENDROOT
BRANCH   2   3
HETATM    3  C   UNL     1      -9.710  14.517  67.607  1.00  0.00    -0.215 C  
BRANCH   3   4
HETATM    4  O   UNL     1      -9.910  14.865  69.013  1.00  0.00    -0.219 OA 
BRANCH   4   5
HETATM    5  C   UNL     1     -10.816  15.828  69.325  1.00  0.00    -0.255 C  
HETATM    6  C   UNL     1     -11.337  15.601  70.721  1.00  0.00    -0.400 C  
HETATM    7  O   UNL     1     -11.225  16.697  68.568  1.00  0.00    -0.344 OA 
ENDBRANCH   4   5
ENDBRANCH   3   4
BRANCH   3   8
HETATM    8  C   UNL     1      -9.872  12.926  67.411  1.00  0.00    -0.207 C  
BRANCH   8   9
HETATM    9  C   UNL     1      -8.439  12.289  67.463  1.00  0.00    -0.172 A  
HETATM   10  C   UNL     1      -7.822  11.635  66.382  1.00  0.00     0.035 A  
HETATM   11  C   UNL     1      -6.495  11.181  66.458  1.00  0.00    -0.129 A  
HETATM   12  C   UNL     1      -5.773  11.293  67.640  1.00  0.00    -0.047 A  
HETATM   13  C   UNL     1      -6.371  11.878  68.743  1.00  0.00    -0.063 A  
HETATM   14  C   UNL     1      -7.667  12.391  68.641  1.00  0.00    -0.067 A  
ENDBRANCH   8   9
BRANCH   8  15
HETATM   15  C   UNL     1     -10.592  12.714  65.987  1.00  0.00    -0.294 A  
HETATM   16  C   UNL     1     -10.321  11.630  65.127  1.00  0.00    -0.326 A  
HETATM   17  C   UNL     1     -11.036  11.437  63.931  1.00  0.00    -0.410 A  
HETATM   18  C   UNL     1     -12.051  12.316  63.556  1.00  0.00    -0.649 A  
HETATM   19  C   UNL     1     -11.607  13.597  65.545  1.00  0.00    -0.337 A  
HETATM   20  C   UNL     1     -12.329  13.405  64.363  1.00  0.00    -0.399 A  
ENDBRANCH   8  15
BRANCH   8  21
HETATM   21  C   UNL     1     -10.796  12.257  68.551  1.00  0.00    -0.267 C  
BRANCH  21  22
HETATM   22  C   UNL     1     -11.245  10.756  68.691  1.00  0.00    -0.274 C  
HETATM   23  C   UNL     1     -12.023  10.516  69.998  1.00  0.00    -0.367 C  
BRANCH  22  24
HETATM   24  N   UNL     1     -10.219   9.719  68.435  1.00  0.00    -0.177 NA 
HETATM   25  C   UNL     1     -10.006   8.798  69.560  1.00  0.00    -0.195 C  
HETATM   26  C   UNL     1     -10.502   8.896  67.244  1.00  0.00    -0.277 C  
ENDBRANCH  22  24
ENDBRANCH  21  22
ENDBRANCH   8  21
ENDBRANCH   3   8
ENDBRANCH   2   3
TORSDOF 9
ENDMDL
MODEL      168
REMARK 921   NORMALIZED FREE ENERGY PREDICTED BY IDOCK:   -3.81 KCAL/MOL
REMARK 922        TOTAL FREE ENERGY PREDICTED BY IDOCK:   -7.51 KCAL/MOL
REMARK 923 INTER-LIGAND FREE ENERGY PREDICTED BY IDOCK:   -6.93 KCAL/MOL
REMARK 924 INTRA-LIGAND FREE ENERGY PREDICTED BY IDOCK:   -0.58 KCAL/MOL
REMARK 927      BINDING AFFINITY PREDICTED BY RF-SCORE:    0.00 PKD
ROOT
HETATM    1  C   UNL     1      -6.873  11.172  66.141  1.00  0.00    -0.004 C  
HETATM    2  C   UNL     1      -7.836  11.254  67.320  1.00  0.00    -0.141 C  
ENDROOT
BRANCH   2   3
HETATM    3  C   UNL     1      -8.708  12.526  67.274  1.00  0.00    -0.193 C  
BRANCH   3   4
HETATM    4  O   UNL     1      -8.277  13.382  68.378  1.00  0.00    -0.153 OA 
BRANCH   4   5
HETATM    5  C   UNL     1      -7.174  14.158  68.211  1.00  0.00    -0.116 C  
HETATM    6  C   UNL     1      -6.586  14.499  69.556  1.00  0.00    -0.143 C  
HETATM    7  O   UNL     1      -6.763  14.596  67.147  1.00  0.00    -0.233 OA 
ENDBRANCH   4   5
ENDBRANCH   3   4
BRANCH   3   8
HETATM    8  C   UNL     1     -10.291  12.248  67.386  1.00  0.00    -0.219 C  
BRANCH   8   9
HETATM    9  C   UNL     1     -10.487  10.909  68.181  1.00  0.00    -0.211 A  
HETATM   10  C   UNL     1     -10.328   9.627  67.628  1.00  0.00    -0.290 A  
HETATM   11  C   UNL     1     -10.411   8.469  68.418  1.00  0.00    -0.241 A  
HETATM   12  C   UNL     1     -10.735   8.553  69.767  1.00  0.00    -0.213 A  
HETATM   13  C   UNL     1     -10.959   9.797  70.332  1.00  0.00    -0.371 A  
HETATM   14  C   UNL     1     -10.805  10.950  69.556  1.00  0.00    -0.286 A  
ENDBRANCH   8   9
BRANCH   8  15
HETATM   15  C   UNL     1     -10.844  12.156  65.877  1.00  0.00    -0.316 A  
HETATM   16  C   UNL     1     -10.100  11.630  64.801  1.00  0.00    -0.304 A  
HETATM   17  C   UNL     1     -10.653  11.488  63.516  1.00  0.00    -0.487 A  
HETATM   18  C   UNL     1     -11.973  11.862  63.262  1.00  0.00    -0.441 A  
HETATM   19  C   UNL     1     -12.167  12.552  65.560  1.00  0.00    -0.442 A  
HETATM   20  C   UNL     1     -12.726  12.405  64.287  1.00  0.00    -0.437 A  
ENDBRANCH   8  15
BRANCH   8  21
HETATM   21  C   UNL     1     -11.072  13.438  68.141  1.00  0.00    -0.284 C  
BRANCH  21  22
HETATM   22  C   UNL     1     -10.475  14.723  68.823  1.00  0.00    -0.250 C  
HETATM   23  C   UNL     1     -11.259  15.111  70.090  1.00  0.00    -0.299 C  
BRANCH  22  24
HETATM   24  N   UNL     1     -10.194  15.883  67.945  1.00  0.00    -0.246 NA 
HETATM   25  C   UNL     1     -10.680  15.722  66.568  1.00  0.00    -0.283 C  
HETATM   26  C   UNL     1     -10.743  17.153  68.457  1.00  0.00    -0.326 C  
ENDBRANCH  22  24
ENDBRANCH  21  22
ENDBRANCH   8  21
ENDBRANCH   3   8
ENDBRANCH   2   3
TORSDOF 9
ENDMDL
MODEL      169
REMARK 921   NORMALIZED FREE ENERGY PREDICTED BY IDOCK:   -3.81 KCAL/MOL
REMARK 922        TOTAL FREE ENERGY PREDICTED BY IDOCK:   -7.51 KCAL/MOL
REMARK 923 INTER-LIGAND FREE ENERGY PREDICTED BY IDOCK:   -6.19 KCAL/MOL
REMARK 924 INTRA-LIGAND FREE ENERGY PREDICTED BY IDOCK:   -1.31 KCAL/MOL
REMARK 927      BINDING AFFINITY PREDICTED BY RF-SCORE:    0.00 PKD
ROOT
HETATM    1  C   UNL     1     -12.941  10.643  70.734  1.00  0.00    -0.396 C  
HETATM    2  C   UNL     1     -11.869  11.443  70.002  1.00  0.00    -0.440 C  
ENDROOT
BRANCH   2   3
HETATM    3  C   UNL     1     -10.913  10.539  69.198  1.00  0.00    -0.240 C  
BRANCH   3   4
HETATM    4  O   UNL     1      -9.738  10.303  70.036  1.00  0.00    -0.160 OA 
BRANCH   4   5
HETATM    5  C   UNL     1      -9.548   9.064  70.560  1.00  0.00    -0.219 C  
HETATM    6  C   UNL     1      -8.482   8.341  69.778  1.00  0.00    -0.128 C  
HETATM    7  O   UNL     1     -10.198   8.565  71.467  1.00  0.00    -0.208 OA 
ENDBRANCH   4   5
ENDBRANCH   3   4
BRANCH   3   8
HETATM    8  C   UNL     1     -10.457  11.153  67.780  1.00  0.00    -0.225 C  
BRANCH   8   9
HETATM    9  C   UNL     1      -9.744  10.012  66.972  1.00  0.00    -0.227 A  
HETATM   10  C   UNL     1      -8.523  10.165  66.292  1.00  0.00    -0.132 A  
HETATM   11  C   UNL     1      -7.882   9.077  65.677  1.00  0.00    -0.102 A  
HETATM   12  C   UNL     1      -8.480   7.823  65.653  1.00  0.00    -0.153 A  
HETATM   13  C   UNL     1      -9.713   7.651  66.260  1.00  0.00    -0.126 A  
HETATM   14  C   UNL     1     -10.312   8.720  66.931  1.00  0.00    -0.344 A  
ENDBRANCH   8   9
BRANCH   8  15
HETATM   15  C   UNL     1      -9.472  12.383  68.113  1.00  0.00    -0.214 A  
HETATM   16  C   UNL     1      -8.089  12.237  68.345  1.00  0.00    -0.151 A  
HETATM   17  C   UNL     1      -7.251  13.348  68.545  1.00  0.00    -0.110 A  
HETATM   18  C   UNL     1      -7.764  14.645  68.516  1.00  0.00    -0.126 A  
HETATM   19  C   UNL     1      -9.950  13.716  68.126  1.00  0.00    -0.246 A  
HETATM   20  C   UNL     1      -9.121  14.825  68.315  1.00  0.00    -0.183 A  
ENDBRANCH   8  15
BRANCH   8  21
HETATM   21  C   UNL     1     -11.702  11.717  66.925  1.00  0.00    -0.133 C  
BRANCH  21  22
HETATM   22  C   UNL     1     -11.678  12.506  65.565  1.00  0.00    -0.409 C  
HETATM   23  C   UNL     1     -12.660  13.692  65.579  1.00  0.00    -0.541 C  
BRANCH  22  24
HETATM   24  N   UNL     1     -11.761  11.707  64.321  1.00  0.00    -0.235 NA 
HETATM   25  C   UNL     1     -12.656  12.276  63.303  1.00  0.00    -0.318 C  
HETATM   26  C   UNL     1     -10.452  11.486  63.677  1.00  0.00    -0.427 C  
ENDBRANCH  22  24
ENDBRANCH  21  22
ENDBRANCH   8  21
ENDBRANCH   3   8
ENDBRANCH   2   3
TORSDOF 9
ENDMDL
MODEL      170
REMARK 921   NORMALIZED FREE ENERGY PREDICTED BY IDOCK:   -3.81 KCAL/MOL
REMARK 922        TOTAL FREE ENERGY PREDICTED BY IDOCK:   -7.50 KCAL/MOL
REMARK 923 INTER-LIGAND FREE ENERGY PREDICTED BY IDOCK:   -5.75 KCAL/MOL
REMARK 924 INTRA-LIGAND FREE ENERGY PREDICTED BY IDOCK:   -1.75 KCAL/MOL
REMARK 927      BINDING AFFINITY PREDICTED BY RF-SCORE:    0.00 PKD
ROOT
HETATM    1  C   UNL     1     -10.315   7.941  67.370  1.00  0.00    -0.349 C  
HETATM    2  C   UNL     1     -10.520   9.161  66.479  1.00  0.00    -0.197 C  
ENDROOT
BRANCH   2   3
HETATM    3  C   UNL     1     -10.171  10.478  67.203  1.00  0.00    -0.223 C  
BRANCH   3   4
HETATM    4  O   UNL     1     -11.434  11.116  67.569  1.00  0.00    -0.447 OA 
BRANCH   4   5
HETATM    5  C   UNL     1     -11.737  11.257  68.886  1.00  0.00    -0.341 C  
HETATM    6  C   UNL     1     -11.824  12.721  69.233  1.00  0.00    -0.358 C  
HETATM    7  O   UNL     1     -11.836  10.348  69.697  1.00  0.00    -0.241 OA 
ENDBRANCH   4   5
ENDBRANCH   3   4
BRANCH   3   8
HETATM    8  C   UNL     1      -9.278  11.497  66.330  1.00  0.00    -0.222 C  
BRANCH   8   9
HETATM    9  C   UNL     1      -8.289  12.225  67.307  1.00  0.00    -0.182 A  
HETATM   10  C   UNL     1      -7.797  13.527  67.113  1.00  0.00    -0.025 A  
HETATM   11  C   UNL     1      -7.001  14.164  68.079  1.00  0.00    -0.149 A  
HETATM   12  C   UNL     1      -6.604  13.490  69.227  1.00  0.00    -0.103 A  
HETATM   13  C   UNL     1      -7.020  12.183  69.422  1.00  0.00     0.043 A  
HETATM   14  C   UNL     1      -7.871  11.580  68.491  1.00  0.00    -0.140 A  
ENDBRANCH   8   9
BRANCH   8  15
HETATM   15  C   UNL     1     -10.309  12.513  65.623  1.00  0.00    -0.294 A  
HETATM   16  C   UNL     1     -10.536  13.831  66.067  1.00  0.00    -0.297 A  
HETATM   17  C   UNL     1     -11.379  14.713  65.368  1.00  0.00    -0.344 A  
HETATM   18  C   UNL     1     -12.021  14.310  64.197  1.00  0.00    -0.401 A  
HETATM   19  C   UNL     1     -11.009  12.141  64.449  1.00  0.00    -0.375 A  
HETATM   20  C   UNL     1     -11.841  13.015  63.744  1.00  0.00    -0.566 A  
ENDBRANCH   8  15
BRANCH   8  21
HETATM   21  C   UNL     1      -8.437  10.745  65.179  1.00  0.00    -0.102 C  
BRANCH  21  22
HETATM   22  C   UNL     1      -7.172   9.824  65.334  1.00  0.00    -0.114 C  
HETATM   23  C   UNL     1      -5.877  10.569  64.961  1.00  0.00    -0.115 C  
BRANCH  22  24
HETATM   24  N   UNL     1      -7.247   8.470  64.738  1.00  0.00    -0.083 NA 
HETATM   25  C   UNL     1      -6.990   8.439  63.291  1.00  0.00    -0.089 C  
HETATM   26  C   UNL     1      -6.330   7.501  65.365  1.00  0.00    -0.038 C  
ENDBRANCH  22  24
ENDBRANCH  21  22
ENDBRANCH   8  21
ENDBRANCH   3   8
ENDBRANCH   2   3
TORSDOF 9
ENDMDL
MODEL      171
REMARK 921   NORMALIZED FREE ENERGY PREDICTED BY IDOCK:   -3.79 KCAL/MOL
REMARK 922        TOTAL FREE ENERGY PREDICTED BY IDOCK:   -7.48 KCAL/MOL
REMARK 923 INTER-LIGAND FREE ENERGY PREDICTED BY IDOCK:   -6.26 KCAL/MOL
REMARK 924 INTRA-LIGAND FREE ENERGY PREDICTED BY IDOCK:   -1.22 KCAL/MOL
REMARK 927      BINDING AFFINITY PREDICTED BY RF-SCORE:    0.00 PKD
ROOT
HETATM    1  C   UNL     1     -10.634  11.618  64.499  1.00  0.00    -0.373 C  
HETATM    2  C   UNL     1      -9.927  12.646  65.376  1.00  0.00    -0.230 C  
ENDROOT
BRANCH   2   3
HETATM    3  C   UNL     1     -10.914  13.437  66.259  1.00  0.00    -0.288 C  
BRANCH   3   4
HETATM    4  O   UNL     1     -10.992  14.790  65.710  1.00  0.00    -0.315 OA 
BRANCH   4   5
HETATM    5  C   UNL     1     -12.020  15.099  64.877  1.00  0.00    -0.185 C  
HETATM    6  C   UNL     1     -13.137  14.104  65.059  1.00  0.00     0.044 C  
HETATM    7  O   UNL     1     -12.016  15.987  64.037  1.00  0.00    -0.796 OA 
ENDBRANCH   4   5
ENDBRANCH   3   4
BRANCH   3   8
HETATM    8  C   UNL     1     -10.504  13.504  67.816  1.00  0.00    -0.242 C  
BRANCH   8   9
HETATM    9  C   UNL     1      -9.589  14.762  68.016  1.00  0.00    -0.209 A  
HETATM   10  C   UNL     1      -9.979  15.926  68.702  1.00  0.00    -0.214 A  
HETATM   11  C   UNL     1      -9.077  16.976  68.940  1.00  0.00    -0.208 A  
HETATM   12  C   UNL     1      -7.785  16.931  68.432  1.00  0.00    -0.219 A  
HETATM   13  C   UNL     1      -7.386  15.826  67.699  1.00  0.00    -0.187 A  
HETATM   14  C   UNL     1      -8.265  14.753  67.525  1.00  0.00    -0.201 A  
ENDBRANCH   8   9
BRANCH   8  15
HETATM   15  C   UNL     1      -9.739  12.125  68.143  1.00  0.00    -0.208 A  
HETATM   16  C   UNL     1      -8.404  12.058  68.589  1.00  0.00    -0.036 A  
HETATM   17  C   UNL     1      -7.803  10.837  68.948  1.00  0.00    -0.136 A  
HETATM   18  C   UNL     1      -8.518   9.642  68.879  1.00  0.00    -0.125 A  
HETATM   19  C   UNL     1     -10.412  10.881  68.059  1.00  0.00    -0.222 A  
HETATM   20  C   UNL     1      -9.824   9.666  68.423  1.00  0.00    -0.170 A  
ENDBRANCH   8  15
BRANCH   8  21
HETATM   21  C   UNL     1     -11.787  13.615  68.785  1.00  0.00    -0.395 C  
BRANCH  21  22
HETATM   22  C   UNL     1     -11.868  13.363  70.335  1.00  0.00    -0.208 C  
HETATM   23  C   UNL     1     -12.632  12.066  70.661  1.00  0.00    -0.255 C  
BRANCH  22  24
HETATM   24  N   UNL     1     -12.285  14.503  71.183  1.00  0.00    -0.327 NA 
HETATM   25  C   UNL     1     -13.250  15.405  70.539  1.00  0.00    -0.208 C  
HETATM   26  C   UNL     1     -12.867  14.092  72.474  1.00  0.00    -0.343 C  
ENDBRANCH  22  24
ENDBRANCH  21  22
ENDBRANCH   8  21
ENDBRANCH   3   8
ENDBRANCH   2   3
TORSDOF 9
ENDMDL
MODEL      172
REMARK 921   NORMALIZED FREE ENERGY PREDICTED BY IDOCK:   -3.79 KCAL/MOL
REMARK 922        TOTAL FREE ENERGY PREDICTED BY IDOCK:   -7.48 KCAL/MOL
REMARK 923 INTER-LIGAND FREE ENERGY PREDICTED BY IDOCK:   -5.56 KCAL/MOL
REMARK 924 INTRA-LIGAND FREE ENERGY PREDICTED BY IDOCK:   -1.92 KCAL/MOL
REMARK 927      BINDING AFFINITY PREDICTED BY RF-SCORE:    0.00 PKD
ROOT
HETATM    1  C   UNL     1      -8.161   8.216  72.209  1.00  0.00    -0.186 C  
HETATM    2  C   UNL     1      -8.049   7.601  70.819  1.00  0.00    -0.103 C  
ENDROOT
BRANCH   2   3
HETATM    3  C   UNL     1      -8.131   8.663  69.702  1.00  0.00    -0.112 C  
BRANCH   3   4
HETATM    4  O   UNL     1      -8.002   9.970  70.342  1.00  0.00    -0.204 OA 
BRANCH   4   5
HETATM    5  C   UNL     1      -7.061  10.835  69.879  1.00  0.00    -0.093 C  
HETATM    6  C   UNL     1      -5.732  10.529  70.521  1.00  0.00    -0.097 C  
HETATM    7  O   UNL     1      -7.266  11.778  69.130  1.00  0.00    -0.105 OA 
ENDBRANCH   4   5
ENDBRANCH   3   4
BRANCH   3   8
HETATM    8  C   UNL     1      -9.490   8.611  68.838  1.00  0.00    -0.146 C  
BRANCH   8   9
HETATM    9  C   UNL     1      -9.138   9.034  67.368  1.00  0.00    -0.146 A  
HETATM   10  C   UNL     1     -10.090   9.376  66.392  1.00  0.00    -0.332 A  
HETATM   11  C   UNL     1      -9.708   9.850  65.127  1.00  0.00    -0.376 A  
HETATM   12  C   UNL     1      -8.367   9.919  64.770  1.00  0.00    -0.163 A  
HETATM   13  C   UNL     1      -7.404   9.532  65.687  1.00  0.00    -0.094 A  
HETATM   14  C   UNL     1      -7.787   9.128  66.969  1.00  0.00    -0.102 A  
ENDBRANCH   8   9
BRANCH   8  15
HETATM   15  C   UNL     1     -10.517   9.629  69.545  1.00  0.00    -0.240 A  
HETATM   16  C   UNL     1     -10.744  10.947  69.100  1.00  0.00    -0.265 A  
HETATM   17  C   UNL     1     -11.715  11.773  69.694  1.00  0.00    -0.413 A  
HETATM   18  C   UNL     1     -12.498  11.308  70.751  1.00  0.00    -0.471 A  
HETATM   19  C   UNL     1     -11.314   9.216  70.642  1.00  0.00    -0.323 A  
HETATM   20  C   UNL     1     -12.287  10.028  71.230  1.00  0.00    -0.496 A  
ENDBRANCH   8  15
BRANCH   8  21
HETATM   21  C   UNL     1     -10.156   7.143  68.828  1.00  0.00    -0.175 C  
BRANCH  21  22
HETATM   22  C   UNL     1      -9.697   5.865  68.034  1.00  0.00    -0.119 C  
HETATM   23  C   UNL     1     -10.681   5.515  66.903  1.00  0.00    -0.310 C  
BRANCH  22  24
HETATM   24  N   UNL     1      -9.297   4.684  68.832  1.00  0.00    -0.130 NA 
HETATM   25  C   UNL     1     -10.016   4.551  70.106  1.00  0.00    -0.208 C  
HETATM   26  C   UNL     1      -9.451   3.407  68.109  1.00  0.00    -0.151 C  
ENDBRANCH  22  24
ENDBRANCH  21  22
ENDBRANCH   8  21
ENDBRANCH   3   8
ENDBRANCH   2   3
TORSDOF 9
ENDMDL
MODEL      173
REMARK 921   NORMALIZED FREE ENERGY PREDICTED BY IDOCK:   -3.77 KCAL/MOL
REMARK 922        TOTAL FREE ENERGY PREDICTED BY IDOCK:   -7.44 KCAL/MOL
REMARK 923 INTER-LIGAND FREE ENERGY PREDICTED BY IDOCK:   -5.62 KCAL/MOL
REMARK 924 INTRA-LIGAND FREE ENERGY PREDICTED BY IDOCK:   -1.81 KCAL/MOL
REMARK 927      BINDING AFFINITY PREDICTED BY RF-SCORE:    0.00 PKD
ROOT
HETATM    1  C   UNL     1     -11.022   6.603  67.520  1.00  0.00    -0.416 C  
HETATM    2  C   UNL     1     -11.271   6.551  69.024  1.00  0.00    -0.354 C  
ENDROOT
BRANCH   2   3
HETATM    3  C   UNL     1      -9.975   6.300  69.822  1.00  0.00    -0.168 C  
BRANCH   3   4
HETATM    4  O   UNL     1     -10.198   5.110  70.641  1.00  0.00    -0.237 OA 
BRANCH   4   5
HETATM    5  C   UNL     1      -9.698   3.921  70.214  1.00  0.00    -0.175 C  
HETATM    6  C   UNL     1      -9.759   2.915  71.334  1.00  0.00    -0.222 C  
HETATM    7  O   UNL     1      -9.189   3.710  69.123  1.00  0.00    -0.131 OA 
ENDBRANCH   4   5
ENDBRANCH   3   4
BRANCH   3   8
HETATM    8  C   UNL     1      -9.526   7.531  70.760  1.00  0.00    -0.163 C  
BRANCH   8   9
HETATM    9  C   UNL     1     -10.805   8.383  71.075  1.00  0.00    -0.280 A  
HETATM   10  C   UNL     1     -11.119   9.604  70.452  1.00  0.00    -0.346 A  
HETATM   11  C   UNL     1     -12.333  10.265  70.700  1.00  0.00    -0.416 A  
HETATM   12  C   UNL     1     -13.232   9.771  71.637  1.00  0.00    -0.514 A  
HETATM   13  C   UNL     1     -12.927   8.602  72.314  1.00  0.00    -0.430 A  
HETATM   14  C   UNL     1     -11.750   7.911  72.012  1.00  0.00    -0.360 A  
ENDBRANCH   8   9
BRANCH   8  15
HETATM   15  C   UNL     1      -8.422   8.357  69.928  1.00  0.00    -0.126 A  
HETATM   16  C   UNL     1      -7.920   7.950  68.676  1.00  0.00    -0.124 A  
HETATM   17  C   UNL     1      -7.021   8.746  67.943  1.00  0.00    -0.078 A  
HETATM   18  C   UNL     1      -6.597   9.981  68.434  1.00  0.00    -0.054 A  
HETATM   19  C   UNL     1      -7.936   9.602  70.399  1.00  0.00    -0.191 A  
HETATM   20  C   UNL     1      -7.050  10.402  69.672  1.00  0.00    -0.135 A  
ENDBRANCH   8  15
BRANCH   8  21
HETATM   21  C   UNL     1      -8.857   7.039  72.141  1.00  0.00    -0.138 C  
BRANCH  21  22
HETATM   22  C   UNL     1      -7.343   6.740  72.443  1.00  0.00    -0.087 C  
HETATM   23  C   UNL     1      -7.053   5.227  72.451  1.00  0.00    -0.086 C  
BRANCH  22  24
HETATM   24  N   UNL     1      -6.733   7.446  73.593  1.00  0.00    -0.072 NA 
HETATM   25  C   UNL     1      -5.806   8.521  73.211  1.00  0.00    -0.093 C  
HETATM   26  C   UNL     1      -7.724   8.032  74.515  1.00  0.00    -0.227 C  
ENDBRANCH  22  24
ENDBRANCH  21  22
ENDBRANCH   8  21
ENDBRANCH   3   8
ENDBRANCH   2   3
TORSDOF 9
ENDMDL
MODEL      174
REMARK 921   NORMALIZED FREE ENERGY PREDICTED BY IDOCK:   -3.76 KCAL/MOL
REMARK 922        TOTAL FREE ENERGY PREDICTED BY IDOCK:   -7.43 KCAL/MOL
REMARK 923 INTER-LIGAND FREE ENERGY PREDICTED BY IDOCK:   -6.12 KCAL/MOL
REMARK 924 INTRA-LIGAND FREE ENERGY PREDICTED BY IDOCK:   -1.31 KCAL/MOL
REMARK 927      BINDING AFFINITY PREDICTED BY RF-SCORE:    0.00 PKD
ROOT
HETATM    1  C   UNL     1      -9.404   6.227  66.261  1.00  0.00    -0.155 C  
HETATM    2  C   UNL     1     -10.616   6.882  66.914  1.00  0.00    -0.372 C  
ENDROOT
BRANCH   2   3
HETATM    3  C   UNL     1     -10.354   8.357  67.284  1.00  0.00    -0.299 C  
BRANCH   3   4
HETATM    4  O   UNL     1      -9.378   8.873  66.326  1.00  0.00    -0.183 OA 
BRANCH   4   5
HETATM    5  C   UNL     1      -9.788   9.782  65.402  1.00  0.00    -0.295 C  
HETATM    6  C   UNL     1      -9.019   9.584  64.121  1.00  0.00    -0.240 C  
HETATM    7  O   UNL     1     -10.588  10.686  65.596  1.00  0.00    -0.204 OA 
ENDBRANCH   4   5
ENDBRANCH   3   4
BRANCH   3   8
HETATM    8  C   UNL     1      -9.812   8.576  68.786  1.00  0.00    -0.180 C  
BRANCH   8   9
HETATM    9  C   UNL     1      -9.777   7.176  69.491  1.00  0.00    -0.157 A  
HETATM   10  C   UNL     1      -8.601   6.460  69.777  1.00  0.00    -0.138 A  
HETATM   11  C   UNL     1      -8.629   5.261  70.508  1.00  0.00    -0.125 A  
HETATM   12  C   UNL     1      -9.837   4.699  70.903  1.00  0.00    -0.272 A  
HETATM   13  C   UNL     1     -11.019   5.346  70.585  1.00  0.00    -0.104 A  
HETATM   14  C   UNL     1     -10.981   6.575  69.919  1.00  0.00    -0.393 A  
ENDBRANCH   8   9
BRANCH   8  15
HETATM   15  C   UNL     1     -10.835   9.600  69.492  1.00  0.00    -0.253 A  
HETATM   16  C   UNL     1     -11.269   9.475  70.828  1.00  0.00    -0.383 A  
HETATM   17  C   UNL     1     -12.094  10.440  71.432  1.00  0.00    -0.424 A  
HETATM   18  C   UNL     1     -12.510  11.568  70.725  1.00  0.00    -0.444 A  
HETATM   19  C   UNL     1     -11.311  10.744  68.806  1.00  0.00    -0.352 A  
HETATM   20  C   UNL     1     -12.123  11.712  69.404  1.00  0.00    -0.328 A  
ENDBRANCH   8  15
BRANCH   8  21
HETATM   21  C   UNL     1      -8.338   9.229  68.818  1.00  0.00    -0.117 C  
BRANCH  21  22
HETATM   22  C   UNL     1      -7.905  10.643  69.353  1.00  0.00    -0.121 C  
HETATM   23  C   UNL     1      -7.799  11.674  68.214  1.00  0.00    -0.136 C  
BRANCH  22  24
HETATM   24  N   UNL     1      -6.749  10.688  70.278  1.00  0.00    -0.256 NA 
HETATM   25  C   UNL     1      -5.938   9.463  70.280  1.00  0.00    -0.040 C  
HETATM   26  C   UNL     1      -5.835  11.817  70.019  1.00  0.00    -0.148 C  
ENDBRANCH  22  24
ENDBRANCH  21  22
ENDBRANCH   8  21
ENDBRANCH   3   8
ENDBRANCH   2   3
TORSDOF 9
ENDMDL
MODEL      175
REMARK 921   NORMALIZED FREE ENERGY PREDICTED BY IDOCK:   -3.75 KCAL/MOL
REMARK 922        TOTAL FREE ENERGY PREDICTED BY IDOCK:   -7.41 KCAL/MOL
REMARK 923 INTER-LIGAND FREE ENERGY PREDICTED BY IDOCK:   -5.90 KCAL/MOL
REMARK 924 INTRA-LIGAND FREE ENERGY PREDICTED BY IDOCK:   -1.52 KCAL/MOL
REMARK 927      BINDING AFFINITY PREDICTED BY RF-SCORE:    0.00 PKD
ROOT
HETATM    1  C   UNL     1     -10.084   8.464  66.885  1.00  0.00    -0.364 C  
HETATM    2  C   UNL     1     -10.898   9.718  67.184  1.00  0.00    -0.207 C  
ENDROOT
BRANCH   2   3
HETATM    3  C   UNL     1     -10.278  10.981  66.550  1.00  0.00    -0.234 C  
BRANCH   3   4
HETATM    4  O   UNL     1      -9.318  10.529  65.544  1.00  0.00    -0.179 OA 
BRANCH   4   5
HETATM    5  C   UNL     1      -9.674  10.577  64.234  1.00  0.00    -0.330 C  
HETATM    6  C   UNL     1      -8.739   9.716  63.424  1.00  0.00    -0.237 C  
HETATM    7  O   UNL     1     -10.555  11.278  63.758  1.00  0.00    -0.355 OA 
ENDBRANCH   4   5
ENDBRANCH   3   4
BRANCH   3   8
HETATM    8  C   UNL     1      -9.547  11.959  67.601  1.00  0.00    -0.185 C  
BRANCH   8   9
HETATM    9  C   UNL     1      -9.623  13.418  67.029  1.00  0.00    -0.244 A  
HETATM   10  C   UNL     1      -8.885  14.506  67.528  1.00  0.00    -0.193 A  
HETATM   11  C   UNL     1      -8.916  15.763  66.904  1.00  0.00    -0.266 A  
HETATM   12  C   UNL     1      -9.746  15.995  65.814  1.00  0.00    -0.340 A  
HETATM   13  C   UNL     1     -10.534  14.962  65.334  1.00  0.00    -0.406 A  
HETATM   14  C   UNL     1     -10.446  13.694  65.915  1.00  0.00    -0.297 A  
ENDBRANCH   8   9
BRANCH   8  15
HETATM   15  C   UNL     1      -8.034  11.427  67.740  1.00  0.00    -0.119 A  
HETATM   16  C   UNL     1      -6.997  11.780  66.853  1.00  0.00    -0.101 A  
HETATM   17  C   UNL     1      -5.669  11.363  67.062  1.00  0.00    -0.106 A  
HETATM   18  C   UNL     1      -5.331  10.584  68.168  1.00  0.00    -0.033 A  
HETATM   19  C   UNL     1      -7.646  10.608  68.829  1.00  0.00    -0.109 A  
HETATM   20  C   UNL     1      -6.328  10.199  69.047  1.00  0.00    -0.044 A  
ENDBRANCH   8  15
BRANCH   8  21
HETATM   21  C   UNL     1     -10.235  11.919  69.059  1.00  0.00    -0.016 C  
BRANCH  21  22
HETATM   22  C   UNL     1     -11.742  12.160  69.437  1.00  0.00    -0.329 C  
HETATM   23  C   UNL     1     -12.140  13.639  69.271  1.00  0.00    -0.360 C  
BRANCH  22  24
HETATM   24  N   UNL     1     -12.218  11.578  70.713  1.00  0.00    -0.381 NA 
HETATM   25  C   UNL     1     -13.081  12.475  71.494  1.00  0.00    -0.277 C  
HETATM   26  C   UNL     1     -12.949  10.309  70.542  1.00  0.00    -0.186 C  
ENDBRANCH  22  24
ENDBRANCH  21  22
ENDBRANCH   8  21
ENDBRANCH   3   8
ENDBRANCH   2   3
TORSDOF 9
ENDMDL
MODEL      176
REMARK 921   NORMALIZED FREE ENERGY PREDICTED BY IDOCK:   -3.74 KCAL/MOL
REMARK 922        TOTAL FREE ENERGY PREDICTED BY IDOCK:   -7.40 KCAL/MOL
REMARK 923 INTER-LIGAND FREE ENERGY PREDICTED BY IDOCK:   -5.94 KCAL/MOL
REMARK 924 INTRA-LIGAND FREE ENERGY PREDICTED BY IDOCK:   -1.46 KCAL/MOL
REMARK 927      BINDING AFFINITY PREDICTED BY RF-SCORE:    0.00 PKD
ROOT
HETATM    1  C   UNL     1      -9.814   6.126  66.680  1.00  0.00    -0.202 C  
HETATM    2  C   UNL     1     -10.973   6.767  67.436  1.00  0.00    -0.407 C  
ENDROOT
BRANCH   2   3
HETATM    3  C   UNL     1     -10.534   8.020  68.222  1.00  0.00    -0.161 C  
BRANCH   3   4
HETATM    4  O   UNL     1      -9.260   8.458  67.657  1.00  0.00    -0.133 OA 
BRANCH   4   5
HETATM    5  C   UNL     1      -9.226   9.609  66.935  1.00  0.00    -0.143 C  
HETATM    6  C   UNL     1      -8.064  10.456  67.385  1.00  0.00    -0.107 C  
HETATM    7  O   UNL     1     -10.057   9.958  66.110  1.00  0.00    -0.250 OA 
ENDBRANCH   4   5
ENDBRANCH   3   4
BRANCH   3   8
HETATM    8  C   UNL     1     -10.375   7.784  69.809  1.00  0.00    -0.221 C  
BRANCH   8   9
HETATM    9  C   UNL     1     -11.353   8.769  70.540  1.00  0.00    -0.255 A  
HETATM   10  C   UNL     1     -12.109   8.438  71.678  1.00  0.00    -0.359 A  
HETATM   11  C   UNL     1     -12.884   9.396  72.350  1.00  0.00    -0.394 A  
HETATM   12  C   UNL     1     -12.992  10.692  71.860  1.00  0.00    -0.542 A  
HETATM   13  C   UNL     1     -12.309  11.037  70.706  1.00  0.00    -0.496 A  
HETATM   14  C   UNL     1     -11.483  10.098  70.081  1.00  0.00    -0.368 A  
ENDBRANCH   8   9
BRANCH   8  15
HETATM   15  C   UNL     1      -8.830   8.073  70.158  1.00  0.00    -0.143 A  
HETATM   16  C   UNL     1      -8.407   9.039  71.094  1.00  0.00    -0.212 A  
HETATM   17  C   UNL     1      -7.051   9.198  71.433  1.00  0.00    -0.025 A  
HETATM   18  C   UNL     1      -6.071   8.393  70.853  1.00  0.00    -0.034 A  
HETATM   19  C   UNL     1      -7.794   7.305  69.572  1.00  0.00    -0.118 A  
HETATM   20  C   UNL     1      -6.446   7.451  69.912  1.00  0.00    -0.035 A  
ENDBRANCH   8  15
BRANCH   8  21
HETATM   21  C   UNL     1     -10.718   6.269  70.242  1.00  0.00    -0.339 C  
BRANCH  21  22
HETATM   22  C   UNL     1      -9.726   5.122  70.659  1.00  0.00    -0.192 C  
HETATM   23  C   UNL     1      -9.753   3.955  69.655  1.00  0.00    -0.208 C  
BRANCH  22  24
HETATM   24  N   UNL     1      -9.776   4.668  72.068  1.00  0.00    -0.161 NA 
HETATM   25  C   UNL     1     -10.836   5.302  72.863  1.00  0.00    -0.270 C  
HETATM   26  C   UNL     1      -9.938   3.209  72.209  1.00  0.00    -0.166 C  
ENDBRANCH  22  24
ENDBRANCH  21  22
ENDBRANCH   8  21
ENDBRANCH   3   8
ENDBRANCH   2   3
TORSDOF 9
ENDMDL
MODEL      177
REMARK 921   NORMALIZED FREE ENERGY PREDICTED BY IDOCK:   -3.74 KCAL/MOL
REMARK 922        TOTAL FREE ENERGY PREDICTED BY IDOCK:   -7.39 KCAL/MOL
REMARK 923 INTER-LIGAND FREE ENERGY PREDICTED BY IDOCK:   -6.64 KCAL/MOL
REMARK 924 INTRA-LIGAND FREE ENERGY PREDICTED BY IDOCK:   -0.75 KCAL/MOL
REMARK 927      BINDING AFFINITY PREDICTED BY RF-SCORE:    0.00 PKD
ROOT
HETATM    1  C   UNL     1     -13.015  13.443  65.119  1.00  0.00    -0.249 C  
HETATM    2  C   UNL     1     -12.404  13.254  66.503  1.00  0.00    -0.311 C  
ENDROOT
BRANCH   2   3
HETATM    3  C   UNL     1     -10.872  13.082  66.447  1.00  0.00    -0.278 C  
BRANCH   3   4
HETATM    4  O   UNL     1     -10.607  11.665  66.209  1.00  0.00    -0.241 OA 
BRANCH   4   5
HETATM    5  C   UNL     1     -10.154  11.281  64.986  1.00  0.00    -0.279 C  
HETATM    6  C   UNL     1      -9.489   9.933  65.092  1.00  0.00    -0.338 C  
HETATM    7  O   UNL     1     -10.190  11.956  63.967  1.00  0.00    -0.306 OA 
ENDBRANCH   4   5
ENDBRANCH   3   4
BRANCH   3   8
HETATM    8  C   UNL     1     -10.102  13.565  67.778  1.00  0.00    -0.236 C  
BRANCH   8   9
HETATM    9  C   UNL     1      -8.749  12.776  67.860  1.00  0.00    -0.185 A  
HETATM   10  C   UNL     1      -7.508  13.281  67.434  1.00  0.00    -0.134 A  
HETATM   11  C   UNL     1      -6.315  12.568  67.633  1.00  0.00    -0.140 A  
HETATM   12  C   UNL     1      -6.335  11.294  68.189  1.00  0.00    -0.052 A  
HETATM   13  C   UNL     1      -7.547  10.740  68.564  1.00  0.00    -0.104 A  
HETATM   14  C   UNL     1      -8.723  11.483  68.428  1.00  0.00    -0.160 A  
ENDBRANCH   8   9
BRANCH   8  15
HETATM   15  C   UNL     1     -11.083  13.241  69.013  1.00  0.00    -0.291 A  
HETATM   16  C   UNL     1     -11.454  14.190  69.987  1.00  0.00    -0.258 A  
HETATM   17  C   UNL     1     -12.383  13.888  70.999  1.00  0.00    -0.453 A  
HETATM   18  C   UNL     1     -12.978  12.629  71.070  1.00  0.00    -0.156 A  
HETATM   19  C   UNL     1     -11.689  11.968  69.147  1.00  0.00    -0.389 A  
HETATM   20  C   UNL     1     -12.620  11.664  70.145  1.00  0.00    -0.106 A  
ENDBRANCH   8  15
BRANCH   8  21
HETATM   21  C   UNL     1      -9.799  15.148  67.772  1.00  0.00    -0.223 C  
BRANCH  21  22
HETATM   22  C   UNL     1     -10.654  16.306  67.138  1.00  0.00    -0.291 C  
HETATM   23  C   UNL     1     -10.399  16.436  65.625  1.00  0.00    -0.371 C  
BRANCH  22  24
HETATM   24  N   UNL     1     -10.642  17.613  67.836  1.00  0.00    -0.395 NA 
HETATM   25  C   UNL     1      -9.543  17.766  68.799  1.00  0.00    -0.290 C  
HETATM   26  C   UNL     1     -10.584  18.767  66.920  1.00  0.00    -0.409 C  
ENDBRANCH  22  24
ENDBRANCH  21  22
ENDBRANCH   8  21
ENDBRANCH   3   8
ENDBRANCH   2   3
TORSDOF 9
ENDMDL
MODEL      178
REMARK 921   NORMALIZED FREE ENERGY PREDICTED BY IDOCK:   -3.73 KCAL/MOL
REMARK 922        TOTAL FREE ENERGY PREDICTED BY IDOCK:   -7.39 KCAL/MOL
REMARK 923 INTER-LIGAND FREE ENERGY PREDICTED BY IDOCK:   -5.87 KCAL/MOL
REMARK 924 INTRA-LIGAND FREE ENERGY PREDICTED BY IDOCK:   -1.52 KCAL/MOL
REMARK 927      BINDING AFFINITY PREDICTED BY RF-SCORE:    0.00 PKD
ROOT
HETATM    1  C   UNL     1      -6.202   8.118  71.733  1.00  0.00    -0.045 C  
HETATM    2  C   UNL     1      -7.247   7.448  70.847  1.00  0.00    -0.068 C  
ENDROOT
BRANCH   2   3
HETATM    3  C   UNL     1      -8.685   7.703  71.345  1.00  0.00    -0.124 C  
BRANCH   3   4
HETATM    4  O   UNL     1      -8.942   6.749  72.422  1.00  0.00    -0.135 OA 
BRANCH   4   5
HETATM    5  C   UNL     1      -9.108   7.220  73.686  1.00  0.00    -0.205 C  
HETATM    6  C   UNL     1     -10.199   6.443  74.377  1.00  0.00    -0.343 C  
HETATM    7  O   UNL     1      -8.533   8.184  74.171  1.00  0.00    -0.262 OA 
ENDBRANCH   4   5
ENDBRANCH   3   4
BRANCH   3   8
HETATM    8  C   UNL     1      -9.816   7.557  70.207  1.00  0.00    -0.183 C  
BRANCH   8   9
HETATM    9  C   UNL     1     -11.210   7.806  70.882  1.00  0.00    -0.284 A  
HETATM   10  C   UNL     1     -11.534   8.950  71.632  1.00  0.00    -0.409 A  
HETATM   11  C   UNL     1     -12.833   9.165  72.121  1.00  0.00    -0.486 A  
HETATM   12  C   UNL     1     -13.824   8.207  71.946  1.00  0.00    -0.424 A  
HETATM   13  C   UNL     1     -13.523   7.040  71.265  1.00  0.00    -0.265 A  
HETATM   14  C   UNL     1     -12.248   6.863  70.720  1.00  0.00    -0.364 A  
ENDBRANCH   8   9
BRANCH   8  15
HETATM   15  C   UNL     1      -9.674   6.067  69.614  1.00  0.00    -0.188 A  
HETATM   16  C   UNL     1      -9.691   4.903  70.410  1.00  0.00    -0.284 A  
HETATM   17  C   UNL     1      -9.652   3.617  69.842  1.00  0.00    -0.238 A  
HETATM   18  C   UNL     1      -9.601   3.448  68.459  1.00  0.00    -0.138 A  
HETATM   19  C   UNL     1      -9.587   5.843  68.218  1.00  0.00    -0.134 A  
HETATM   20  C   UNL     1      -9.558   4.567  67.647  1.00  0.00    -0.207 A  
ENDBRANCH   8  15
BRANCH   8  21
HETATM   21  C   UNL     1      -9.611   8.605  68.999  1.00  0.00    -0.163 C  
BRANCH  21  22
HETATM   22  C   UNL     1      -9.705  10.174  69.039  1.00  0.00    -0.206 C  
HETATM   23  C   UNL     1     -11.066  10.675  68.522  1.00  0.00    -0.318 C  
BRANCH  22  24
HETATM   24  N   UNL     1      -8.563  10.932  68.476  1.00  0.00    -0.145 NA 
HETATM   25  C   UNL     1      -7.316  10.787  69.238  1.00  0.00    -0.129 C  
HETATM   26  C   UNL     1      -8.262  10.584  67.074  1.00  0.00    -0.125 C  
ENDBRANCH  22  24
ENDBRANCH  21  22
ENDBRANCH   8  21
ENDBRANCH   3   8
ENDBRANCH   2   3
TORSDOF 9
ENDMDL
MODEL      179
REMARK 921   NORMALIZED FREE ENERGY PREDICTED BY IDOCK:   -3.73 KCAL/MOL
REMARK 922        TOTAL FREE ENERGY PREDICTED BY IDOCK:   -7.39 KCAL/MOL
REMARK 923 INTER-LIGAND FREE ENERGY PREDICTED BY IDOCK:   -5.80 KCAL/MOL
REMARK 924 INTRA-LIGAND FREE ENERGY PREDICTED BY IDOCK:   -1.59 KCAL/MOL
REMARK 927      BINDING AFFINITY PREDICTED BY RF-SCORE:    0.00 PKD
ROOT
HETATM    1  C   UNL     1     -11.056   6.836  67.129  1.00  0.00    -0.404 C  
HETATM    2  C   UNL     1     -10.350   7.152  68.443  1.00  0.00    -0.220 C  
ENDROOT
BRANCH   2   3
HETATM    3  C   UNL     1      -9.237   8.206  68.269  1.00  0.00    -0.134 C  
BRANCH   3   4
HETATM    4  O   UNL     1      -7.964   7.531  68.511  1.00  0.00    -0.119 OA 
BRANCH   4   5
HETATM    5  C   UNL     1      -7.361   6.884  67.480  1.00  0.00    -0.096 C  
HETATM    6  C   UNL     1      -7.085   5.455  67.871  1.00  0.00    -0.067 C  
HETATM    7  O   UNL     1      -7.005   7.393  66.427  1.00  0.00    -0.066 OA 
ENDBRANCH   4   5
ENDBRANCH   3   4
BRANCH   3   8
HETATM    8  C   UNL     1      -9.374   9.480  69.246  1.00  0.00    -0.171 C  
BRANCH   8   9
HETATM    9  C   UNL     1     -10.074   8.999  70.565  1.00  0.00    -0.263 A  
HETATM   10  C   UNL     1     -11.452   9.109  70.818  1.00  0.00    -0.337 A  
HETATM   11  C   UNL     1     -12.034   8.561  71.973  1.00  0.00    -0.427 A  
HETATM   12  C   UNL     1     -11.246   7.960  72.947  1.00  0.00    -0.429 A  
HETATM   13  C   UNL     1      -9.876   7.888  72.759  1.00  0.00    -0.335 A  
HETATM   14  C   UNL     1      -9.312   8.372  71.575  1.00  0.00    -0.263 A  
ENDBRANCH   8   9
BRANCH   8  15
HETATM   15  C   UNL     1     -10.246  10.574  68.447  1.00  0.00    -0.192 A  
HETATM   16  C   UNL     1     -10.809  11.717  69.050  1.00  0.00    -0.247 A  
HETATM   17  C   UNL     1     -11.489  12.692  68.298  1.00  0.00    -0.356 A  
HETATM   18  C   UNL     1     -11.625  12.562  66.916  1.00  0.00    -0.436 A  
HETATM   19  C   UNL     1     -10.440  10.471  67.048  1.00  0.00    -0.304 A  
HETATM   20  C   UNL     1     -11.106  11.441  66.293  1.00  0.00    -0.281 A  
ENDBRANCH   8  15
BRANCH   8  21
HETATM   21  C   UNL     1      -7.945  10.135  69.605  1.00  0.00    -0.181 C  
BRANCH  21  22
HETATM   22  C   UNL     1      -6.733  10.425  68.647  1.00  0.00    -0.053 C  
HETATM   23  C   UNL     1      -5.439  10.701  69.436  1.00  0.00    -0.037 C  
BRANCH  22  24
HETATM   24  N   UNL     1      -6.956  11.398  67.553  1.00  0.00    -0.094 NA 
HETATM   25  C   UNL     1      -6.040  12.547  67.578  1.00  0.00    -0.154 C  
HETATM   26  C   UNL     1      -6.869  10.799  66.208  1.00  0.00    -0.135 C  
ENDBRANCH  22  24
ENDBRANCH  21  22
ENDBRANCH   8  21
ENDBRANCH   3   8
ENDBRANCH   2   3
TORSDOF 9
ENDMDL
MODEL      180
REMARK 921   NORMALIZED FREE ENERGY PREDICTED BY IDOCK:   -3.71 KCAL/MOL
REMARK 922        TOTAL FREE ENERGY PREDICTED BY IDOCK:   -7.34 KCAL/MOL
REMARK 923 INTER-LIGAND FREE ENERGY PREDICTED BY IDOCK:   -6.92 KCAL/MOL
REMARK 924 INTRA-LIGAND FREE ENERGY PREDICTED BY IDOCK:   -0.43 KCAL/MOL
REMARK 927      BINDING AFFINITY PREDICTED BY RF-SCORE:    0.00 PKD
ROOT
HETATM    1  C   UNL     1     -10.676  16.204  65.430  1.00  0.00    -0.374 C  
HETATM    2  C   UNL     1      -9.473  15.324  65.749  1.00  0.00    -0.310 C  
ENDROOT
BRANCH   2   3
HETATM    3  C   UNL     1      -9.885  13.884  66.118  1.00  0.00    -0.302 C  
BRANCH   3   4
HETATM    4  O   UNL     1     -11.340  13.810  66.003  1.00  0.00    -0.307 OA 
BRANCH   4   5
HETATM    5  C   UNL     1     -11.884  13.451  64.811  1.00  0.00    -0.380 C  
HETATM    6  C   UNL     1     -10.839  12.780  63.958  1.00  0.00    -0.458 C  
HETATM    7  O   UNL     1     -13.020  13.708  64.438  1.00  0.00    -0.546 OA 
ENDBRANCH   4   5
ENDBRANCH   3   4
BRANCH   3   8
HETATM    8  C   UNL     1      -9.430  13.423  67.594  1.00  0.00    -0.216 C  
BRANCH   8   9
HETATM    9  C   UNL     1      -9.471  11.855  67.639  1.00  0.00    -0.182 A  
HETATM   10  C   UNL     1      -9.370  11.092  68.815  1.00  0.00    -0.185 A  
HETATM   11  C   UNL     1      -9.522   9.696  68.802  1.00  0.00    -0.148 A  
HETATM   12  C   UNL     1      -9.698   9.013  67.605  1.00  0.00    -0.196 A  
HETATM   13  C   UNL     1      -9.741   9.728  66.419  1.00  0.00    -0.275 A  
HETATM   14  C   UNL     1      -9.660  11.123  66.446  1.00  0.00    -0.227 A  
ENDBRANCH   8   9
BRANCH   8  15
HETATM   15  C   UNL     1     -10.470  14.098  68.621  1.00  0.00    -0.250 A  
HETATM   16  C   UNL     1     -11.477  13.382  69.299  1.00  0.00    -0.345 A  
HETATM   17  C   UNL     1     -12.307  13.996  70.254  1.00  0.00    -0.425 A  
HETATM   18  C   UNL     1     -12.156  15.346  70.570  1.00  0.00    -0.411 A  
HETATM   19  C   UNL     1     -10.378  15.473  68.951  1.00  0.00    -0.221 A  
HETATM   20  C   UNL     1     -11.194  16.087  69.907  1.00  0.00    -0.361 A  
ENDBRANCH   8  15
BRANCH   8  21
HETATM   21  C   UNL     1      -7.946  13.930  67.966  1.00  0.00    -0.154 C  
BRANCH  21  22
HETATM   22  C   UNL     1      -7.396  14.408  69.360  1.00  0.00    -0.060 C  
HETATM   23  C   UNL     1      -6.994  15.894  69.332  1.00  0.00    -0.211 C  
BRANCH  22  24
HETATM   24  N   UNL     1      -6.380  13.551  70.013  1.00  0.00    -0.091 NA 
HETATM   25  C   UNL     1      -5.361  13.026  69.095  1.00  0.00    -0.070 C  
HETATM   26  C   UNL     1      -5.669  14.222  71.118  1.00  0.00    -0.210 C  
ENDBRANCH  22  24
ENDBRANCH  21  22
ENDBRANCH   8  21
ENDBRANCH   3   8
ENDBRANCH   2   3
TORSDOF 9
ENDMDL
MODEL      181
REMARK 921   NORMALIZED FREE ENERGY PREDICTED BY IDOCK:   -3.71 KCAL/MOL
REMARK 922        TOTAL FREE ENERGY PREDICTED BY IDOCK:   -7.34 KCAL/MOL
REMARK 923 INTER-LIGAND FREE ENERGY PREDICTED BY IDOCK:   -6.30 KCAL/MOL
REMARK 924 INTRA-LIGAND FREE ENERGY PREDICTED BY IDOCK:   -1.04 KCAL/MOL
REMARK 927      BINDING AFFINITY PREDICTED BY RF-SCORE:    0.00 PKD
ROOT
HETATM    1  C   UNL     1     -11.227  15.318  65.072  1.00  0.00    -0.409 C  
HETATM    2  C   UNL     1      -9.795  15.065  65.532  1.00  0.00    -0.352 C  
ENDROOT
BRANCH   2   3
HETATM    3  C   UNL     1      -9.582  15.445  67.012  1.00  0.00    -0.218 C  
BRANCH   3   4
HETATM    4  O   UNL     1     -10.884  15.842  67.546  1.00  0.00    -0.315 OA 
BRANCH   4   5
HETATM    5  C   UNL     1     -11.292  15.317  68.730  1.00  0.00    -0.308 C  
HETATM    6  C   UNL     1     -10.917  13.859  68.795  1.00  0.00    -0.286 C  
HETATM    7  O   UNL     1     -11.947  15.900  69.583  1.00  0.00    -0.335 OA 
ENDBRANCH   4   5
ENDBRANCH   3   4
BRANCH   3   8
HETATM    8  C   UNL     1      -8.514  16.629  67.245  1.00  0.00    -0.214 C  
BRANCH   8   9
HETATM    9  C   UNL     1      -7.584  16.207  68.436  1.00  0.00    -0.158 A  
HETATM   10  C   UNL     1      -7.497  14.901  68.950  1.00  0.00    -0.137 A  
HETATM   11  C   UNL     1      -6.566  14.564  69.946  1.00  0.00    -0.151 A  
HETATM   12  C   UNL     1      -5.752  15.536  70.515  1.00  0.00    -0.096 A  
HETATM   13  C   UNL     1      -5.854  16.845  70.075  1.00  0.00    -0.213 A  
HETATM   14  C   UNL     1      -6.732  17.161  69.035  1.00  0.00    -0.227 A  
ENDBRANCH   8   9
BRANCH   8  15
HETATM   15  C   UNL     1      -9.368  17.955  67.568  1.00  0.00    -0.253 A  
HETATM   16  C   UNL     1      -9.415  18.566  68.837  1.00  0.00    -0.277 A  
HETATM   17  C   UNL     1     -10.103  19.773  69.054  1.00  0.00    -0.427 A  
HETATM   18  C   UNL     1     -10.765  20.415  68.008  1.00  0.00     0.039 A  
HETATM   19  C   UNL     1     -10.083  18.628  66.546  1.00  0.00    -0.426 A  
HETATM   20  C   UNL     1     -10.761  19.832  66.753  1.00  0.00    -0.526 A  
ENDBRANCH   8  15
BRANCH   8  21
HETATM   21  C   UNL     1      -7.614  16.911  65.937  1.00  0.00     0.180 C  
BRANCH  21  22
HETATM   22  C   UNL     1      -6.552  18.047  65.706  1.00  0.00    -0.263 C  
HETATM   23  C   UNL     1      -5.171  17.656  66.266  1.00  0.00    -0.226 C  
BRANCH  22  24
HETATM   24  N   UNL     1      -6.949  19.426  66.071  1.00  0.00    -0.250 NA 
HETATM   25  C   UNL     1      -6.256  19.954  67.255  1.00  0.00    -0.184 C  
HETATM   26  C   UNL     1      -6.756  20.400  64.981  1.00  0.00    -0.270 C  
ENDBRANCH  22  24
ENDBRANCH  21  22
ENDBRANCH   8  21
ENDBRANCH   3   8
ENDBRANCH   2   3
TORSDOF 9
ENDMDL
MODEL      182
REMARK 921   NORMALIZED FREE ENERGY PREDICTED BY IDOCK:   -3.69 KCAL/MOL
REMARK 922        TOTAL FREE ENERGY PREDICTED BY IDOCK:   -7.33 KCAL/MOL
REMARK 923 INTER-LIGAND FREE ENERGY PREDICTED BY IDOCK:   -6.10 KCAL/MOL
REMARK 924 INTRA-LIGAND FREE ENERGY PREDICTED BY IDOCK:   -1.23 KCAL/MOL
REMARK 927      BINDING AFFINITY PREDICTED BY RF-SCORE:    0.00 PKD
ROOT
HETATM    1  C   UNL     1      -7.257   8.693  69.330  1.00  0.00    -0.063 C  
HETATM    2  C   UNL     1      -8.123   7.450  69.154  1.00  0.00    -0.120 C  
ENDROOT
BRANCH   2   3
HETATM    3  C   UNL     1      -8.747   6.981  70.484  1.00  0.00    -0.153 C  
BRANCH   3   4
HETATM    4  O   UNL     1      -7.819   6.022  71.080  1.00  0.00    -0.106 OA 
BRANCH   4   5
HETATM    5  C   UNL     1      -7.197   6.350  72.243  1.00  0.00    -0.087 C  
HETATM    6  C   UNL     1      -6.859   5.097  73.009  1.00  0.00    -0.074 C  
HETATM    7  O   UNL     1      -7.017   7.485  72.660  1.00  0.00    -0.066 OA 
ENDBRANCH   4   5
ENDBRANCH   3   4
BRANCH   3   8
HETATM    8  C   UNL     1     -10.203   6.306  70.331  1.00  0.00    -0.248 C  
BRANCH   8   9
HETATM    9  C   UNL     1     -10.351   5.227  71.460  1.00  0.00    -0.287 A  
HETATM   10  C   UNL     1      -9.998   3.874  71.316  1.00  0.00    -0.183 A  
HETATM   11  C   UNL     1     -10.053   2.981  72.399  1.00  0.00    -0.229 A  
HETATM   12  C   UNL     1     -10.541   3.392  73.633  1.00  0.00    -0.281 A  
HETATM   13  C   UNL     1     -10.956   4.703  73.793  1.00  0.00    -0.368 A  
HETATM   14  C   UNL     1     -10.832   5.605  72.733  1.00  0.00    -0.303 A  
ENDBRANCH   8   9
BRANCH   8  15
HETATM   15  C   UNL     1     -10.254   5.667  68.854  1.00  0.00    -0.279 A  
HETATM   16  C   UNL     1     -10.965   6.237  67.779  1.00  0.00    -0.427 A  
HETATM   17  C   UNL     1     -10.911   5.693  66.483  1.00  0.00    -0.239 A  
HETATM   18  C   UNL     1     -10.140   4.562  66.215  1.00  0.00    -0.280 A  
HETATM   19  C   UNL     1      -9.513   4.502  68.538  1.00  0.00    -0.213 A  
HETATM   20  C   UNL     1      -9.447   3.961  67.251  1.00  0.00    -0.235 A  
ENDBRANCH   8  15
BRANCH   8  21
HETATM   21  C   UNL     1     -11.395   7.383  70.459  1.00  0.00    -0.295 C  
BRANCH  21  22
HETATM   22  C   UNL     1     -11.396   8.757  71.225  1.00  0.00    -0.291 C  
HETATM   23  C   UNL     1     -12.542   8.835  72.249  1.00  0.00    -0.460 C  
BRANCH  22  24
HETATM   24  N   UNL     1     -11.273   9.985  70.406  1.00  0.00    -0.300 NA 
HETATM   25  C   UNL     1     -10.993   9.731  68.986  1.00  0.00    -0.163 C  
HETATM   26  C   UNL     1     -12.465  10.852  70.467  1.00  0.00    -0.351 C  
ENDBRANCH  22  24
ENDBRANCH  21  22
ENDBRANCH   8  21
ENDBRANCH   3   8
ENDBRANCH   2   3
TORSDOF 9
ENDMDL
MODEL      183
REMARK 921   NORMALIZED FREE ENERGY PREDICTED BY IDOCK:   -3.68 KCAL/MOL
REMARK 922        TOTAL FREE ENERGY PREDICTED BY IDOCK:   -7.31 KCAL/MOL
REMARK 923 INTER-LIGAND FREE ENERGY PREDICTED BY IDOCK:   -7.15 KCAL/MOL
REMARK 924 INTRA-LIGAND FREE ENERGY PREDICTED BY IDOCK:   -0.15 KCAL/MOL
REMARK 927      BINDING AFFINITY PREDICTED BY RF-SCORE:    0.00 PKD
ROOT
HETATM    1  C   UNL     1      -8.764  10.327  63.551  1.00  0.00    -0.210 C  
HETATM    2  C   UNL     1      -9.935  10.513  64.509  1.00  0.00    -0.413 C  
ENDROOT
BRANCH   2   3
HETATM    3  C   UNL     1      -9.530  10.279  65.979  1.00  0.00    -0.185 C  
BRANCH   3   4
HETATM    4  O   UNL     1     -10.376   9.203  66.492  1.00  0.00    -0.263 OA 
BRANCH   4   5
HETATM    5  C   UNL     1      -9.906   7.928  66.456  1.00  0.00    -0.202 C  
HETATM    6  C   UNL     1     -10.903   7.002  67.103  1.00  0.00    -0.427 C  
HETATM    7  O   UNL     1      -8.806   7.584  66.049  1.00  0.00    -0.162 OA 
ENDBRANCH   4   5
ENDBRANCH   3   4
BRANCH   3   8
HETATM    8  C   UNL     1      -9.671  11.579  66.920  1.00  0.00    -0.205 C  
BRANCH   8   9
HETATM    9  C   UNL     1     -10.341  11.126  68.265  1.00  0.00    -0.198 A  
HETATM   10  C   UNL     1      -9.804  10.159  69.132  1.00  0.00    -0.225 A  
HETATM   11  C   UNL     1     -10.395   9.875  70.373  1.00  0.00    -0.322 A  
HETATM   12  C   UNL     1     -11.584  10.488  70.749  1.00  0.00    -0.432 A  
HETATM   13  C   UNL     1     -12.174  11.401  69.892  1.00  0.00    -0.346 A  
HETATM   14  C   UNL     1     -11.543  11.732  68.689  1.00  0.00    -0.367 A  
ENDBRANCH   8   9
BRANCH   8  15
HETATM   15  C   UNL     1     -10.574  12.634  66.104  1.00  0.00    -0.280 A  
HETATM   16  C   UNL     1     -10.055  13.781  65.470  1.00  0.00    -0.303 A  
HETATM   17  C   UNL     1     -10.866  14.629  64.694  1.00  0.00    -0.332 A  
HETATM   18  C   UNL     1     -12.223  14.357  64.520  1.00  0.00    -0.483 A  
HETATM   19  C   UNL     1     -11.962  12.420  65.926  1.00  0.00    -0.434 A  
HETATM   20  C   UNL     1     -12.772  13.253  65.148  1.00  0.00    -0.464 A  
ENDBRANCH   8  15
BRANCH   8  21
HETATM   21  C   UNL     1      -8.248  12.267  67.236  1.00  0.00    -0.182 C  
BRANCH  21  22
HETATM   22  C   UNL     1      -7.944  13.767  67.599  1.00  0.00    -0.174 C  
HETATM   23  C   UNL     1      -6.437  14.075  67.528  1.00  0.00    -0.068 C  
BRANCH  22  24
HETATM   24  N   UNL     1      -8.582  14.306  68.822  1.00  0.00    -0.143 NA 
HETATM   25  C   UNL     1      -7.672  15.072  69.683  1.00  0.00    -0.115 C  
HETATM   26  C   UNL     1      -9.748  15.167  68.544  1.00  0.00    -0.214 C  
ENDBRANCH  22  24
ENDBRANCH  21  22
ENDBRANCH   8  21
ENDBRANCH   3   8
ENDBRANCH   2   3
TORSDOF 9
ENDMDL
MODEL      184
REMARK 921   NORMALIZED FREE ENERGY PREDICTED BY IDOCK:   -3.67 KCAL/MOL
REMARK 922        TOTAL FREE ENERGY PREDICTED BY IDOCK:   -7.30 KCAL/MOL
REMARK 923 INTER-LIGAND FREE ENERGY PREDICTED BY IDOCK:   -7.51 KCAL/MOL
REMARK 924 INTRA-LIGAND FREE ENERGY PREDICTED BY IDOCK:    0.21 KCAL/MOL
REMARK 927      BINDING AFFINITY PREDICTED BY RF-SCORE:    0.00 PKD
ROOT
HETATM    1  C   UNL     1      -7.812  15.056  67.823  1.00  0.00    -0.161 C  
HETATM    2  C   UNL     1      -8.436  13.839  67.149  1.00  0.00    -0.189 C  
ENDROOT
BRANCH   2   3
HETATM    3  C   UNL     1      -9.029  12.847  68.171  1.00  0.00    -0.202 C  
BRANCH   3   4
HETATM    4  O   UNL     1      -8.160  11.672  68.182  1.00  0.00    -0.132 OA 
BRANCH   4   5
HETATM    5  C   UNL     1      -7.257  11.536  69.188  1.00  0.00    -0.084 C  
HETATM    6  C   UNL     1      -7.442  10.200  69.859  1.00  0.00    -0.176 C  
HETATM    7  O   UNL     1      -6.472  12.395  69.564  1.00  0.00    -0.119 OA 
ENDBRANCH   4   5
ENDBRANCH   3   4
BRANCH   3   8
HETATM    8  C   UNL     1     -10.546  12.401  67.857  1.00  0.00    -0.231 C  
BRANCH   8   9
HETATM    9  C   UNL     1     -11.072  13.291  66.678  1.00  0.00    -0.311 A  
HETATM   10  C   UNL     1     -10.309  14.275  66.024  1.00  0.00    -0.318 A  
HETATM   11  C   UNL     1     -10.802  14.964  64.905  1.00  0.00    -0.431 A  
HETATM   12  C   UNL     1     -12.099  14.751  64.455  1.00  0.00    -0.457 A  
HETATM   13  C   UNL     1     -12.900  13.833  65.113  1.00  0.00    -0.386 A  
HETATM   14  C   UNL     1     -12.381  13.099  66.182  1.00  0.00    -0.385 A  
ENDBRANCH   8   9
BRANCH   8  15
HETATM   15  C   UNL     1     -11.376  12.623  69.219  1.00  0.00    -0.306 A  
HETATM   16  C   UNL     1     -11.747  13.891  69.710  1.00  0.00    -0.372 A  
HETATM   17  C   UNL     1     -12.547  14.036  70.857  1.00  0.00    -0.431 A  
HETATM   18  C   UNL     1     -13.010  12.918  71.551  1.00  0.00    -0.388 A  
HETATM   19  C   UNL     1     -11.842  11.521  69.976  1.00  0.00    -0.435 A  
HETATM   20  C   UNL     1     -12.646  11.657  71.112  1.00  0.00    -0.439 A  
ENDBRANCH   8  15
BRANCH   8  21
HETATM   21  C   UNL     1     -10.656  10.846  67.444  1.00  0.00    -0.285 C  
BRANCH  21  22
HETATM   22  C   UNL     1     -10.285  10.168  66.074  1.00  0.00    -0.218 C  
HETATM   23  C   UNL     1      -9.791   8.723  66.271  1.00  0.00    -0.342 C  
BRANCH  22  24
HETATM   24  N   UNL     1      -9.431  10.946  65.147  1.00  0.00    -0.215 NA 
HETATM   25  C   UNL     1      -8.139  10.313  64.851  1.00  0.00    -0.154 C  
HETATM   26  C   UNL     1     -10.081  11.236  63.855  1.00  0.00    -0.340 C  
ENDBRANCH  22  24
ENDBRANCH  21  22
ENDBRANCH   8  21
ENDBRANCH   3   8
ENDBRANCH   2   3
TORSDOF 9
ENDMDL
MODEL      185
REMARK 921   NORMALIZED FREE ENERGY PREDICTED BY IDOCK:   -3.67 KCAL/MOL
REMARK 922        TOTAL FREE ENERGY PREDICTED BY IDOCK:   -7.28 KCAL/MOL
REMARK 923 INTER-LIGAND FREE ENERGY PREDICTED BY IDOCK:   -6.28 KCAL/MOL
REMARK 924 INTRA-LIGAND FREE ENERGY PREDICTED BY IDOCK:   -1.00 KCAL/MOL
REMARK 927      BINDING AFFINITY PREDICTED BY RF-SCORE:    0.00 PKD
ROOT
HETATM    1  C   UNL     1      -6.023   9.451  66.680  1.00  0.00    -0.060 C  
HETATM    2  C   UNL     1      -7.082   9.074  67.710  1.00  0.00    -0.079 C  
ENDROOT
BRANCH   2   3
HETATM    3  C   UNL     1      -7.924  10.288  68.152  1.00  0.00    -0.109 C  
BRANCH   3   4
HETATM    4  O   UNL     1      -8.027  10.232  69.609  1.00  0.00    -0.160 OA 
BRANCH   4   5
HETATM    5  C   UNL     1      -6.885  10.199  70.344  1.00  0.00    -0.124 C  
HETATM    6  C   UNL     1      -6.865   8.957  71.196  1.00  0.00    -0.085 C  
HETATM    7  O   UNL     1      -6.038  11.080  70.387  1.00  0.00    -0.138 OA 
ENDBRANCH   4   5
ENDBRANCH   3   4
BRANCH   3   8
HETATM    8  C   UNL     1      -9.399  10.343  67.503  1.00  0.00    -0.163 C  
BRANCH   8   9
HETATM    9  C   UNL     1     -10.142  11.584  68.110  1.00  0.00    -0.201 A  
HETATM   10  C   UNL     1     -11.455  11.556  68.612  1.00  0.00    -0.354 A  
HETATM   11  C   UNL     1     -12.026  12.674  69.241  1.00  0.00    -0.301 A  
HETATM   12  C   UNL     1     -11.335  13.877  69.314  1.00  0.00    -0.321 A  
HETATM   13  C   UNL     1     -10.062  13.958  68.775  1.00  0.00    -0.161 A  
HETATM   14  C   UNL     1      -9.472  12.823  68.214  1.00  0.00    -0.203 A  
ENDBRANCH   8   9
BRANCH   8  15
HETATM   15  C   UNL     1     -10.113   8.950  67.880  1.00  0.00    -0.255 A  
HETATM   16  C   UNL     1     -10.477   7.976  66.928  1.00  0.00    -0.387 A  
HETATM   17  C   UNL     1     -11.019   6.734  67.309  1.00  0.00    -0.433 A  
HETATM   18  C   UNL     1     -11.210   6.421  68.654  1.00  0.00    -0.338 A  
HETATM   19  C   UNL     1     -10.357   8.598  69.230  1.00  0.00    -0.228 A  
HETATM   20  C   UNL     1     -10.886   7.362  69.615  1.00  0.00    -0.222 A  
ENDBRANCH   8  15
BRANCH   8  21
HETATM   21  C   UNL     1      -9.359  10.475  65.897  1.00  0.00    -0.220 C  
BRANCH  21  22
HETATM   22  C   UNL     1     -10.476  11.015  64.932  1.00  0.00    -0.303 C  
HETATM   23  C   UNL     1     -10.052  10.906  63.455  1.00  0.00    -0.406 C  
BRANCH  22  24
HETATM   24  N   UNL     1     -11.074  12.329  65.261  1.00  0.00    -0.306 NA 
HETATM   25  C   UNL     1     -10.484  13.456  64.526  1.00  0.00    -0.413 C  
HETATM   26  C   UNL     1     -12.532  12.382  65.043  1.00  0.00    -0.316 C  
ENDBRANCH  22  24
ENDBRANCH  21  22
ENDBRANCH   8  21
ENDBRANCH   3   8
ENDBRANCH   2   3
TORSDOF 9
ENDMDL
MODEL      186
REMARK 921   NORMALIZED FREE ENERGY PREDICTED BY IDOCK:   -3.66 KCAL/MOL
REMARK 922        TOTAL FREE ENERGY PREDICTED BY IDOCK:   -7.28 KCAL/MOL
REMARK 923 INTER-LIGAND FREE ENERGY PREDICTED BY IDOCK:   -5.71 KCAL/MOL
REMARK 924 INTRA-LIGAND FREE ENERGY PREDICTED BY IDOCK:   -1.57 KCAL/MOL
REMARK 927      BINDING AFFINITY PREDICTED BY RF-SCORE:    0.00 PKD
ROOT
HETATM    1  C   UNL     1      -6.152   8.857  69.070  1.00  0.00    -0.043 C  
HETATM    2  C   UNL     1      -6.796   9.004  67.696  1.00  0.00    -0.070 C  
ENDROOT
BRANCH   2   3
HETATM    3  C   UNL     1      -7.434  10.394  67.496  1.00  0.00    -0.093 C  
BRANCH   3   4
HETATM    4  O   UNL     1      -7.322  11.105  68.768  1.00  0.00    -0.097 OA 
BRANCH   4   5
HETATM    5  C   UNL     1      -6.529  12.207  68.833  1.00  0.00    -0.088 C  
HETATM    6  C   UNL     1      -5.957  12.501  67.470  1.00  0.00    -0.152 C  
HETATM    7  O   UNL     1      -6.241  12.821  69.850  1.00  0.00    -0.129 OA 
ENDBRANCH   4   5
ENDBRANCH   3   4
BRANCH   3   8
HETATM    8  C   UNL     1      -8.976  10.354  67.028  1.00  0.00    -0.150 C  
BRANCH   8   9
HETATM    9  C   UNL     1      -9.593   9.001  67.529  1.00  0.00    -0.182 A  
HETATM   10  C   UNL     1      -9.912   8.723  68.870  1.00  0.00    -0.200 A  
HETATM   11  C   UNL     1     -10.562   7.534  69.240  1.00  0.00    -0.215 A  
HETATM   12  C   UNL     1     -10.838   6.553  68.295  1.00  0.00    -0.359 A  
HETATM   13  C   UNL     1     -10.482   6.768  66.974  1.00  0.00    -0.369 A  
HETATM   14  C   UNL     1      -9.900   7.983  66.601  1.00  0.00    -0.322 A  
ENDBRANCH   8   9
BRANCH   8  15
HETATM   15  C   UNL     1      -8.967  10.472  65.423  1.00  0.00    -0.207 A  
HETATM   16  C   UNL     1      -7.848  10.165  64.622  1.00  0.00    -0.144 A  
HETATM   17  C   UNL     1      -7.911  10.197  63.217  1.00  0.00    -0.155 A  
HETATM   18  C   UNL     1      -9.096  10.534  62.563  1.00  0.00    -0.317 A  
HETATM   19  C   UNL     1     -10.136  10.840  64.712  1.00  0.00    -0.396 A  
HETATM   20  C   UNL     1     -10.208  10.865  63.317  1.00  0.00    -0.317 A  
ENDBRANCH   8  15
BRANCH   8  21
HETATM   21  C   UNL     1      -9.831  11.585  67.623  1.00  0.00    -0.192 C  
BRANCH  21  22
HETATM   22  C   UNL     1      -9.810  13.094  67.181  1.00  0.00    -0.235 C  
HETATM   23  C   UNL     1      -9.477  14.027  68.361  1.00  0.00    -0.213 C  
BRANCH  22  24
HETATM   24  N   UNL     1     -10.956  13.576  66.375  1.00  0.00    -0.292 NA 
HETATM   25  C   UNL     1     -12.062  14.120  67.174  1.00  0.00    -0.397 C  
HETATM   26  C   UNL     1     -10.585  14.604  65.385  1.00  0.00    -0.374 C  
ENDBRANCH  22  24
ENDBRANCH  21  22
ENDBRANCH   8  21
ENDBRANCH   3   8
ENDBRANCH   2   3
TORSDOF 9
ENDMDL
MODEL      187
REMARK 921   NORMALIZED FREE ENERGY PREDICTED BY IDOCK:   -3.66 KCAL/MOL
REMARK 922        TOTAL FREE ENERGY PREDICTED BY IDOCK:   -7.28 KCAL/MOL
REMARK 923 INTER-LIGAND FREE ENERGY PREDICTED BY IDOCK:   -6.28 KCAL/MOL
REMARK 924 INTRA-LIGAND FREE ENERGY PREDICTED BY IDOCK:   -1.00 KCAL/MOL
REMARK 927      BINDING AFFINITY PREDICTED BY RF-SCORE:    0.00 PKD
ROOT
HETATM    1  C   UNL     1     -12.729  12.383  64.541  1.00  0.00    -0.404 C  
HETATM    2  C   UNL     1     -11.516  13.266  64.817  1.00  0.00    -0.355 C  
ENDROOT
BRANCH   2   3
HETATM    3  C   UNL     1     -10.282  12.445  65.243  1.00  0.00    -0.282 C  
BRANCH   3   4
HETATM    4  O   UNL     1     -10.571  11.045  64.939  1.00  0.00    -0.302 OA 
BRANCH   4   5
HETATM    5  C   UNL     1      -9.692  10.347  64.173  1.00  0.00    -0.324 C  
HETATM    6  C   UNL     1      -9.431  11.095  62.892  1.00  0.00    -0.382 C  
HETATM    7  O   UNL     1      -9.246   9.238  64.429  1.00  0.00    -0.154 OA 
ENDBRANCH   4   5
ENDBRANCH   3   4
BRANCH   3   8
HETATM    8  C   UNL     1      -9.890  12.596  66.799  1.00  0.00    -0.236 C  
BRANCH   8   9
HETATM    9  C   UNL     1      -8.933  13.832  66.934  1.00  0.00    -0.234 A  
HETATM   10  C   UNL     1      -7.785  13.862  67.744  1.00  0.00    -0.177 A  
HETATM   11  C   UNL     1      -6.910  14.960  67.739  1.00  0.00    -0.193 A  
HETATM   12  C   UNL     1      -7.197  16.093  66.988  1.00  0.00    -0.256 A  
HETATM   13  C   UNL     1      -8.352  16.122  66.225  1.00  0.00    -0.322 A  
HETATM   14  C   UNL     1      -9.183  14.999  66.179  1.00  0.00    -0.294 A  
ENDBRANCH   8   9
BRANCH   8  15
HETATM   15  C   UNL     1      -9.181  11.215  67.225  1.00  0.00    -0.166 A  
HETATM   16  C   UNL     1      -7.803  10.963  67.068  1.00  0.00    -0.132 A  
HETATM   17  C   UNL     1      -7.209   9.776  67.535  1.00  0.00    -0.089 A  
HETATM   18  C   UNL     1      -7.971   8.802  68.179  1.00  0.00    -0.106 A  
HETATM   19  C   UNL     1      -9.917  10.181  67.854  1.00  0.00    -0.190 A  
HETATM   20  C   UNL     1      -9.331   9.004  68.329  1.00  0.00    -0.145 A  
ENDBRANCH   8  15
BRANCH   8  21
HETATM   21  C   UNL     1     -11.182  12.813  67.738  1.00  0.00    -0.317 C  
BRANCH  21  22
HETATM   22  C   UNL     1     -11.232  13.264  69.245  1.00  0.00    -0.208 C  
HETATM   23  C   UNL     1     -12.055  12.286  70.103  1.00  0.00    -0.364 C  
BRANCH  22  24
HETATM   24  N   UNL     1     -11.564  14.682  69.513  1.00  0.00    -0.292 NA 
HETATM   25  C   UNL     1     -10.483  15.436  70.162  1.00  0.00    -0.272 C  
HETATM   26  C   UNL     1     -11.954  15.432  68.304  1.00  0.00    -0.086 C  
ENDBRANCH  22  24
ENDBRANCH  21  22
ENDBRANCH   8  21
ENDBRANCH   3   8
ENDBRANCH   2   3
TORSDOF 9
ENDMDL
MODEL      188
REMARK 921   NORMALIZED FREE ENERGY PREDICTED BY IDOCK:   -3.63 KCAL/MOL
REMARK 922        TOTAL FREE ENERGY PREDICTED BY IDOCK:   -7.23 KCAL/MOL
REMARK 923 INTER-LIGAND FREE ENERGY PREDICTED BY IDOCK:   -5.79 KCAL/MOL
REMARK 924 INTRA-LIGAND FREE ENERGY PREDICTED BY IDOCK:   -1.44 KCAL/MOL
REMARK 927      BINDING AFFINITY PREDICTED BY RF-SCORE:    0.00 PKD
ROOT
HETATM    1  C   UNL     1     -10.292   6.040  72.676  1.00  0.00    -0.222 C  
HETATM    2  C   UNL     1     -10.622   6.407  71.234  1.00  0.00    -0.275 C  
ENDROOT
BRANCH   2   3
HETATM    3  C   UNL     1     -10.847   7.923  71.054  1.00  0.00    -0.235 C  
BRANCH   3   4
HETATM    4  O   UNL     1     -12.271   8.117  70.784  1.00  0.00    -0.168 OA 
BRANCH   4   5
HETATM    5  C   UNL     1     -13.115   8.300  71.833  1.00  0.00    -0.344 C  
HETATM    6  C   UNL     1     -14.341   7.443  71.652  1.00  0.00    -0.614 C  
HETATM    7  O   UNL     1     -12.961   9.102  72.742  1.00  0.00    -0.342 OA 
ENDBRANCH   4   5
ENDBRANCH   3   4
BRANCH   3   8
HETATM    8  C   UNL     1      -9.974   8.586  69.873  1.00  0.00    -0.189 C  
BRANCH   8   9
HETATM    9  C   UNL     1      -8.554   8.914  70.455  1.00  0.00    -0.208 A  
HETATM   10  C   UNL     1      -7.889   8.130  71.414  1.00  0.00    -0.110 A  
HETATM   11  C   UNL     1      -6.574   8.417  71.815  1.00  0.00    -0.070 A  
HETATM   12  C   UNL     1      -5.915   9.541  71.334  1.00  0.00    -0.052 A  
HETATM   13  C   UNL     1      -6.563  10.371  70.434  1.00  0.00    -0.121 A  
HETATM   14  C   UNL     1      -7.845  10.041  69.984  1.00  0.00    -0.172 A  
ENDBRANCH   8   9
BRANCH   8  15
HETATM   15  C   UNL     1     -10.770   9.905  69.405  1.00  0.00    -0.255 A  
HETATM   16  C   UNL     1     -11.303  10.855  70.300  1.00  0.00    -0.342 A  
HETATM   17  C   UNL     1     -11.915  12.038  69.847  1.00  0.00    -0.391 A  
HETATM   18  C   UNL     1     -12.009  12.316  68.483  1.00  0.00    -0.272 A  
HETATM   19  C   UNL     1     -10.920  10.217  68.032  1.00  0.00    -0.326 A  
HETATM   20  C   UNL     1     -11.518  11.395  67.575  1.00  0.00    -0.336 A  
ENDBRANCH   8  15
BRANCH   8  21
HETATM   21  C   UNL     1      -9.818   7.610  68.600  1.00  0.00    -0.175 C  
BRANCH  21  22
HETATM   22  C   UNL     1      -8.499   7.059  67.944  1.00  0.00    -0.124 C  
HETATM   23  C   UNL     1      -7.898   8.067  66.947  1.00  0.00    -0.103 C  
BRANCH  22  24
HETATM   24  N   UNL     1      -8.537   5.678  67.412  1.00  0.00    -0.110 NA 
HETATM   25  C   UNL     1      -9.582   5.454  66.403  1.00  0.00    -0.159 C  
HETATM   26  C   UNL     1      -7.258   5.242  66.819  1.00  0.00    -0.078 C  
ENDBRANCH  22  24
ENDBRANCH  21  22
ENDBRANCH   8  21
ENDBRANCH   3   8
ENDBRANCH   2   3
TORSDOF 9
ENDMDL
MODEL      189
REMARK 921   NORMALIZED FREE ENERGY PREDICTED BY IDOCK:   -3.62 KCAL/MOL
REMARK 922        TOTAL FREE ENERGY PREDICTED BY IDOCK:   -7.21 KCAL/MOL
REMARK 923 INTER-LIGAND FREE ENERGY PREDICTED BY IDOCK:   -6.16 KCAL/MOL
REMARK 924 INTRA-LIGAND FREE ENERGY PREDICTED BY IDOCK:   -1.06 KCAL/MOL
REMARK 927      BINDING AFFINITY PREDICTED BY RF-SCORE:    0.00 PKD
ROOT
HETATM    1  C   UNL     1     -13.078   8.625  72.762  1.00  0.00    -0.145 C  
HETATM    2  C   UNL     1     -12.983   8.919  71.269  1.00  0.00    -0.255 C  
ENDROOT
BRANCH   2   3
HETATM    3  C   UNL     1     -11.658   9.615  70.895  1.00  0.00    -0.344 C  
BRANCH   3   4
HETATM    4  O   UNL     1     -11.987  10.694  69.965  1.00  0.00    -0.289 OA 
BRANCH   4   5
HETATM    5  C   UNL     1     -12.367  11.897  70.468  1.00  0.00    -0.284 C  
HETATM    6  C   UNL     1     -11.885  13.001  69.562  1.00  0.00    -0.385 C  
HETATM    7  O   UNL     1     -12.931  12.079  71.537  1.00  0.00    -0.397 OA 
ENDBRANCH   4   5
ENDBRANCH   3   4
BRANCH   3   8
HETATM    8  C   UNL     1     -10.561   8.639  70.231  1.00  0.00    -0.240 C  
BRANCH   8   9
HETATM    9  C   UNL     1      -9.406   8.438  71.274  1.00  0.00    -0.239 A  
HETATM   10  C   UNL     1      -8.040   8.395  70.946  1.00  0.00    -0.118 A  
HETATM   11  C   UNL     1      -7.048   8.321  71.937  1.00  0.00    -0.095 A  
HETATM   12  C   UNL     1      -7.392   8.205  73.278  1.00  0.00    -0.170 A  
HETATM   13  C   UNL     1      -8.731   8.183  73.632  1.00  0.00    -0.309 A  
HETATM   14  C   UNL     1      -9.712   8.328  72.648  1.00  0.00    -0.357 A  
ENDBRANCH   8   9
BRANCH   8  15
HETATM   15  C   UNL     1     -10.060   9.368  68.885  1.00  0.00    -0.201 A  
HETATM   16  C   UNL     1     -10.469   8.988  67.591  1.00  0.00    -0.324 A  
HETATM   17  C   UNL     1     -10.076   9.708  66.449  1.00  0.00    -0.317 A  
HETATM   18  C   UNL     1      -9.263  10.836  66.560  1.00  0.00    -0.187 A  
HETATM   19  C   UNL     1      -9.209  10.499  68.943  1.00  0.00    -0.188 A  
HETATM   20  C   UNL     1      -8.822  11.224  67.813  1.00  0.00    -0.141 A  
ENDBRANCH   8  15
BRANCH   8  21
HETATM   21  C   UNL     1     -11.177   7.204  69.831  1.00  0.00    -0.241 C  
BRANCH  21  22
HETATM   22  C   UNL     1     -10.743   5.778  70.333  1.00  0.00    -0.302 C  
HETATM   23  C   UNL     1     -11.093   5.567  71.818  1.00  0.00    -0.214 C  
BRANCH  22  24
HETATM   24  N   UNL     1      -9.369   5.336  69.999  1.00  0.00    -0.145 NA 
HETATM   25  C   UNL     1      -8.674   4.660  71.104  1.00  0.00    -0.116 C  
HETATM   26  C   UNL     1      -9.310   4.437  68.831  1.00  0.00    -0.153 C  
ENDBRANCH  22  24
ENDBRANCH  21  22
ENDBRANCH   8  21
ENDBRANCH   3   8
ENDBRANCH   2   3
TORSDOF 9
ENDMDL
MODEL      190
REMARK 921   NORMALIZED FREE ENERGY PREDICTED BY IDOCK:   -3.60 KCAL/MOL
REMARK 922        TOTAL FREE ENERGY PREDICTED BY IDOCK:   -7.19 KCAL/MOL
REMARK 923 INTER-LIGAND FREE ENERGY PREDICTED BY IDOCK:   -5.51 KCAL/MOL
REMARK 924 INTRA-LIGAND FREE ENERGY PREDICTED BY IDOCK:   -1.68 KCAL/MOL
REMARK 927      BINDING AFFINITY PREDICTED BY RF-SCORE:    0.00 PKD
ROOT
HETATM    1  C   UNL     1     -10.813   5.599  66.570  1.00  0.00    -0.239 C  
HETATM    2  C   UNL     1     -10.921   6.567  67.743  1.00  0.00    -0.407 C  
ENDROOT
BRANCH   2   3
HETATM    3  C   UNL     1      -9.583   7.274  68.041  1.00  0.00    -0.139 C  
BRANCH   3   4
HETATM    4  O   UNL     1      -8.920   6.512  69.097  1.00  0.00    -0.130 OA 
BRANCH   4   5
HETATM    5  C   UNL     1      -7.765   5.857  68.804  1.00  0.00    -0.091 C  
HETATM    6  C   UNL     1      -6.694   6.254  69.787  1.00  0.00    -0.056 C  
HETATM    7  O   UNL     1      -7.583   5.128  67.840  1.00  0.00    -0.082 OA 
ENDBRANCH   4   5
ENDBRANCH   3   4
BRANCH   3   8
HETATM    8  C   UNL     1      -9.734   8.814  68.492  1.00  0.00    -0.173 C  
BRANCH   8   9
HETATM    9  C   UNL     1      -8.297   9.444  68.529  1.00  0.00    -0.118 A  
HETATM   10  C   UNL     1      -7.331   9.277  67.522  1.00  0.00    -0.087 A  
HETATM   11  C   UNL     1      -6.102   9.955  67.563  1.00  0.00    -0.058 A  
HETATM   12  C   UNL     1      -5.768  10.755  68.648  1.00  0.00    -0.040 A  
HETATM   13  C   UNL     1      -6.673  10.894  69.688  1.00  0.00    -0.131 A  
HETATM   14  C   UNL     1      -7.922  10.273  69.609  1.00  0.00    -0.164 A  
ENDBRANCH   8   9
BRANCH   8  15
HETATM   15  C   UNL     1     -10.439   8.796  69.939  1.00  0.00    -0.227 A  
HETATM   16  C   UNL     1     -11.642   9.469  70.232  1.00  0.00    -0.219 A  
HETATM   17  C   UNL     1     -12.270   9.355  71.485  1.00  0.00    -0.448 A  
HETATM   18  C   UNL     1     -11.719   8.558  72.489  1.00  0.00    -0.390 A  
HETATM   19  C   UNL     1      -9.903   8.027  71.002  1.00  0.00    -0.200 A  
HETATM   20  C   UNL     1     -10.526   7.901  72.246  1.00  0.00    -0.322 A  
ENDBRANCH   8  15
BRANCH   8  21
HETATM   21  C   UNL     1     -10.664   9.661  67.485  1.00  0.00    -0.321 C  
BRANCH  21  22
HETATM   22  C   UNL     1     -10.463  11.134  66.971  1.00  0.00    -0.235 C  
HETATM   23  C   UNL     1     -11.631  12.046  67.389  1.00  0.00    -0.388 C  
BRANCH  22  24
HETATM   24  N   UNL     1     -10.081  11.306  65.551  1.00  0.00    -0.244 NA 
HETATM   25  C   UNL     1      -9.825  10.043  64.843  1.00  0.00    -0.281 C  
HETATM   26  C   UNL     1     -11.077  12.054  64.761  1.00  0.00    -0.317 C  
ENDBRANCH  22  24
ENDBRANCH  21  22
ENDBRANCH   8  21
ENDBRANCH   3   8
ENDBRANCH   2   3
TORSDOF 9
ENDMDL
MODEL      191
REMARK 921   NORMALIZED FREE ENERGY PREDICTED BY IDOCK:   -3.58 KCAL/MOL
REMARK 922        TOTAL FREE ENERGY PREDICTED BY IDOCK:   -7.16 KCAL/MOL
REMARK 923 INTER-LIGAND FREE ENERGY PREDICTED BY IDOCK:   -5.76 KCAL/MOL
REMARK 924 INTRA-LIGAND FREE ENERGY PREDICTED BY IDOCK:   -1.40 KCAL/MOL
REMARK 927      BINDING AFFINITY PREDICTED BY RF-SCORE:    0.00 PKD
ROOT
HETATM    1  C   UNL     1     -10.533   6.878  68.072  1.00  0.00    -0.255 C  
HETATM    2  C   UNL     1     -10.656   8.161  67.256  1.00  0.00    -0.344 C  
ENDROOT
BRANCH   2   3
HETATM    3  C   UNL     1     -10.002   9.366  67.962  1.00  0.00    -0.176 C  
BRANCH   3   4
HETATM    4  O   UNL     1     -11.080  10.277  68.344  1.00  0.00    -0.253 OA 
BRANCH   4   5
HETATM    5  C   UNL     1     -11.235  10.590  69.657  1.00  0.00    -0.282 C  
HETATM    6  C   UNL     1     -10.517   9.575  70.509  1.00  0.00    -0.358 C  
HETATM    7  O   UNL     1     -11.925  11.498  70.098  1.00  0.00    -0.325 OA 
ENDBRANCH   4   5
ENDBRANCH   3   4
BRANCH   3   8
HETATM    8  C   UNL     1      -8.919  10.152  67.064  1.00  0.00    -0.148 C  
BRANCH   8   9
HETATM    9  C   UNL     1      -8.290   9.120  66.062  1.00  0.00    -0.125 A  
HETATM   10  C   UNL     1      -7.484   8.033  66.445  1.00  0.00    -0.087 A  
HETATM   11  C   UNL     1      -7.040   7.083  65.511  1.00  0.00    -0.068 A  
HETATM   12  C   UNL     1      -7.317   7.235  64.158  1.00  0.00    -0.091 A  
HETATM   13  C   UNL     1      -8.056   8.328  63.738  1.00  0.00    -0.126 A  
HETATM   14  C   UNL     1      -8.556   9.232  64.680  1.00  0.00    -0.209 A  
ENDBRANCH   8   9
BRANCH   8  15
HETATM   15  C   UNL     1      -7.835  10.759  68.088  1.00  0.00    -0.112 A  
HETATM   16  C   UNL     1      -7.299  12.059  67.980  1.00  0.00    -0.102 A  
HETATM   17  C   UNL     1      -6.421  12.581  68.947  1.00  0.00    -0.091 A  
HETATM   18  C   UNL     1      -6.052  11.824  70.059  1.00  0.00    -0.158 A  
HETATM   19  C   UNL     1      -7.403  10.019  69.216  1.00  0.00    -0.091 A  
HETATM   20  C   UNL     1      -6.539  10.536  70.186  1.00  0.00    -0.149 A  
ENDBRANCH   8  15
BRANCH   8  21
HETATM   21  C   UNL     1      -9.574  11.370  66.236  1.00  0.00    -0.237 C  
BRANCH  21  22
HETATM   22  C   UNL     1     -11.005  11.457  65.590  1.00  0.00    -0.190 C  
HETATM   23  C   UNL     1     -10.930  11.545  64.055  1.00  0.00    -0.454 C  
BRANCH  22  24
HETATM   24  N   UNL     1     -11.950  12.435  66.176  1.00  0.00    -0.608 NA 
HETATM   25  C   UNL     1     -11.314  13.437  67.041  1.00  0.00    -0.317 C  
HETATM   26  C   UNL     1     -12.737  13.168  65.166  1.00  0.00    -0.405 C  
ENDBRANCH  22  24
ENDBRANCH  21  22
ENDBRANCH   8  21
ENDBRANCH   3   8
ENDBRANCH   2   3
TORSDOF 9
ENDMDL
MODEL      192
REMARK 921   NORMALIZED FREE ENERGY PREDICTED BY IDOCK:   -3.58 KCAL/MOL
REMARK 922        TOTAL FREE ENERGY PREDICTED BY IDOCK:   -7.15 KCAL/MOL
REMARK 923 INTER-LIGAND FREE ENERGY PREDICTED BY IDOCK:   -6.86 KCAL/MOL
REMARK 924 INTRA-LIGAND FREE ENERGY PREDICTED BY IDOCK:   -0.28 KCAL/MOL
REMARK 927      BINDING AFFINITY PREDICTED BY RF-SCORE:    0.00 PKD
ROOT
HETATM    1  C   UNL     1     -11.794  14.552  64.662  1.00  0.00    -0.462 C  
HETATM    2  C   UNL     1     -11.845  14.790  66.167  1.00  0.00    -0.203 C  
ENDROOT
BRANCH   2   3
HETATM    3  C   UNL     1     -10.915  13.833  66.941  1.00  0.00    -0.290 C  
BRANCH   3   4
HETATM    4  O   UNL     1     -11.751  12.760  67.475  1.00  0.00    -0.337 OA 
BRANCH   4   5
HETATM    5  C   UNL     1     -11.432  11.473  67.178  1.00  0.00    -0.237 C  
HETATM    6  C   UNL     1     -10.794  11.411  65.814  1.00  0.00    -0.290 C  
HETATM    7  O   UNL     1     -11.699  10.494  67.860  1.00  0.00    -0.453 OA 
ENDBRANCH   4   5
ENDBRANCH   3   4
BRANCH   3   8
HETATM    8  C   UNL     1     -10.094  14.531  68.139  1.00  0.00    -0.227 C  
BRANCH   8   9
HETATM    9  C   UNL     1     -11.070  14.695  69.356  1.00  0.00    -0.293 A  
HETATM   10  C   UNL     1     -12.301  14.027  69.481  1.00  0.00    -0.275 A  
HETATM   11  C   UNL     1     -13.080  14.133  70.645  1.00  0.00    -0.211 A  
HETATM   12  C   UNL     1     -12.693  14.972  71.684  1.00  0.00    -0.413 A  
HETATM   13  C   UNL     1     -11.516  15.692  71.568  1.00  0.00    -0.494 A  
HETATM   14  C   UNL     1     -10.710  15.529  70.438  1.00  0.00    -0.342 A  
ENDBRANCH   8   9
BRANCH   8  15
HETATM   15  C   UNL     1      -9.573  15.944  67.569  1.00  0.00    -0.221 A  
HETATM   16  C   UNL     1      -8.432  16.086  66.754  1.00  0.00    -0.295 A  
HETATM   17  C   UNL     1      -8.063  17.328  66.206  1.00  0.00    -0.315 A  
HETATM   18  C   UNL     1      -8.825  18.471  66.449  1.00  0.00    -0.267 A  
HETATM   19  C   UNL     1     -10.294  17.139  67.813  1.00  0.00    -0.347 A  
HETATM   20  C   UNL     1      -9.939  18.374  67.264  1.00  0.00    -0.347 A  
ENDBRANCH   8  15
BRANCH   8  21
HETATM   21  C   UNL     1      -8.813  13.664  68.593  1.00  0.00    -0.023 C  
BRANCH  21  22
HETATM   22  C   UNL     1      -8.267  12.326  67.973  1.00  0.00    -0.163 C  
HETATM   23  C   UNL     1      -8.012  11.261  69.055  1.00  0.00    -0.062 C  
BRANCH  22  24
HETATM   24  N   UNL     1      -7.152  12.437  67.004  1.00  0.00    -0.072 NA 
HETATM   25  C   UNL     1      -6.036  13.272  67.470  1.00  0.00    -0.089 C  
HETATM   26  C   UNL     1      -6.587  11.134  66.607  1.00  0.00    -0.137 C  
ENDBRANCH  22  24
ENDBRANCH  21  22
ENDBRANCH   8  21
ENDBRANCH   3   8
ENDBRANCH   2   3
TORSDOF 9
ENDMDL
MODEL      193
REMARK 921   NORMALIZED FREE ENERGY PREDICTED BY IDOCK:   -3.53 KCAL/MOL
REMARK 922        TOTAL FREE ENERGY PREDICTED BY IDOCK:   -7.08 KCAL/MOL
REMARK 923 INTER-LIGAND FREE ENERGY PREDICTED BY IDOCK:   -6.07 KCAL/MOL
REMARK 924 INTRA-LIGAND FREE ENERGY PREDICTED BY IDOCK:   -1.01 KCAL/MOL
REMARK 927      BINDING AFFINITY PREDICTED BY RF-SCORE:    0.00 PKD
ROOT
HETATM    1  C   UNL     1      -6.315  11.308  66.680  1.00  0.00    -0.135 C  
HETATM    2  C   UNL     1      -6.875  10.213  67.581  1.00  0.00    -0.076 C  
ENDROOT
BRANCH   2   3
HETATM    3  C   UNL     1      -8.092  10.694  68.398  1.00  0.00    -0.123 C  
BRANCH   3   4
HETATM    4  O   UNL     1      -7.935  10.169  69.753  1.00  0.00    -0.162 OA 
BRANCH   4   5
HETATM    5  C   UNL     1      -6.693  10.146  70.305  1.00  0.00    -0.143 C  
HETATM    6  C   UNL     1      -6.334   8.733  70.686  1.00  0.00    -0.041 C  
HETATM    7  O   UNL     1      -6.001  11.124  70.548  1.00  0.00    -0.167 OA 
ENDBRANCH   4   5
ENDBRANCH   3   4
BRANCH   3   8
HETATM    8  C   UNL     1      -9.516  10.237  67.798  1.00  0.00    -0.163 C  
BRANCH   8   9
HETATM    9  C   UNL     1      -9.916  11.265  66.682  1.00  0.00    -0.242 A  
HETATM   10  C   UNL     1     -10.510  10.914  65.457  1.00  0.00    -0.286 A  
HETATM   11  C   UNL     1     -10.944  11.889  64.544  1.00  0.00    -0.376 A  
HETATM   12  C   UNL     1     -10.724  13.239  64.790  1.00  0.00    -0.393 A  
HETATM   13  C   UNL     1     -10.086  13.617  65.959  1.00  0.00    -0.320 A  
HETATM   14  C   UNL     1      -9.720  12.647  66.896  1.00  0.00    -0.234 A  
ENDBRANCH   8   9
BRANCH   8  15
HETATM   15  C   UNL     1     -10.549  10.232  69.033  1.00  0.00    -0.247 A  
HETATM   16  C   UNL     1     -10.695   9.151  69.926  1.00  0.00    -0.246 A  
HETATM   17  C   UNL     1     -11.546   9.223  71.043  1.00  0.00    -0.380 A  
HETATM   18  C   UNL     1     -12.277  10.380  71.311  1.00  0.00    -0.491 A  
HETATM   19  C   UNL     1     -11.337  11.371  69.329  1.00  0.00    -0.355 A  
HETATM   20  C   UNL     1     -12.177  11.453  70.442  1.00  0.00    -0.450 A  
ENDBRANCH   8  15
BRANCH   8  21
HETATM   21  C   UNL     1      -9.469   8.754  67.169  1.00  0.00    -0.208 C  
BRANCH  21  22
HETATM   22  C   UNL     1      -9.255   7.383  67.909  1.00  0.00    -0.131 C  
HETATM   23  C   UNL     1      -7.853   6.805  67.640  1.00  0.00    -0.112 C  
BRANCH  22  24
HETATM   24  N   UNL     1     -10.328   6.370  67.775  1.00  0.00    -0.168 NA 
HETATM   25  C   UNL     1     -10.256   5.583  66.537  1.00  0.00    -0.228 C  
HETATM   26  C   UNL     1     -10.376   5.415  68.898  1.00  0.00    -0.190 C  
ENDBRANCH  22  24
ENDBRANCH  21  22
ENDBRANCH   8  21
ENDBRANCH   3   8
ENDBRANCH   2   3
TORSDOF 9
ENDMDL
MODEL      194
REMARK 921   NORMALIZED FREE ENERGY PREDICTED BY IDOCK:   -3.53 KCAL/MOL
REMARK 922        TOTAL FREE ENERGY PREDICTED BY IDOCK:   -7.08 KCAL/MOL
REMARK 923 INTER-LIGAND FREE ENERGY PREDICTED BY IDOCK:   -6.88 KCAL/MOL
REMARK 924 INTRA-LIGAND FREE ENERGY PREDICTED BY IDOCK:   -0.20 KCAL/MOL
REMARK 927      BINDING AFFINITY PREDICTED BY RF-SCORE:    0.00 PKD
ROOT
HETATM    1  C   UNL     1     -12.502  14.509  64.633  1.00  0.00    -0.339 C  
HETATM    2  C   UNL     1     -12.337  13.208  65.411  1.00  0.00    -0.532 C  
ENDROOT
BRANCH   2   3
HETATM    3  C   UNL     1     -11.683  13.432  66.791  1.00  0.00    -0.385 C  
BRANCH   3   4
HETATM    4  O   UNL     1     -11.476  14.871  66.940  1.00  0.00    -0.351 OA 
BRANCH   4   5
HETATM    5  C   UNL     1     -11.638  15.431  68.167  1.00  0.00    -0.319 C  
HETATM    6  C   UNL     1     -11.041  16.814  68.176  1.00  0.00    -0.254 C  
HETATM    7  O   UNL     1     -12.110  14.875  69.149  1.00  0.00    -0.291 OA 
ENDBRANCH   4   5
ENDBRANCH   3   4
BRANCH   3   8
HETATM    8  C   UNL     1     -10.286  12.656  66.995  1.00  0.00    -0.233 C  
BRANCH   8   9
HETATM    9  C   UNL     1      -9.994  11.843  65.685  1.00  0.00    -0.269 A  
HETATM   10  C   UNL     1      -9.902  12.411  64.402  1.00  0.00    -0.116 A  
HETATM   11  C   UNL     1      -9.532  11.646  63.284  1.00  0.00    -0.263 A  
HETATM   12  C   UNL     1      -9.323  10.277  63.399  1.00  0.00    -0.340 A  
HETATM   13  C   UNL     1      -9.466   9.673  64.637  1.00  0.00    -0.221 A  
HETATM   14  C   UNL     1      -9.765  10.451  65.759  1.00  0.00    -0.285 A  
ENDBRANCH   8   9
BRANCH   8  15
HETATM   15  C   UNL     1     -10.476  11.708  68.282  1.00  0.00    -0.223 A  
HETATM   16  C   UNL     1     -11.617  11.732  69.110  1.00  0.00    -0.372 A  
HETATM   17  C   UNL     1     -11.781  10.826  70.172  1.00  0.00    -0.425 A  
HETATM   18  C   UNL     1     -10.813   9.858  70.442  1.00  0.00    -0.380 A  
HETATM   19  C   UNL     1      -9.507  10.730  68.617  1.00  0.00    -0.188 A  
HETATM   20  C   UNL     1      -9.669   9.820  69.665  1.00  0.00    -0.242 A  
ENDBRANCH   8  15
BRANCH   8  21
HETATM   21  C   UNL     1      -9.061  13.663  67.284  1.00  0.00    -0.228 C  
BRANCH  21  22
HETATM   22  C   UNL     1      -8.181  13.788  68.581  1.00  0.00    -0.077 C  
HETATM   23  C   UNL     1      -8.216  15.216  69.156  1.00  0.00    -0.214 C  
BRANCH  22  24
HETATM   24  N   UNL     1      -6.812  13.226  68.524  1.00  0.00    -0.091 NA 
HETATM   25  C   UNL     1      -6.552  12.406  67.333  1.00  0.00    -0.157 C  
HETATM   26  C   UNL     1      -5.754  14.252  68.587  1.00  0.00    -0.088 C  
ENDBRANCH  22  24
ENDBRANCH  21  22
ENDBRANCH   8  21
ENDBRANCH   3   8
ENDBRANCH   2   3
TORSDOF 9
ENDMDL
MODEL      195
REMARK 921   NORMALIZED FREE ENERGY PREDICTED BY IDOCK:   -3.50 KCAL/MOL
REMARK 922        TOTAL FREE ENERGY PREDICTED BY IDOCK:   -7.03 KCAL/MOL
REMARK 923 INTER-LIGAND FREE ENERGY PREDICTED BY IDOCK:   -6.97 KCAL/MOL
REMARK 924 INTRA-LIGAND FREE ENERGY PREDICTED BY IDOCK:   -0.06 KCAL/MOL
REMARK 927      BINDING AFFINITY PREDICTED BY RF-SCORE:    0.00 PKD
ROOT
HETATM    1  C   UNL     1      -6.571  12.312  68.227  1.00  0.00    -0.058 C  
HETATM    2  C   UNL     1      -7.755  12.706  67.351  1.00  0.00    -0.161 C  
ENDROOT
BRANCH   2   3
HETATM    3  C   UNL     1      -9.059  12.851  68.163  1.00  0.00    -0.207 C  
BRANCH   3   4
HETATM    4  O   UNL     1      -9.839  11.634  67.946  1.00  0.00    -0.175 OA 
BRANCH   4   5
HETATM    5  C   UNL     1      -9.948  10.738  68.962  1.00  0.00    -0.199 C  
HETATM    6  C   UNL     1      -8.791   9.773  68.913  1.00  0.00    -0.140 C  
HETATM    7  O   UNL     1     -10.882  10.657  69.745  1.00  0.00    -0.259 OA 
ENDBRANCH   4   5
ENDBRANCH   3   4
BRANCH   3   8
HETATM    8  C   UNL     1      -9.943  14.141  67.771  1.00  0.00    -0.235 C  
BRANCH   8   9
HETATM    9  C   UNL     1     -10.853  14.488  69.001  1.00  0.00    -0.265 A  
HETATM   10  C   UNL     1     -11.728  13.581  69.623  1.00  0.00    -0.378 A  
HETATM   11  C   UNL     1     -12.436  13.921  70.787  1.00  0.00    -0.445 A  
HETATM   12  C   UNL     1     -12.353  15.203  71.318  1.00  0.00    -0.401 A  
HETATM   13  C   UNL     1     -11.547  16.141  70.696  1.00  0.00    -0.347 A  
HETATM   14  C   UNL     1     -10.791  15.776  69.579  1.00  0.00    -0.287 A  
ENDBRANCH   8   9
BRANCH   8  15
HETATM   15  C   UNL     1     -10.795  13.729  66.468  1.00  0.00    -0.287 A  
HETATM   16  C   UNL     1     -12.201  13.795  66.401  1.00  0.00    -0.480 A  
HETATM   17  C   UNL     1     -12.900  13.510  65.214  1.00  0.00    -0.410 A  
HETATM   18  C   UNL     1     -12.217  13.154  64.051  1.00  0.00    -0.482 A  
HETATM   19  C   UNL     1     -10.150  13.331  65.272  1.00  0.00    -0.254 A  
HETATM   20  C   UNL     1     -10.838  13.055  64.086  1.00  0.00    -0.433 A  
ENDBRANCH   8  15
BRANCH   8  21
HETATM   21  C   UNL     1      -9.033  15.419  67.400  1.00  0.00    -0.202 C  
BRANCH  21  22
HETATM   22  C   UNL     1      -7.627  15.821  67.978  1.00  0.00    -0.126 C  
HETATM   23  C   UNL     1      -7.591  15.710  69.513  1.00  0.00    -0.187 C  
BRANCH  22  24
HETATM   24  N   UNL     1      -7.029  17.081  67.480  1.00  0.00    -0.140 NA 
HETATM   25  C   UNL     1      -6.939  18.141  68.493  1.00  0.00    -0.246 C  
HETATM   26  C   UNL     1      -5.680  16.905  66.910  1.00  0.00    -0.164 C  
ENDBRANCH  22  24
ENDBRANCH  21  22
ENDBRANCH   8  21
ENDBRANCH   3   8
ENDBRANCH   2   3
TORSDOF 9
ENDMDL
MODEL      196
REMARK 921   NORMALIZED FREE ENERGY PREDICTED BY IDOCK:   -3.49 KCAL/MOL
REMARK 922        TOTAL FREE ENERGY PREDICTED BY IDOCK:   -7.01 KCAL/MOL
REMARK 923 INTER-LIGAND FREE ENERGY PREDICTED BY IDOCK:   -6.69 KCAL/MOL
REMARK 924 INTRA-LIGAND FREE ENERGY PREDICTED BY IDOCK:   -0.33 KCAL/MOL
REMARK 927      BINDING AFFINITY PREDICTED BY RF-SCORE:    0.00 PKD
ROOT
HETATM    1  C   UNL     1      -8.662  15.100  66.211  1.00  0.00    -0.125 C  
HETATM    2  C   UNL     1      -9.842  15.126  67.176  1.00  0.00    -0.228 C  
ENDROOT
BRANCH   2   3
HETATM    3  C   UNL     1      -9.640  14.171  68.371  1.00  0.00    -0.225 C  
BRANCH   3   4
HETATM    4  O   UNL     1      -8.212  13.863  68.438  1.00  0.00    -0.146 OA 
BRANCH   4   5
HETATM    5  C   UNL     1      -7.421  14.609  69.252  1.00  0.00    -0.132 C  
HETATM    6  C   UNL     1      -6.088  13.928  69.427  1.00  0.00    -0.104 C  
HETATM    7  O   UNL     1      -7.756  15.630  69.835  1.00  0.00    -0.092 OA 
ENDBRANCH   4   5
ENDBRANCH   3   4
BRANCH   3   8
HETATM    8  C   UNL     1     -10.488  12.804  68.277  1.00  0.00    -0.250 C  
BRANCH   8   9
HETATM    9  C   UNL     1     -11.302  12.837  66.936  1.00  0.00    -0.371 A  
HETATM   10  C   UNL     1     -12.375  13.708  66.680  1.00  0.00    -0.381 A  
HETATM   11  C   UNL     1     -12.993  13.763  65.420  1.00  0.00    -0.361 A  
HETATM   12  C   UNL     1     -12.613  12.893  64.405  1.00  0.00    -0.392 A  
HETATM   13  C   UNL     1     -11.600  11.980  64.642  1.00  0.00    -0.364 A  
HETATM   14  C   UNL     1     -10.941  11.978  65.875  1.00  0.00    -0.342 A  
ENDBRANCH   8   9
BRANCH   8  15
HETATM   15  C   UNL     1     -11.439  12.770  69.576  1.00  0.00    -0.293 A  
HETATM   16  C   UNL     1     -11.923  13.926  70.222  1.00  0.00    -0.401 A  
HETATM   17  C   UNL     1     -12.823  13.850  71.301  1.00  0.00    -0.435 A  
HETATM   18  C   UNL     1     -13.274  12.616  71.769  1.00  0.00    -0.457 A  
HETATM   19  C   UNL     1     -11.900  11.541  70.110  1.00  0.00    -0.440 A  
HETATM   20  C   UNL     1     -12.801  11.459  71.175  1.00  0.00    -0.440 A  
ENDBRANCH   8  15
BRANCH   8  21
HETATM   21  C   UNL     1      -9.548  11.495  68.302  1.00  0.00    -0.189 C  
BRANCH  21  22
HETATM   22  C   UNL     1      -8.088  11.327  67.742  1.00  0.00    -0.119 C  
HETATM   23  C   UNL     1      -8.079  11.208  66.207  1.00  0.00    -0.142 C  
BRANCH  22  24
HETATM   24  N   UNL     1      -7.225  10.320  68.402  1.00  0.00    -0.078 NA 
HETATM   25  C   UNL     1      -5.807  10.411  68.028  1.00  0.00    -0.040 C  
HETATM   26  C   UNL     1      -7.292  10.364  69.875  1.00  0.00    -0.142 C  
ENDBRANCH  22  24
ENDBRANCH  21  22
ENDBRANCH   8  21
ENDBRANCH   3   8
ENDBRANCH   2   3
TORSDOF 9
ENDMDL
MODEL      197
REMARK 921   NORMALIZED FREE ENERGY PREDICTED BY IDOCK:   -3.47 KCAL/MOL
REMARK 922        TOTAL FREE ENERGY PREDICTED BY IDOCK:   -6.98 KCAL/MOL
REMARK 923 INTER-LIGAND FREE ENERGY PREDICTED BY IDOCK:   -6.41 KCAL/MOL
REMARK 924 INTRA-LIGAND FREE ENERGY PREDICTED BY IDOCK:   -0.57 KCAL/MOL
REMARK 927      BINDING AFFINITY PREDICTED BY RF-SCORE:    0.00 PKD
ROOT
HETATM    1  C   UNL     1      -8.825  16.811  66.465  1.00  0.00    -0.311 C  
HETATM    2  C   UNL     1      -9.993  15.837  66.572  1.00  0.00    -0.283 C  
ENDROOT
BRANCH   2   3
HETATM    3  C   UNL     1      -9.596  14.403  66.165  1.00  0.00    -0.283 C  
BRANCH   3   4
HETATM    4  O   UNL     1     -10.482  14.005  65.073  1.00  0.00    -0.373 OA 
BRANCH   4   5
HETATM    5  C   UNL     1     -11.732  14.536  65.019  1.00  0.00    -0.392 C  
HETATM    6  C   UNL     1     -11.705  15.817  64.226  1.00  0.00    -0.162 C  
HETATM    7  O   UNL     1     -12.717  14.103  65.598  1.00  0.00    -0.514 OA 
ENDBRANCH   4   5
ENDBRANCH   3   4
BRANCH   3   8
HETATM    8  C   UNL     1      -9.687  13.326  67.360  1.00  0.00    -0.221 C  
BRANCH   8   9
HETATM    9  C   UNL     1     -10.441  14.003  68.558  1.00  0.00    -0.251 A  
HETATM   10  C   UNL     1      -9.884  14.989  69.391  1.00  0.00    -0.170 A  
HETATM   11  C   UNL     1     -10.647  15.635  70.378  1.00  0.00    -0.287 A  
HETATM   12  C   UNL     1     -11.962  15.258  70.618  1.00  0.00    -0.386 A  
HETATM   13  C   UNL     1     -12.524  14.247  69.856  1.00  0.00    -0.315 A  
HETATM   14  C   UNL     1     -11.783  13.657  68.828  1.00  0.00    -0.383 A  
ENDBRANCH   8   9
BRANCH   8  15
HETATM   15  C   UNL     1      -8.171  12.928  67.730  1.00  0.00    -0.174 A  
HETATM   16  C   UNL     1      -7.814  11.730  68.381  1.00  0.00    -0.141 A  
HETATM   17  C   UNL     1      -6.470  11.382  68.606  1.00  0.00    -0.059 A  
HETATM   18  C   UNL     1      -5.435  12.216  68.183  1.00  0.00    -0.054 A  
HETATM   19  C   UNL     1      -7.087  13.756  67.350  1.00  0.00    -0.093 A  
HETATM   20  C   UNL     1      -5.749  13.412  67.561  1.00  0.00     0.000 A  
ENDBRANCH   8  15
BRANCH   8  21
HETATM   21  C   UNL     1     -10.471  11.987  66.922  1.00  0.00    -0.251 C  
BRANCH  21  22
HETATM   22  C   UNL     1      -9.933  10.766  66.089  1.00  0.00    -0.232 C  
HETATM   23  C   UNL     1     -10.258  10.914  64.591  1.00  0.00    -0.411 C  
BRANCH  22  24
HETATM   24  N   UNL     1     -10.230   9.412  66.610  1.00  0.00    -0.258 NA 
HETATM   25  C   UNL     1      -9.138   8.447  66.423  1.00  0.00    -0.187 C  
HETATM   26  C   UNL     1     -10.583   9.399  68.043  1.00  0.00    -0.226 C  
ENDBRANCH  22  24
ENDBRANCH  21  22
ENDBRANCH   8  21
ENDBRANCH   3   8
ENDBRANCH   2   3
TORSDOF 9
ENDMDL
MODEL      198
REMARK 921   NORMALIZED FREE ENERGY PREDICTED BY IDOCK:   -3.45 KCAL/MOL
REMARK 922        TOTAL FREE ENERGY PREDICTED BY IDOCK:   -6.95 KCAL/MOL
REMARK 923 INTER-LIGAND FREE ENERGY PREDICTED BY IDOCK:   -5.95 KCAL/MOL
REMARK 924 INTRA-LIGAND FREE ENERGY PREDICTED BY IDOCK:   -1.00 KCAL/MOL
REMARK 927      BINDING AFFINITY PREDICTED BY RF-SCORE:    0.00 PKD
ROOT
HETATM    1  C   UNL     1     -10.064   5.018  72.177  1.00  0.00    -0.252 C  
HETATM    2  C   UNL     1     -10.444   5.531  70.793  1.00  0.00    -0.330 C  
ENDROOT
BRANCH   2   3
HETATM    3  C   UNL     1     -10.578   7.067  70.756  1.00  0.00    -0.219 C  
BRANCH   3   4
HETATM    4  O   UNL     1     -11.996   7.371  70.577  1.00  0.00    -0.223 OA 
BRANCH   4   5
HETATM    5  C   UNL     1     -12.746   7.657  71.674  1.00  0.00    -0.343 C  
HETATM    6  C   UNL     1     -14.189   7.319  71.403  1.00  0.00    -0.476 C  
HETATM    7  O   UNL     1     -12.342   8.192  72.696  1.00  0.00    -0.300 OA 
ENDBRANCH   4   5
ENDBRANCH   3   4
BRANCH   3   8
HETATM    8  C   UNL     1      -9.717   7.779  69.594  1.00  0.00    -0.172 C  
BRANCH   8   9
HETATM    9  C   UNL     1     -10.414   9.142  69.250  1.00  0.00    -0.231 A  
HETATM   10  C   UNL     1     -10.673   9.594  67.944  1.00  0.00    -0.302 A  
HETATM   11  C   UNL     1     -11.397  10.773  67.703  1.00  0.00    -0.328 A  
HETATM   12  C   UNL     1     -11.811  11.578  68.757  1.00  0.00    -0.394 A  
HETATM   13  C   UNL     1     -11.520  11.195  70.056  1.00  0.00    -0.376 A  
HETATM   14  C   UNL     1     -10.861   9.984  70.291  1.00  0.00    -0.370 A  
ENDBRANCH   8   9
BRANCH   8  15
HETATM   15  C   UNL     1      -9.706   6.759  68.348  1.00  0.00    -0.128 A  
HETATM   16  C   UNL     1      -8.565   6.042  67.935  1.00  0.00    -0.113 A  
HETATM   17  C   UNL     1      -8.620   5.095  66.896  1.00  0.00    -0.105 A  
HETATM   18  C   UNL     1      -9.820   4.827  66.238  1.00  0.00    -0.236 A  
HETATM   19  C   UNL     1     -10.892   6.476  67.626  1.00  0.00    -0.419 A  
HETATM   20  C   UNL     1     -10.956   5.529  66.600  1.00  0.00    -0.128 A  
ENDBRANCH   8  15
BRANCH   8  21
HETATM   21  C   UNL     1      -8.193   8.054  70.038  1.00  0.00    -0.118 C  
BRANCH  21  22
HETATM   22  C   UNL     1      -7.273   9.278  69.677  1.00  0.00    -0.063 C  
HETATM   23  C   UNL     1      -7.004   9.358  68.163  1.00  0.00    -0.075 C  
BRANCH  22  24
HETATM   24  N   UNL     1      -6.048   9.462  70.489  1.00  0.00    -0.052 NA 
HETATM   25  C   UNL     1      -5.667  10.868  70.685  1.00  0.00    -0.123 C  
HETATM   26  C   UNL     1      -6.130   8.842  71.824  1.00  0.00    -0.070 C  
ENDBRANCH  22  24
ENDBRANCH  21  22
ENDBRANCH   8  21
ENDBRANCH   3   8
ENDBRANCH   2   3
TORSDOF 9
ENDMDL
MODEL      199
REMARK 921   NORMALIZED FREE ENERGY PREDICTED BY IDOCK:   -3.44 KCAL/MOL
REMARK 922        TOTAL FREE ENERGY PREDICTED BY IDOCK:   -6.94 KCAL/MOL
REMARK 923 INTER-LIGAND FREE ENERGY PREDICTED BY IDOCK:   -5.95 KCAL/MOL
REMARK 924 INTRA-LIGAND FREE ENERGY PREDICTED BY IDOCK:   -0.99 KCAL/MOL
REMARK 927      BINDING AFFINITY PREDICTED BY RF-SCORE:    0.00 PKD
ROOT
HETATM    1  C   UNL     1     -12.134  10.750  69.758  1.00  0.00    -0.389 C  
HETATM    2  C   UNL     1     -10.707  10.243  69.580  1.00  0.00    -0.299 C  
ENDROOT
BRANCH   2   3
HETATM    3  C   UNL     1     -10.500   9.550  68.218  1.00  0.00    -0.223 C  
BRANCH   3   4
HETATM    4  O   UNL     1      -9.896   8.246  68.486  1.00  0.00    -0.166 OA 
BRANCH   4   5
HETATM    5  C   UNL     1     -10.708   7.164  68.613  1.00  0.00    -0.163 C  
HETATM    6  C   UNL     1     -11.128   6.683  67.248  1.00  0.00    -0.418 C  
HETATM    7  O   UNL     1     -11.119   6.699  69.666  1.00  0.00    -0.287 OA 
ENDBRANCH   4   5
ENDBRANCH   3   4
BRANCH   3   8
HETATM    8  C   UNL     1      -9.576  10.377  67.188  1.00  0.00    -0.192 C  
BRANCH   8   9
HETATM    9  C   UNL     1      -8.121  10.412  67.774  1.00  0.00    -0.103 A  
HETATM   10  C   UNL     1      -6.951  10.417  66.994  1.00  0.00    -0.090 A  
HETATM   11  C   UNL     1      -5.680  10.559  67.575  1.00  0.00    -0.044 A  
HETATM   12  C   UNL     1      -5.534  10.617  68.955  1.00  0.00    -0.041 A  
HETATM   13  C   UNL     1      -6.661  10.553  69.758  1.00  0.00    -0.112 A  
HETATM   14  C   UNL     1      -7.928  10.484  69.171  1.00  0.00    -0.145 A  
ENDBRANCH   8   9
BRANCH   8  15
HETATM   15  C   UNL     1     -10.230  11.843  67.068  1.00  0.00    -0.233 A  
HETATM   16  C   UNL     1     -11.496  12.091  66.499  1.00  0.00    -0.413 A  
HETATM   17  C   UNL     1     -12.067  13.376  66.494  1.00  0.00    -0.444 A  
HETATM   18  C   UNL     1     -11.395  14.459  67.062  1.00  0.00    -0.357 A  
HETATM   19  C   UNL     1      -9.574  12.980  67.601  1.00  0.00    -0.206 A  
HETATM   20  C   UNL     1     -10.140  14.258  67.607  1.00  0.00    -0.229 A  
ENDBRANCH   8  15
BRANCH   8  21
HETATM   21  C   UNL     1      -9.546   9.713  65.720  1.00  0.00    -0.329 C  
BRANCH  21  22
HETATM   22  C   UNL     1      -9.025  10.337  64.374  1.00  0.00    -0.227 C  
HETATM   23  C   UNL     1     -10.180  10.896  63.522  1.00  0.00    -0.379 C  
BRANCH  22  24
HETATM   24  N   UNL     1      -8.068   9.529  63.583  1.00  0.00    -0.141 NA 
HETATM   25  C   UNL     1      -8.630   8.983  62.340  1.00  0.00    -0.218 C  
HETATM   26  C   UNL     1      -6.840  10.263  63.220  1.00  0.00    -0.102 C  
ENDBRANCH  22  24
ENDBRANCH  21  22
ENDBRANCH   8  21
ENDBRANCH   3   8
ENDBRANCH   2   3
TORSDOF 9
ENDMDL
MODEL      200
REMARK 921   NORMALIZED FREE ENERGY PREDICTED BY IDOCK:   -3.43 KCAL/MOL
REMARK 922        TOTAL FREE ENERGY PREDICTED BY IDOCK:   -6.93 KCAL/MOL
REMARK 923 INTER-LIGAND FREE ENERGY PREDICTED BY IDOCK:   -5.53 KCAL/MOL
REMARK 924 INTRA-LIGAND FREE ENERGY PREDICTED BY IDOCK:   -1.40 KCAL/MOL
REMARK 927      BINDING AFFINITY PREDICTED BY RF-SCORE:    0.00 PKD
ROOT
HETATM    1  C   UNL     1     -12.382  10.969  69.592  1.00  0.00    -0.303 C  
HETATM    2  C   UNL     1     -11.092  11.575  69.049  1.00  0.00    -0.302 C  
ENDROOT
BRANCH   2   3
HETATM    3  C   UNL     1     -10.098  10.497  68.569  1.00  0.00    -0.173 C  
BRANCH   3   4
HETATM    4  O   UNL     1      -9.307  10.095  69.731  1.00  0.00    -0.211 OA 
BRANCH   4   5
HETATM    5  C   UNL     1      -9.493   8.852  70.249  1.00  0.00    -0.187 C  
HETATM    6  C   UNL     1     -10.169   8.958  71.591  1.00  0.00    -0.415 C  
HETATM    7  O   UNL     1      -9.095   7.806  69.757  1.00  0.00    -0.146 OA 
ENDBRANCH   4   5
ENDBRANCH   3   4
BRANCH   3   8
HETATM    8  C   UNL     1      -9.118  10.980  67.384  1.00  0.00    -0.143 C  
BRANCH   8   9
HETATM    9  C   UNL     1      -8.606   9.700  66.635  1.00  0.00    -0.137 A  
HETATM   10  C   UNL     1      -7.363   9.605  65.986  1.00  0.00    -0.099 A  
HETATM   11  C   UNL     1      -6.917   8.397  65.426  1.00  0.00    -0.074 A  
HETATM   12  C   UNL     1      -7.732   7.271  65.425  1.00  0.00    -0.111 A  
HETATM   13  C   UNL     1      -8.988   7.347  66.002  1.00  0.00    -0.156 A  
HETATM   14  C   UNL     1      -9.399   8.532  66.620  1.00  0.00    -0.243 A  
ENDBRANCH   8   9
BRANCH   8  15
HETATM   15  C   UNL     1      -7.926  11.803  68.088  1.00  0.00    -0.146 A  
HETATM   16  C   UNL     1      -7.940  13.201  68.268  1.00  0.00    -0.148 A  
HETATM   17  C   UNL     1      -6.918  13.869  68.966  1.00  0.00    -0.109 A  
HETATM   18  C   UNL     1      -5.848  13.162  69.514  1.00  0.00    -0.102 A  
HETATM   19  C   UNL     1      -6.802  11.135  68.633  1.00  0.00    -0.070 A  
HETATM   20  C   UNL     1      -5.788  11.791  69.337  1.00  0.00    -0.074 A  
ENDBRANCH   8  15
BRANCH   8  21
HETATM   21  C   UNL     1      -9.857  11.956  66.335  1.00  0.00    -0.234 C  
BRANCH  21  22
HETATM   22  C   UNL     1     -10.837  11.573  65.166  1.00  0.00    -0.265 C  
HETATM   23  C   UNL     1     -10.088  11.403  63.831  1.00  0.00    -0.393 C  
BRANCH  22  24
HETATM   24  N   UNL     1     -12.073  12.378  65.032  1.00  0.00    -0.420 NA 
HETATM   25  C   UNL     1     -12.137  13.531  65.940  1.00  0.00    -0.435 C  
HETATM   26  C   UNL     1     -12.298  12.885  63.665  1.00  0.00    -0.434 C  
ENDBRANCH  22  24
ENDBRANCH  21  22
ENDBRANCH   8  21
ENDBRANCH   3   8
ENDBRANCH   2   3
TORSDOF 9
ENDMDL
MODEL      201
REMARK 921   NORMALIZED FREE ENERGY PREDICTED BY IDOCK:   -3.43 KCAL/MOL
REMARK 922        TOTAL FREE ENERGY PREDICTED BY IDOCK:   -6.92 KCAL/MOL
REMARK 923 INTER-LIGAND FREE ENERGY PREDICTED BY IDOCK:   -5.58 KCAL/MOL
REMARK 924 INTRA-LIGAND FREE ENERGY PREDICTED BY IDOCK:   -1.34 KCAL/MOL
REMARK 927      BINDING AFFINITY PREDICTED BY RF-SCORE:    0.00 PKD
ROOT
HETATM    1  C   UNL     1     -11.088   9.910  67.494  1.00  0.00    -0.141 C  
HETATM    2  C   UNL     1     -11.852  11.229  67.531  1.00  0.00    -0.030 C  
ENDROOT
BRANCH   2   3
HETATM    3  C   UNL     1     -11.129  12.344  66.747  1.00  0.00    -0.285 C  
BRANCH   3   4
HETATM    4  O   UNL     1     -10.523  11.720  65.573  1.00  0.00    -0.248 OA 
BRANCH   4   5
HETATM    5  C   UNL     1     -11.105  11.908  64.359  1.00  0.00    -0.336 C  
HETATM    6  C   UNL     1     -10.097  11.657  63.269  1.00  0.00    -0.454 C  
HETATM    7  O   UNL     1     -12.244  12.309  64.168  1.00  0.00    -0.417 OA 
ENDBRANCH   4   5
ENDBRANCH   3   4
BRANCH   3   8
HETATM    8  C   UNL     1     -10.001  13.124  67.593  1.00  0.00    -0.219 C  
BRANCH   8   9
HETATM    9  C   UNL     1      -9.741  14.501  66.887  1.00  0.00    -0.257 A  
HETATM   10  C   UNL     1     -10.700  15.200  66.134  1.00  0.00    -0.327 A  
HETATM   11  C   UNL     1     -10.440  16.480  65.617  1.00  0.00    -0.341 A  
HETATM   12  C   UNL     1      -9.188  17.064  65.767  1.00  0.00     0.074 A  
HETATM   13  C   UNL     1      -8.200  16.377  66.452  1.00  0.00    -0.366 A  
HETATM   14  C   UNL     1      -8.486  15.134  67.024  1.00  0.00    -0.259 A  
ENDBRANCH   8   9
BRANCH   8  15
HETATM   15  C   UNL     1      -8.700  12.176  67.597  1.00  0.00    -0.172 A  
HETATM   16  C   UNL     1      -8.153  11.603  68.763  1.00  0.00    -0.072 A  
HETATM   17  C   UNL     1      -7.067  10.710  68.711  1.00  0.00    -0.076 A  
HETATM   18  C   UNL     1      -6.495  10.353  67.491  1.00  0.00    -0.058 A  
HETATM   19  C   UNL     1      -8.062  11.808  66.386  1.00  0.00     0.032 A  
HETATM   20  C   UNL     1      -6.990  10.913  66.327  1.00  0.00    -0.120 A  
ENDBRANCH   8  15
BRANCH   8  21
HETATM   21  C   UNL     1     -10.446  13.381  69.121  1.00  0.00     0.034 C  
BRANCH  21  22
HETATM   22  C   UNL     1     -11.690  14.180  69.657  1.00  0.00    -0.316 C  
HETATM   23  C   UNL     1     -11.275  15.531  70.270  1.00  0.00    -0.342 C  
BRANCH  22  24
HETATM   24  N   UNL     1     -12.655  13.439  70.501  1.00  0.00    -0.255 NA 
HETATM   25  C   UNL     1     -12.271  12.046  70.766  1.00  0.00    -0.286 C  
HETATM   26  C   UNL     1     -12.905  14.078  71.806  1.00  0.00    -0.340 C  
ENDBRANCH  22  24
ENDBRANCH  21  22
ENDBRANCH   8  21
ENDBRANCH   3   8
ENDBRANCH   2   3
TORSDOF 9
ENDMDL
MODEL      202
REMARK 921   NORMALIZED FREE ENERGY PREDICTED BY IDOCK:   -3.42 KCAL/MOL
REMARK 922        TOTAL FREE ENERGY PREDICTED BY IDOCK:   -6.90 KCAL/MOL
REMARK 923 INTER-LIGAND FREE ENERGY PREDICTED BY IDOCK:   -5.91 KCAL/MOL
REMARK 924 INTRA-LIGAND FREE ENERGY PREDICTED BY IDOCK:   -0.99 KCAL/MOL
REMARK 927      BINDING AFFINITY PREDICTED BY RF-SCORE:    0.00 PKD
ROOT
HETATM    1  C   UNL     1      -9.893   9.674  65.222  1.00  0.00    -0.269 C  
HETATM    2  C   UNL     1      -9.064  10.937  65.014  1.00  0.00    -0.209 C  
ENDROOT
BRANCH   2   3
HETATM    3  C   UNL     1      -8.383  11.409  66.315  1.00  0.00    -0.111 C  
BRANCH   3   4
HETATM    4  O   UNL     1      -7.990  10.210  67.053  1.00  0.00    -0.108 OA 
BRANCH   4   5
HETATM    5  C   UNL     1      -6.690   9.815  67.013  1.00  0.00    -0.075 C  
HETATM    6  C   UNL     1      -5.897  10.767  66.156  1.00  0.00    -0.133 C  
HETATM    7  O   UNL     1      -6.238   8.795  67.513  1.00  0.00    -0.051 OA 
ENDBRANCH   4   5
ENDBRANCH   3   4
BRANCH   3   8
HETATM    8  C   UNL     1      -9.309  12.343  67.247  1.00  0.00    -0.184 C  
BRANCH   8   9
HETATM    9  C   UNL     1      -8.397  13.465  67.855  1.00  0.00    -0.166 A  
HETATM   10  C   UNL     1      -7.054  13.677  67.498  1.00  0.00    -0.166 A  
HETATM   11  C   UNL     1      -6.323  14.766  68.000  1.00  0.00    -0.164 A  
HETATM   12  C   UNL     1      -6.884  15.627  68.934  1.00  0.00    -0.126 A  
HETATM   13  C   UNL     1      -8.186  15.412  69.355  1.00  0.00    -0.250 A  
HETATM   14  C   UNL     1      -8.932  14.369  68.800  1.00  0.00    -0.131 A  
ENDBRANCH   8   9
BRANCH   8  15
HETATM   15  C   UNL     1      -9.939  11.380  68.372  1.00  0.00    -0.206 A  
HETATM   16  C   UNL     1      -9.167  10.575  69.235  1.00  0.00    -0.164 A  
HETATM   17  C   UNL     1      -9.754   9.815  70.263  1.00  0.00    -0.279 A  
HETATM   18  C   UNL     1     -11.134   9.837  70.468  1.00  0.00    -0.384 A  
HETATM   19  C   UNL     1     -11.337  11.342  68.600  1.00  0.00    -0.336 A  
HETATM   20  C   UNL     1     -11.926  10.596  69.625  1.00  0.00    -0.340 A  
ENDBRANCH   8  15
BRANCH   8  21
HETATM   21  C   UNL     1     -10.519  13.022  66.426  1.00  0.00    -0.285 C  
BRANCH  21  22
HETATM   22  C   UNL     1     -10.444  13.917  65.134  1.00  0.00    -0.393 C  
HETATM   23  C   UNL     1     -10.109  15.381  65.476  1.00  0.00    -0.405 C  
BRANCH  22  24
HETATM   24  N   UNL     1     -11.557  13.795  64.165  1.00  0.00    -0.363 NA 
HETATM   25  C   UNL     1     -12.336  12.557  64.301  1.00  0.00    -0.456 C  
HETATM   26  C   UNL     1     -12.511  14.919  64.221  1.00  0.00    -0.157 C  
ENDBRANCH  22  24
ENDBRANCH  21  22
ENDBRANCH   8  21
ENDBRANCH   3   8
ENDBRANCH   2   3
TORSDOF 9
ENDMDL
MODEL      203
REMARK 921   NORMALIZED FREE ENERGY PREDICTED BY IDOCK:   -3.42 KCAL/MOL
REMARK 922        TOTAL FREE ENERGY PREDICTED BY IDOCK:   -6.90 KCAL/MOL
REMARK 923 INTER-LIGAND FREE ENERGY PREDICTED BY IDOCK:   -5.87 KCAL/MOL
REMARK 924 INTRA-LIGAND FREE ENERGY PREDICTED BY IDOCK:   -1.04 KCAL/MOL
REMARK 927      BINDING AFFINITY PREDICTED BY RF-SCORE:    0.00 PKD
ROOT
HETATM    1  C   UNL     1      -9.313   9.634  65.729  1.00  0.00    -0.286 C  
HETATM    2  C   UNL     1      -8.913  11.098  65.580  1.00  0.00    -0.195 C  
ENDROOT
BRANCH   2   3
HETATM    3  C   UNL     1      -9.811  12.036  66.413  1.00  0.00    -0.220 C  
BRANCH   3   4
HETATM    4  O   UNL     1     -10.367  13.027  65.494  1.00  0.00    -0.285 OA 
BRANCH   4   5
HETATM    5  C   UNL     1     -11.717  13.144  65.397  1.00  0.00    -0.350 C  
HETATM    6  C   UNL     1     -12.084  14.582  65.132  1.00  0.00    -0.363 C  
HETATM    7  O   UNL     1     -12.527  12.249  65.587  1.00  0.00    -0.591 OA 
ENDBRANCH   4   5
ENDBRANCH   3   4
BRANCH   3   8
HETATM    8  C   UNL     1      -9.050  12.780  67.623  1.00  0.00    -0.193 C  
BRANCH   8   9
HETATM    9  C   UNL     1      -8.160  11.716  68.355  1.00  0.00    -0.153 A  
HETATM   10  C   UNL     1      -6.754  11.707  68.335  1.00  0.00    -0.064 A  
HETATM   11  C   UNL     1      -6.013  10.791  69.099  1.00  0.00    -0.041 A  
HETATM   12  C   UNL     1      -6.653   9.805  69.840  1.00  0.00    -0.071 A  
HETATM   13  C   UNL     1      -8.036   9.746  69.835  1.00  0.00    -0.184 A  
HETATM   14  C   UNL     1      -8.769  10.704  69.129  1.00  0.00    -0.135 A  
ENDBRANCH   8   9
BRANCH   8  15
HETATM   15  C   UNL     1     -10.197  13.388  68.575  1.00  0.00    -0.224 A  
HETATM   16  C   UNL     1     -10.231  14.733  68.998  1.00  0.00    -0.237 A  
HETATM   17  C   UNL     1     -11.298  15.244  69.758  1.00  0.00    -0.306 A  
HETATM   18  C   UNL     1     -12.373  14.430  70.118  1.00  0.00    -0.406 A  
HETATM   19  C   UNL     1     -11.293  12.595  68.994  1.00  0.00    -0.345 A  
HETATM   20  C   UNL     1     -12.362  13.099  69.741  1.00  0.00    -0.164 A  
ENDBRANCH   8  15
BRANCH   8  21
HETATM   21  C   UNL     1      -8.121  13.993  67.109  1.00  0.00    -0.121 C  
BRANCH  21  22
HETATM   22  C   UNL     1      -8.339  15.540  67.294  1.00  0.00    -0.193 C  
HETATM   23  C   UNL     1      -8.801  16.208  65.986  1.00  0.00    -0.313 C  
BRANCH  22  24
HETATM   24  N   UNL     1      -7.264  16.296  67.976  1.00  0.00    -0.128 NA 
HETATM   25  C   UNL     1      -6.015  15.540  68.142  1.00  0.00    -0.131 C  
HETATM   26  C   UNL     1      -6.921  17.563  67.304  1.00  0.00    -0.166 C  
ENDBRANCH  22  24
ENDBRANCH  21  22
ENDBRANCH   8  21
ENDBRANCH   3   8
ENDBRANCH   2   3
TORSDOF 9
ENDMDL
MODEL      204
REMARK 921   NORMALIZED FREE ENERGY PREDICTED BY IDOCK:   -3.33 KCAL/MOL
REMARK 922        TOTAL FREE ENERGY PREDICTED BY IDOCK:   -6.77 KCAL/MOL
REMARK 923 INTER-LIGAND FREE ENERGY PREDICTED BY IDOCK:   -5.46 KCAL/MOL
REMARK 924 INTRA-LIGAND FREE ENERGY PREDICTED BY IDOCK:   -1.31 KCAL/MOL
REMARK 927      BINDING AFFINITY PREDICTED BY RF-SCORE:    0.00 PKD
ROOT
HETATM    1  C   UNL     1     -11.985  12.077  64.007  1.00  0.00    -0.499 C  
HETATM    2  C   UNL     1     -10.757  12.630  64.722  1.00  0.00    -0.335 C  
ENDROOT
BRANCH   2   3
HETATM    3  C   UNL     1      -9.798  11.513  65.184  1.00  0.00    -0.257 C  
BRANCH   3   4
HETATM    4  O   UNL     1     -10.103  10.327  64.384  1.00  0.00    -0.324 OA 
BRANCH   4   5
HETATM    5  C   UNL     1      -9.260   9.987  63.374  1.00  0.00    -0.281 C  
HETATM    6  C   UNL     1      -7.884  10.532  63.657  1.00  0.00     0.003 C  
HETATM    7  O   UNL     1      -9.576   9.408  62.345  1.00  0.00     0.091 OA 
ENDBRANCH   4   5
ENDBRANCH   3   4
BRANCH   3   8
HETATM    8  C   UNL     1      -9.905  11.155  66.751  1.00  0.00    -0.230 C  
BRANCH   8   9
HETATM    9  C   UNL     1      -8.745  11.907  67.494  1.00  0.00    -0.163 A  
HETATM   10  C   UNL     1      -7.898  11.315  68.446  1.00  0.00    -0.136 A  
HETATM   11  C   UNL     1      -6.809  12.011  68.996  1.00  0.00    -0.105 A  
HETATM   12  C   UNL     1      -6.584  13.344  68.673  1.00  0.00    -0.091 A  
HETATM   13  C   UNL     1      -7.436  13.977  67.784  1.00  0.00    -0.169 A  
HETATM   14  C   UNL     1      -8.475  13.258  67.187  1.00  0.00    -0.182 A  
ENDBRANCH   8   9
BRANCH   8  15
HETATM   15  C   UNL     1      -9.774   9.554  66.861  1.00  0.00    -0.237 A  
HETATM   16  C   UNL     1      -8.582   8.847  66.604  1.00  0.00    -0.130 A  
HETATM   17  C   UNL     1      -8.488   7.457  66.798  1.00  0.00    -0.124 A  
HETATM   18  C   UNL     1      -9.582   6.725  67.261  1.00  0.00    -0.165 A  
HETATM   19  C   UNL     1     -10.865   8.762  67.298  1.00  0.00    -0.077 A  
HETATM   20  C   UNL     1     -10.776   7.382  67.501  1.00  0.00    -0.310 A  
ENDBRANCH   8  15
BRANCH   8  21
HETATM   21  C   UNL     1     -11.320  11.593  67.387  1.00  0.00    -0.367 C  
BRANCH  21  22
HETATM   22  C   UNL     1     -11.631  12.061  68.856  1.00  0.00    -0.321 C  
HETATM   23  C   UNL     1     -12.300  10.944  69.678  1.00  0.00    -0.290 C  
BRANCH  22  24
HETATM   24  N   UNL     1     -12.300  13.372  69.018  1.00  0.00    -0.118 NA 
HETATM   25  C   UNL     1     -12.493  13.776  70.418  1.00  0.00    -0.314 C  
HETATM   26  C   UNL     1     -11.598  14.477  68.338  1.00  0.00    -0.326 C  
ENDBRANCH  22  24
ENDBRANCH  21  22
ENDBRANCH   8  21
ENDBRANCH   3   8
ENDBRANCH   2   3
TORSDOF 9
ENDMDL
MODEL      205
REMARK 921   NORMALIZED FREE ENERGY PREDICTED BY IDOCK:   -3.33 KCAL/MOL
REMARK 922        TOTAL FREE ENERGY PREDICTED BY IDOCK:   -6.76 KCAL/MOL
REMARK 923 INTER-LIGAND FREE ENERGY PREDICTED BY IDOCK:   -5.43 KCAL/MOL
REMARK 924 INTRA-LIGAND FREE ENERGY PREDICTED BY IDOCK:   -1.34 KCAL/MOL
REMARK 927      BINDING AFFINITY PREDICTED BY RF-SCORE:    0.00 PKD
ROOT
HETATM    1  C   UNL     1      -5.918   9.921  68.965  1.00  0.00    -0.034 C  
HETATM    2  C   UNL     1      -6.712   9.939  67.663  1.00  0.00    -0.073 C  
ENDROOT
BRANCH   2   3
HETATM    3  C   UNL     1      -7.235  11.349  67.319  1.00  0.00    -0.119 C  
BRANCH   3   4
HETATM    4  O   UNL     1      -6.949  12.207  68.467  1.00  0.00    -0.078 OA 
BRANCH   4   5
HETATM    5  C   UNL     1      -6.162  13.299  68.287  1.00  0.00    -0.099 C  
HETATM    6  C   UNL     1      -5.819  13.904  69.624  1.00  0.00    -0.107 C  
HETATM    7  O   UNL     1      -5.849  13.784  67.209  1.00  0.00    -0.326 OA 
ENDBRANCH   4   5
ENDBRANCH   3   4
BRANCH   3   8
HETATM    8  C   UNL     1      -8.809  11.406  66.975  1.00  0.00    -0.168 C  
BRANCH   8   9
HETATM    9  C   UNL     1      -9.541  10.388  67.918  1.00  0.00    -0.157 A  
HETATM   10  C   UNL     1     -10.027   9.134  67.508  1.00  0.00    -0.258 A  
HETATM   11  C   UNL     1     -10.577   8.224  68.424  1.00  0.00    -0.148 A  
HETATM   12  C   UNL     1     -10.734   8.569  69.761  1.00  0.00    -0.213 A  
HETATM   13  C   UNL     1     -10.322   9.820  70.188  1.00  0.00    -0.335 A  
HETATM   14  C   UNL     1      -9.710  10.695  69.286  1.00  0.00    -0.181 A  
ENDBRANCH   8   9
BRANCH   8  15
HETATM   15  C   UNL     1      -8.948  11.017  65.419  1.00  0.00    -0.192 A  
HETATM   16  C   UNL     1      -8.069  10.142  64.749  1.00  0.00    -0.153 A  
HETATM   17  C   UNL     1      -8.279   9.761  63.412  1.00  0.00    -0.158 A  
HETATM   18  C   UNL     1      -9.379  10.237  62.698  1.00  0.00    -0.335 A  
HETATM   19  C   UNL     1     -10.029  11.500  64.641  1.00  0.00    -0.305 A  
HETATM   20  C   UNL     1     -10.250  11.118  63.315  1.00  0.00    -0.403 A  
ENDBRANCH   8  15
BRANCH   8  21
HETATM   21  C   UNL     1      -9.431  12.877  67.189  1.00  0.00    -0.229 C  
BRANCH  21  22
HETATM   22  C   UNL     1     -10.807  13.273  67.840  1.00  0.00    -0.243 C  
HETATM   23  C   UNL     1     -11.949  13.262  66.807  1.00  0.00    -0.438 C  
BRANCH  22  24
HETATM   24  N   UNL     1     -10.823  14.479  68.700  1.00  0.00    -0.243 NA 
HETATM   25  C   UNL     1     -11.628  14.332  69.920  1.00  0.00    -0.276 C  
HETATM   26  C   UNL     1      -9.479  14.922  69.114  1.00  0.00    -0.158 C  
ENDBRANCH  22  24
ENDBRANCH  21  22
ENDBRANCH   8  21
ENDBRANCH   3   8
ENDBRANCH   2   3
TORSDOF 9
ENDMDL
MODEL      206
REMARK 921   NORMALIZED FREE ENERGY PREDICTED BY IDOCK:   -3.30 KCAL/MOL
REMARK 922        TOTAL FREE ENERGY PREDICTED BY IDOCK:   -6.72 KCAL/MOL
REMARK 923 INTER-LIGAND FREE ENERGY PREDICTED BY IDOCK:   -4.94 KCAL/MOL
REMARK 924 INTRA-LIGAND FREE ENERGY PREDICTED BY IDOCK:   -1.78 KCAL/MOL
REMARK 927      BINDING AFFINITY PREDICTED BY RF-SCORE:    0.00 PKD
ROOT
HETATM    1  C   UNL     1      -6.424   9.749  66.133  1.00  0.00    -0.076 C  
HETATM    2  C   UNL     1      -7.327   9.794  67.361  1.00  0.00    -0.090 C  
ENDROOT
BRANCH   2   3
HETATM    3  C   UNL     1      -8.760   9.315  67.049  1.00  0.00    -0.124 C  
BRANCH   3   4
HETATM    4  O   UNL     1      -9.661  10.422  67.362  1.00  0.00    -0.159 OA 
BRANCH   4   5
HETATM    5  C   UNL     1     -10.215  11.123  66.338  1.00  0.00    -0.233 C  
HETATM    6  C   UNL     1     -10.130  10.317  65.068  1.00  0.00    -0.353 C  
HETATM    7  O   UNL     1     -10.637  12.269  66.402  1.00  0.00    -0.234 OA 
ENDBRANCH   4   5
ENDBRANCH   3   4
BRANCH   3   8
HETATM    8  C   UNL     1      -9.210   7.999  67.865  1.00  0.00    -0.137 C  
BRANCH   8   9
HETATM    9  C   UNL     1      -8.103   7.698  68.935  1.00  0.00    -0.127 A  
HETATM   10  C   UNL     1      -7.840   8.507  70.054  1.00  0.00    -0.102 A  
HETATM   11  C   UNL     1      -6.909   8.127  71.034  1.00  0.00    -0.043 A  
HETATM   12  C   UNL     1      -6.154   6.970  70.885  1.00  0.00    -0.036 A  
HETATM   13  C   UNL     1      -6.344   6.180  69.763  1.00  0.00    -0.034 A  
HETATM   14  C   UNL     1      -7.322   6.526  68.827  1.00  0.00    -0.087 A  
ENDBRANCH   8   9
BRANCH   8  15
HETATM   15  C   UNL     1      -9.357   6.820  66.778  1.00  0.00    -0.189 A  
HETATM   16  C   UNL     1      -8.437   6.600  65.734  1.00  0.00    -0.150 A  
HETATM   17  C   UNL     1      -8.557   5.504  64.860  1.00  0.00    -0.111 A  
HETATM   18  C   UNL     1      -9.598   4.587  65.003  1.00  0.00    -0.150 A  
HETATM   19  C   UNL     1     -10.414   5.881  66.861  1.00  0.00    -0.349 A  
HETATM   20  C   UNL     1     -10.534   4.785  66.002  1.00  0.00    -0.332 A  
ENDBRANCH   8  15
BRANCH   8  21
HETATM   21  C   UNL     1     -10.630   8.190  68.602  1.00  0.00    -0.144 C  
BRANCH  21  22
HETATM   22  C   UNL     1     -11.007   7.878  70.097  1.00  0.00    -0.233 C  
HETATM   23  C   UNL     1     -11.475   6.422  70.273  1.00  0.00    -0.468 C  
BRANCH  22  24
HETATM   24  N   UNL     1     -11.885   8.850  70.788  1.00  0.00    -0.242 NA 
HETATM   25  C   UNL     1     -12.076   8.572  72.218  1.00  0.00    -0.387 C  
HETATM   26  C   UNL     1     -11.420  10.246  70.673  1.00  0.00    -0.349 C  
ENDBRANCH  22  24
ENDBRANCH  21  22
ENDBRANCH   8  21
ENDBRANCH   3   8
ENDBRANCH   2   3
TORSDOF 9
ENDMDL
MODEL      207
REMARK 921   NORMALIZED FREE ENERGY PREDICTED BY IDOCK:   -3.29 KCAL/MOL
REMARK 922        TOTAL FREE ENERGY PREDICTED BY IDOCK:   -6.71 KCAL/MOL
REMARK 923 INTER-LIGAND FREE ENERGY PREDICTED BY IDOCK:   -5.94 KCAL/MOL
REMARK 924 INTRA-LIGAND FREE ENERGY PREDICTED BY IDOCK:   -0.77 KCAL/MOL
REMARK 927      BINDING AFFINITY PREDICTED BY RF-SCORE:    0.00 PKD
ROOT
HETATM    1  C   UNL     1      -6.625   8.095  66.589  1.00  0.00    -0.056 C  
HETATM    2  C   UNL     1      -8.033   7.664  66.982  1.00  0.00    -0.116 C  
ENDROOT
BRANCH   2   3
HETATM    3  C   UNL     1      -9.100   8.690  66.551  1.00  0.00    -0.165 C  
BRANCH   3   4
HETATM    4  O   UNL     1      -8.476   9.571  65.566  1.00  0.00    -0.129 OA 
BRANCH   4   5
HETATM    5  C   UNL     1      -8.994   9.619  64.311  1.00  0.00    -0.229 C  
HETATM    6  C   UNL     1      -8.271   8.636  63.426  1.00  0.00    -0.155 C  
HETATM    7  O   UNL     1      -9.851  10.399  63.921  1.00  0.00    -0.312 OA 
ENDBRANCH   4   5
ENDBRANCH   3   4
BRANCH   3   8
HETATM    8  C   UNL     1      -9.703   9.567  67.761  1.00  0.00    -0.176 C  
BRANCH   8   9
HETATM    9  C   UNL     1      -8.506  10.296  68.467  1.00  0.00    -0.121 A  
HETATM   10  C   UNL     1      -7.892   9.850  69.650  1.00  0.00    -0.156 A  
HETATM   11  C   UNL     1      -6.755  10.487  70.173  1.00  0.00    -0.149 A  
HETATM   12  C   UNL     1      -6.247  11.634  69.577  1.00  0.00    -0.113 A  
HETATM   13  C   UNL     1      -6.864  12.137  68.444  1.00  0.00    -0.073 A  
HETATM   14  C   UNL     1      -7.953  11.459  67.888  1.00  0.00    -0.120 A  
ENDBRANCH   8   9
BRANCH   8  15
HETATM   15  C   UNL     1     -10.460   8.534  68.738  1.00  0.00    -0.208 A  
HETATM   16  C   UNL     1     -10.569   7.152  68.481  1.00  0.00    -0.219 A  
HETATM   17  C   UNL     1     -11.162   6.272  69.404  1.00  0.00    -0.489 A  
HETATM   18  C   UNL     1     -11.663   6.741  70.618  1.00  0.00    -0.440 A  
HETATM   19  C   UNL     1     -11.013   8.966  69.968  1.00  0.00    -0.217 A  
HETATM   20  C   UNL     1     -11.595   8.095  70.894  1.00  0.00    -0.283 A  
ENDBRANCH   8  15
BRANCH   8  21
HETATM   21  C   UNL     1     -10.772  10.662  67.254  1.00  0.00    -0.338 C  
BRANCH  21  22
HETATM   22  C   UNL     1     -10.936  12.157  67.714  1.00  0.00    -0.233 C  
HETATM   23  C   UNL     1     -11.779  12.267  68.998  1.00  0.00    -0.376 C  
BRANCH  22  24
HETATM   24  N   UNL     1     -11.334  13.140  66.680  1.00  0.00    -0.312 NA 
HETATM   25  C   UNL     1     -11.928  12.537  65.479  1.00  0.00    -0.442 C  
HETATM   26  C   UNL     1     -12.281  14.158  67.172  1.00  0.00    -0.313 C  
ENDBRANCH  22  24
ENDBRANCH  21  22
ENDBRANCH   8  21
ENDBRANCH   3   8
ENDBRANCH   2   3
TORSDOF 9
ENDMDL
MODEL      208
REMARK 921   NORMALIZED FREE ENERGY PREDICTED BY IDOCK:   -3.27 KCAL/MOL
REMARK 922        TOTAL FREE ENERGY PREDICTED BY IDOCK:   -6.68 KCAL/MOL
REMARK 923 INTER-LIGAND FREE ENERGY PREDICTED BY IDOCK:   -5.74 KCAL/MOL
REMARK 924 INTRA-LIGAND FREE ENERGY PREDICTED BY IDOCK:   -0.94 KCAL/MOL
REMARK 927      BINDING AFFINITY PREDICTED BY RF-SCORE:    0.00 PKD
ROOT
HETATM    1  C   UNL     1      -7.598   8.994  71.095  1.00  0.00    -0.130 C  
HETATM    2  C   UNL     1      -7.724   8.055  69.901  1.00  0.00    -0.099 C  
ENDROOT
BRANCH   2   3
HETATM    3  C   UNL     1      -8.329   8.756  68.668  1.00  0.00    -0.128 C  
BRANCH   3   4
HETATM    4  O   UNL     1      -8.307  10.193  68.937  1.00  0.00    -0.113 OA 
BRANCH   4   5
HETATM    5  C   UNL     1      -7.323  10.947  68.381  1.00  0.00    -0.094 C  
HETATM    6  C   UNL     1      -7.280  12.297  69.050  1.00  0.00    -0.023 C  
HETATM    7  O   UNL     1      -6.634  10.629  67.423  1.00  0.00    -0.068 OA 
ENDBRANCH   4   5
ENDBRANCH   3   4
BRANCH   3   8
HETATM    8  C   UNL     1      -9.830   8.291  68.311  1.00  0.00    -0.192 C  
BRANCH   8   9
HETATM    9  C   UNL     1     -10.638   8.211  69.653  1.00  0.00    -0.223 A  
HETATM   10  C   UNL     1     -10.909   7.018  70.346  1.00  0.00    -0.283 A  
HETATM   11  C   UNL     1     -11.544   7.024  71.599  1.00  0.00    -0.320 A  
HETATM   12  C   UNL     1     -12.000   8.211  72.158  1.00  0.00    -0.413 A  
HETATM   13  C   UNL     1     -11.804   9.399  71.474  1.00  0.00    -0.456 A  
HETATM   14  C   UNL     1     -11.109   9.396  70.261  1.00  0.00    -0.299 A  
ENDBRANCH   8   9
BRANCH   8  15
HETATM   15  C   UNL     1      -9.701   6.862  67.580  1.00  0.00    -0.151 A  
HETATM   16  C   UNL     1      -8.559   6.041  67.665  1.00  0.00    -0.106 A  
HETATM   17  C   UNL     1      -8.522   4.761  67.083  1.00  0.00    -0.105 A  
HETATM   18  C   UNL     1      -9.629   4.254  66.401  1.00  0.00    -0.209 A  
HETATM   19  C   UNL     1     -10.785   6.317  66.849  1.00  0.00    -0.411 A  
HETATM   20  C   UNL     1     -10.759   5.042  66.277  1.00  0.00    -0.262 A  
ENDBRANCH   8  15
BRANCH   8  21
HETATM   21  C   UNL     1     -10.566   9.312  67.303  1.00  0.00    -0.303 C  
BRANCH  21  22
HETATM   22  C   UNL     1     -10.067  10.713  66.791  1.00  0.00    -0.224 C  
HETATM   23  C   UNL     1     -11.060  11.834  67.149  1.00  0.00    -0.350 C  
BRANCH  22  24
HETATM   24  N   UNL     1      -9.596  10.789  65.389  1.00  0.00    -0.208 NA 
HETATM   25  C   UNL     1      -9.072   9.521  64.865  1.00  0.00    -0.223 C  
HETATM   26  C   UNL     1     -10.631  11.257  64.447  1.00  0.00    -0.345 C  
ENDBRANCH  22  24
ENDBRANCH  21  22
ENDBRANCH   8  21
ENDBRANCH   3   8
ENDBRANCH   2   3
TORSDOF 9
ENDMDL
MODEL      209
REMARK 921   NORMALIZED FREE ENERGY PREDICTED BY IDOCK:   -3.24 KCAL/MOL
REMARK 922        TOTAL FREE ENERGY PREDICTED BY IDOCK:   -6.63 KCAL/MOL
REMARK 923 INTER-LIGAND FREE ENERGY PREDICTED BY IDOCK:   -4.98 KCAL/MOL
REMARK 924 INTRA-LIGAND FREE ENERGY PREDICTED BY IDOCK:   -1.65 KCAL/MOL
REMARK 927      BINDING AFFINITY PREDICTED BY RF-SCORE:    0.00 PKD
ROOT
HETATM    1  C   UNL     1      -6.282   7.231  71.642  1.00  0.00    -0.037 C  
HETATM    2  C   UNL     1      -6.869   6.894  70.275  1.00  0.00    -0.057 C  
ENDROOT
BRANCH   2   3
HETATM    3  C   UNL     1      -7.574   8.104  69.629  1.00  0.00    -0.099 C  
BRANCH   3   4
HETATM    4  O   UNL     1      -7.314   9.261  70.484  1.00  0.00    -0.087 OA 
BRANCH   4   5
HETATM    5  C   UNL     1      -6.532  10.264  70.006  1.00  0.00    -0.116 C  
HETATM    6  C   UNL     1      -5.911   9.844  68.699  1.00  0.00    -0.038 C  
HETATM    7  O   UNL     1      -6.286  11.314  70.582  1.00  0.00    -0.334 OA 
ENDBRANCH   4   5
ENDBRANCH   3   4
BRANCH   3   8
HETATM    8  C   UNL     1      -9.163   7.918  69.432  1.00  0.00    -0.145 C  
BRANCH   8   9
HETATM    9  C   UNL     1      -9.754   7.393  70.787  1.00  0.00    -0.171 A  
HETATM   10  C   UNL     1     -10.280   8.218  71.797  1.00  0.00    -0.297 A  
HETATM   11  C   UNL     1     -10.893   7.682  72.940  1.00  0.00    -0.446 A  
HETATM   12  C   UNL     1     -10.926   6.308  73.149  1.00  0.00    -0.251 A  
HETATM   13  C   UNL     1     -10.362   5.468  72.204  1.00  0.00    -0.263 A  
HETATM   14  C   UNL     1      -9.816   6.004  71.035  1.00  0.00    -0.220 A  
ENDBRANCH   8   9
BRANCH   8  15
HETATM   15  C   UNL     1      -9.351   6.868  68.227  1.00  0.00    -0.125 A  
HETATM   16  C   UNL     1     -10.604   6.377  67.806  1.00  0.00    -0.331 A  
HETATM   17  C   UNL     1     -10.730   5.528  66.691  1.00  0.00    -0.332 A  
HETATM   18  C   UNL     1      -9.610   5.144  65.955  1.00  0.00    -0.163 A  
HETATM   19  C   UNL     1      -8.241   6.423  67.467  1.00  0.00    -0.117 A  
HETATM   20  C   UNL     1      -8.361   5.587  66.353  1.00  0.00    -0.111 A  
ENDBRANCH   8  15
BRANCH   8  21
HETATM   21  C   UNL     1      -9.897   9.294  69.025  1.00  0.00    -0.168 C  
BRANCH  21  22
HETATM   22  C   UNL     1      -9.530  10.295  67.868  1.00  0.00    -0.141 C  
HETATM   23  C   UNL     1      -9.526  11.754  68.359  1.00  0.00    -0.188 C  
BRANCH  22  24
HETATM   24  N   UNL     1     -10.241  10.125  66.580  1.00  0.00    -0.224 NA 
HETATM   25  C   UNL     1     -10.723  11.382  65.993  1.00  0.00    -0.263 C  
HETATM   26  C   UNL     1      -9.435   9.443  65.550  1.00  0.00    -0.260 C  
ENDBRANCH  22  24
ENDBRANCH  21  22
ENDBRANCH   8  21
ENDBRANCH   3   8
ENDBRANCH   2   3
TORSDOF 9
ENDMDL
MODEL      210
REMARK 921   NORMALIZED FREE ENERGY PREDICTED BY IDOCK:   -3.20 KCAL/MOL
REMARK 922        TOTAL FREE ENERGY PREDICTED BY IDOCK:   -6.57 KCAL/MOL
REMARK 923 INTER-LIGAND FREE ENERGY PREDICTED BY IDOCK:   -5.66 KCAL/MOL
REMARK 924 INTRA-LIGAND FREE ENERGY PREDICTED BY IDOCK:   -0.91 KCAL/MOL
REMARK 927      BINDING AFFINITY PREDICTED BY RF-SCORE:    0.00 PKD
ROOT
HETATM    1  C   UNL     1      -6.573  11.765  68.174  1.00  0.00    -0.056 C  
HETATM    2  C   UNL     1      -7.698  12.028  67.180  1.00  0.00    -0.161 C  
ENDROOT
BRANCH   2   3
HETATM    3  C   UNL     1      -9.067  12.180  67.875  1.00  0.00    -0.185 C  
BRANCH   3   4
HETATM    4  O   UNL     1      -9.887  11.042  67.464  1.00  0.00    -0.167 OA 
BRANCH   4   5
HETATM    5  C   UNL     1     -10.196  10.093  68.385  1.00  0.00    -0.169 C  
HETATM    6  C   UNL     1     -11.522  10.416  69.022  1.00  0.00    -0.258 C  
HETATM    7  O   UNL     1      -9.475   9.164  68.723  1.00  0.00    -0.145 OA 
ENDBRANCH   4   5
ENDBRANCH   3   4
BRANCH   3   8
HETATM    8  C   UNL     1      -9.834  13.556  67.533  1.00  0.00    -0.227 C  
BRANCH   8   9
HETATM    9  C   UNL     1     -10.570  13.364  66.160  1.00  0.00    -0.294 A  
HETATM   10  C   UNL     1      -9.921  13.100  64.942  1.00  0.00    -0.152 A  
HETATM   11  C   UNL     1     -10.643  12.831  63.767  1.00  0.00    -0.370 A  
HETATM   12  C   UNL     1     -12.031  12.900  63.757  1.00  0.00    -0.582 A  
HETATM   13  C   UNL     1     -12.701  13.218  64.926  1.00  0.00    -0.391 A  
HETATM   14  C   UNL     1     -11.980  13.415  66.107  1.00  0.00    -0.460 A  
ENDBRANCH   8   9
BRANCH   8  15
HETATM   15  C   UNL     1      -8.705  14.703  67.474  1.00  0.00    -0.194 A  
HETATM   16  C   UNL     1      -7.670  14.831  68.423  1.00  0.00    -0.122 A  
HETATM   17  C   UNL     1      -6.654  15.793  68.285  1.00  0.00    -0.124 A  
HETATM   18  C   UNL     1      -6.632  16.657  67.190  1.00  0.00    -0.222 A  
HETATM   19  C   UNL     1      -8.658  15.624  66.399  1.00  0.00    -0.319 A  
HETATM   20  C   UNL     1      -7.645  16.576  66.251  1.00  0.00    -0.157 A  
ENDBRANCH   8  15
BRANCH   8  21
HETATM   21  C   UNL     1     -10.908  13.959  68.665  1.00  0.00    -0.278 C  
BRANCH  21  22
HETATM   22  C   UNL     1     -10.889  15.197  69.635  1.00  0.00    -0.286 C  
HETATM   23  C   UNL     1     -11.590  14.882  70.970  1.00  0.00    -0.344 C  
BRANCH  22  24
HETATM   24  N   UNL     1     -11.295  16.503  69.068  1.00  0.00    -0.242 NA 
HETATM   25  C   UNL     1     -10.208  17.489  69.000  1.00  0.00    -0.314 C  
HETATM   26  C   UNL     1     -11.877  16.401  67.717  1.00  0.00     0.560 C  
ENDBRANCH  22  24
ENDBRANCH  21  22
ENDBRANCH   8  21
ENDBRANCH   3   8
ENDBRANCH   2   3
TORSDOF 9
ENDMDL
MODEL      211
REMARK 921   NORMALIZED FREE ENERGY PREDICTED BY IDOCK:   -3.18 KCAL/MOL
REMARK 922        TOTAL FREE ENERGY PREDICTED BY IDOCK:   -6.54 KCAL/MOL
REMARK 923 INTER-LIGAND FREE ENERGY PREDICTED BY IDOCK:   -5.79 KCAL/MOL
REMARK 924 INTRA-LIGAND FREE ENERGY PREDICTED BY IDOCK:   -0.75 KCAL/MOL
REMARK 927      BINDING AFFINITY PREDICTED BY RF-SCORE:    0.00 PKD
ROOT
HETATM    1  C   UNL     1      -9.538   4.805  68.741  1.00  0.00    -0.227 C  
HETATM    2  C   UNL     1     -10.747   5.568  69.271  1.00  0.00    -0.288 C  
ENDROOT
BRANCH   2   3
HETATM    3  C   UNL     1     -10.514   7.092  69.287  1.00  0.00    -0.211 C  
BRANCH   3   4
HETATM    4  O   UNL     1      -9.441   7.373  68.335  1.00  0.00    -0.143 OA 
BRANCH   4   5
HETATM    5  C   UNL     1      -9.750   7.995  67.167  1.00  0.00    -0.195 C  
HETATM    6  C   UNL     1      -8.519   8.656  66.603  1.00  0.00    -0.115 C  
HETATM    7  O   UNL     1     -10.869   8.091  66.683  1.00  0.00    -0.115 OA 
ENDBRANCH   4   5
ENDBRANCH   3   4
BRANCH   3   8
HETATM    8  C   UNL     1     -10.128   7.688  70.734  1.00  0.00    -0.189 C  
BRANCH   8   9
HETATM    9  C   UNL     1     -11.148   8.832  71.068  1.00  0.00    -0.328 A  
HETATM   10  C   UNL     1     -11.130  10.109  70.478  1.00  0.00    -0.400 A  
HETATM   11  C   UNL     1     -12.135  11.053  70.739  1.00  0.00    -0.467 A  
HETATM   12  C   UNL     1     -13.142  10.783  71.658  1.00  0.00    -0.551 A  
HETATM   13  C   UNL     1     -13.156   9.558  72.303  1.00  0.00    -0.492 A  
HETATM   14  C   UNL     1     -12.193   8.595  71.987  1.00  0.00    -0.439 A  
ENDBRANCH   8   9
BRANCH   8  15
HETATM   15  C   UNL     1      -8.614   8.224  70.615  1.00  0.00    -0.139 A  
HETATM   16  C   UNL     1      -7.481   7.390  70.693  1.00  0.00    -0.078 A  
HETATM   17  C   UNL     1      -6.180   7.887  70.496  1.00  0.00    -0.036 A  
HETATM   18  C   UNL     1      -5.967   9.236  70.209  1.00  0.00    -0.037 A  
HETATM   19  C   UNL     1      -8.343   9.590  70.355  1.00  0.00    -0.226 A  
HETATM   20  C   UNL     1      -7.054  10.089  70.149  1.00  0.00    -0.157 A  
ENDBRANCH   8  15
BRANCH   8  21
HETATM   21  C   UNL     1     -10.180   6.569  71.893  1.00  0.00    -0.214 C  
BRANCH  21  22
HETATM   22  C   UNL     1      -9.347   6.499  73.225  1.00  0.00    -0.131 C  
HETATM   23  C   UNL     1      -9.068   7.903  73.794  1.00  0.00    -0.306 C  
BRANCH  22  24
HETATM   24  N   UNL     1      -8.148   5.631  73.225  1.00  0.00    -0.114 NA 
HETATM   25  C   UNL     1      -7.577   5.400  74.559  1.00  0.00    -0.088 C  
HETATM   26  C   UNL     1      -8.382   4.308  72.616  1.00  0.00    -0.101 C  
ENDBRANCH  22  24
ENDBRANCH  21  22
ENDBRANCH   8  21
ENDBRANCH   3   8
ENDBRANCH   2   3
TORSDOF 9
ENDMDL
MODEL      212
REMARK 921   NORMALIZED FREE ENERGY PREDICTED BY IDOCK:   -3.18 KCAL/MOL
REMARK 922        TOTAL FREE ENERGY PREDICTED BY IDOCK:   -6.54 KCAL/MOL
REMARK 923 INTER-LIGAND FREE ENERGY PREDICTED BY IDOCK:   -5.50 KCAL/MOL
REMARK 924 INTRA-LIGAND FREE ENERGY PREDICTED BY IDOCK:   -1.04 KCAL/MOL
REMARK 927      BINDING AFFINITY PREDICTED BY RF-SCORE:    0.00 PKD
ROOT
HETATM    1  C   UNL     1     -10.394  11.492  66.485  1.00  0.00    -0.269 C  
HETATM    2  C   UNL     1     -10.684  10.008  66.674  1.00  0.00    -0.128 C  
ENDROOT
BRANCH   2   3
HETATM    3  C   UNL     1     -10.902   9.640  68.157  1.00  0.00    -0.190 C  
BRANCH   3   4
HETATM    4  O   UNL     1     -10.799  10.879  68.926  1.00  0.00    -0.189 OA 
BRANCH   4   5
HETATM    5  C   UNL     1     -11.894  11.325  69.596  1.00  0.00    -0.360 C  
HETATM    6  C   UNL     1     -11.837  12.825  69.720  1.00  0.00    -0.380 C  
HETATM    7  O   UNL     1     -12.754  10.622  70.108  1.00  0.00    -0.308 OA 
ENDBRANCH   4   5
ENDBRANCH   3   4
BRANCH   3   8
HETATM    8  C   UNL     1      -9.859   8.554  68.730  1.00  0.00    -0.180 C  
BRANCH   8   9
HETATM    9  C   UNL     1     -10.326   8.158  70.175  1.00  0.00    -0.215 A  
HETATM   10  C   UNL     1     -11.489   7.421  70.459  1.00  0.00    -0.281 A  
HETATM   11  C   UNL     1     -11.796   7.006  71.765  1.00  0.00    -0.347 A  
HETATM   12  C   UNL     1     -10.995   7.384  72.836  1.00  0.00    -0.408 A  
HETATM   13  C   UNL     1      -9.874   8.162  72.600  1.00  0.00    -0.364 A  
HETATM   14  C   UNL     1      -9.535   8.512  71.290  1.00  0.00    -0.265 A  
ENDBRANCH   8   9
BRANCH   8  15
HETATM   15  C   UNL     1      -8.414   9.263  68.720  1.00  0.00    -0.129 A  
HETATM   16  C   UNL     1      -7.991  10.191  69.694  1.00  0.00    -0.181 A  
HETATM   17  C   UNL     1      -6.687  10.719  69.696  1.00  0.00    -0.122 A  
HETATM   18  C   UNL     1      -5.759  10.336  68.729  1.00  0.00    -0.041 A  
HETATM   19  C   UNL     1      -7.446   8.931  67.741  1.00  0.00    -0.093 A  
HETATM   20  C   UNL     1      -6.146   9.445  67.743  1.00  0.00    -0.053 A  
ENDBRANCH   8  15
BRANCH   8  21
HETATM   21  C   UNL     1      -9.782   7.232  67.811  1.00  0.00    -0.167 C  
BRANCH  21  22
HETATM   22  C   UNL     1      -9.391   5.768  68.233  1.00  0.00    -0.117 C  
HETATM   23  C   UNL     1      -8.115   5.747  69.094  1.00  0.00    -0.101 C  
BRANCH  22  24
HETATM   24  N   UNL     1      -9.382   4.739  67.168  1.00  0.00    -0.128 NA 
HETATM   25  C   UNL     1      -9.534   3.364  67.663  1.00  0.00    -0.181 C  
HETATM   26  C   UNL     1     -10.419   4.950  66.140  1.00  0.00    -0.302 C  
ENDBRANCH  22  24
ENDBRANCH  21  22
ENDBRANCH   8  21
ENDBRANCH   3   8
ENDBRANCH   2   3
TORSDOF 9
ENDMDL
MODEL      213
REMARK 921   NORMALIZED FREE ENERGY PREDICTED BY IDOCK:   -3.17 KCAL/MOL
REMARK 922        TOTAL FREE ENERGY PREDICTED BY IDOCK:   -6.53 KCAL/MOL
REMARK 923 INTER-LIGAND FREE ENERGY PREDICTED BY IDOCK:   -5.34 KCAL/MOL
REMARK 924 INTRA-LIGAND FREE ENERGY PREDICTED BY IDOCK:   -1.20 KCAL/MOL
REMARK 927      BINDING AFFINITY PREDICTED BY RF-SCORE:    0.00 PKD
ROOT
HETATM    1  C   UNL     1      -7.595   7.620  65.962  1.00  0.00    -0.088 C  
HETATM    2  C   UNL     1      -8.427   8.098  67.147  1.00  0.00    -0.124 C  
ENDROOT
BRANCH   2   3
HETATM    3  C   UNL     1      -9.673   7.218  67.379  1.00  0.00    -0.150 C  
BRANCH   3   4
HETATM    4  O   UNL     1     -10.843   8.078  67.212  1.00  0.00    -0.261 OA 
BRANCH   4   5
HETATM    5  C   UNL     1     -10.652   9.399  66.956  1.00  0.00    -0.201 C  
HETATM    6  C   UNL     1     -11.024  10.209  68.170  1.00  0.00    -0.313 C  
HETATM    7  O   UNL     1     -10.319   9.878  65.881  1.00  0.00    -0.223 OA 
ENDBRANCH   4   5
ENDBRANCH   3   4
BRANCH   3   8
HETATM    8  C   UNL     1      -9.721   6.506  68.823  1.00  0.00    -0.131 C  
BRANCH   8   9
HETATM    9  C   UNL     1      -8.605   7.155  69.714  1.00  0.00    -0.141 A  
HETATM   10  C   UNL     1      -7.346   6.576  69.956  1.00  0.00    -0.089 A  
HETATM   11  C   UNL     1      -6.350   7.256  70.674  1.00  0.00    -0.039 A  
HETATM   12  C   UNL     1      -6.607   8.498  71.242  1.00  0.00    -0.062 A  
HETATM   13  C   UNL     1      -7.857   9.071  71.075  1.00  0.00    -0.174 A  
HETATM   14  C   UNL     1      -8.821   8.421  70.300  1.00  0.00    -0.142 A  
ENDBRANCH   8   9
BRANCH   8  15
HETATM   15  C   UNL     1      -9.472   4.936  68.565  1.00  0.00    -0.194 A  
HETATM   16  C   UNL     1      -9.542   3.956  69.576  1.00  0.00    -0.248 A  
HETATM   17  C   UNL     1      -9.405   2.586  69.290  1.00  0.00    -0.183 A  
HETATM   18  C   UNL     1      -9.198   2.147  67.982  1.00  0.00    -0.242 A  
HETATM   19  C   UNL     1      -9.228   4.443  67.260  1.00  0.00    -0.160 A  
HETATM   20  C   UNL     1      -9.100   3.082  66.967  1.00  0.00    -0.196 A  
ENDBRANCH   8  15
BRANCH   8  21
HETATM   21  C   UNL     1     -11.152   6.680  69.546  1.00  0.00    -0.378 C  
BRANCH  21  22
HETATM   22  C   UNL     1     -11.455   7.154  71.015  1.00  0.00    -0.297 C  
HETATM   23  C   UNL     1     -11.485   5.969  71.999  1.00  0.00    -0.343 C  
BRANCH  22  24
HETATM   24  N   UNL     1     -12.592   8.084  71.202  1.00  0.00    -0.222 NA 
HETATM   25  C   UNL     1     -13.843   7.426  71.602  1.00  0.00    -0.382 C  
HETATM   26  C   UNL     1     -12.324   9.148  72.188  1.00  0.00    -0.354 C  
ENDBRANCH  22  24
ENDBRANCH  21  22
ENDBRANCH   8  21
ENDBRANCH   3   8
ENDBRANCH   2   3
TORSDOF 9
ENDMDL
MODEL      214
REMARK 921   NORMALIZED FREE ENERGY PREDICTED BY IDOCK:   -3.15 KCAL/MOL
REMARK 922        TOTAL FREE ENERGY PREDICTED BY IDOCK:   -6.50 KCAL/MOL
REMARK 923 INTER-LIGAND FREE ENERGY PREDICTED BY IDOCK:   -5.06 KCAL/MOL
REMARK 924 INTRA-LIGAND FREE ENERGY PREDICTED BY IDOCK:   -1.44 KCAL/MOL
REMARK 927      BINDING AFFINITY PREDICTED BY RF-SCORE:    0.00 PKD
ROOT
HETATM    1  C   UNL     1      -8.658  10.596  68.736  1.00  0.00    -0.150 C  
HETATM    2  C   UNL     1      -9.675   9.488  68.985  1.00  0.00    -0.170 C  
ENDROOT
BRANCH   2   3
HETATM    3  C   UNL     1      -9.004   8.165  69.410  1.00  0.00    -0.147 C  
BRANCH   3   4
HETATM    4  O   UNL     1      -8.173   7.726  68.291  1.00  0.00    -0.122 OA 
BRANCH   4   5
HETATM    5  C   UNL     1      -6.839   7.566  68.492  1.00  0.00    -0.066 C  
HETATM    6  C   UNL     1      -6.339   6.403  67.675  1.00  0.00    -0.040 C  
HETATM    7  O   UNL     1      -6.154   8.201  69.281  1.00  0.00    -0.036 OA 
ENDBRANCH   4   5
ENDBRANCH   3   4
BRANCH   3   8
HETATM    8  C   UNL     1     -10.040   6.997  69.812  1.00  0.00    -0.197 C  
BRANCH   8   9
HETATM    9  C   UNL     1      -9.467   6.264  71.075  1.00  0.00    -0.187 A  
HETATM   10  C   UNL     1      -8.266   6.612  71.718  1.00  0.00    -0.110 A  
HETATM   11  C   UNL     1      -7.861   5.986  72.909  1.00  0.00    -0.106 A  
HETATM   12  C   UNL     1      -8.601   4.940  73.447  1.00  0.00    -0.105 A  
HETATM   13  C   UNL     1      -9.757   4.531  72.806  1.00  0.00    -0.180 A  
HETATM   14  C   UNL     1     -10.192   5.203  71.661  1.00  0.00    -0.276 A  
ENDBRANCH   8   9
BRANCH   8  15
HETATM   15  C   UNL     1     -10.150   6.028  68.531  1.00  0.00    -0.197 A  
HETATM   16  C   UNL     1     -10.836   6.369  67.348  1.00  0.00    -0.457 A  
HETATM   17  C   UNL     1     -10.833   5.529  66.220  1.00  0.00    -0.127 A  
HETATM   18  C   UNL     1     -10.139   4.319  66.233  1.00  0.00    -0.196 A  
HETATM   19  C   UNL     1      -9.488   4.775  68.506  1.00  0.00    -0.200 A  
HETATM   20  C   UNL     1      -9.473   3.940  67.385  1.00  0.00    -0.236 A  
ENDBRANCH   8  15
BRANCH   8  21
HETATM   21  C   UNL     1     -11.510   7.567  70.145  1.00  0.00    -0.116 C  
BRANCH  21  22
HETATM   22  C   UNL     1     -11.942   8.552  71.292  1.00  0.00    -0.294 C  
HETATM   23  C   UNL     1     -11.869   7.879  72.675  1.00  0.00    -0.352 C  
BRANCH  22  24
HETATM   24  N   UNL     1     -13.196   9.314  71.090  1.00  0.00    -0.242 NA 
HETATM   25  C   UNL     1     -14.351   8.767  71.816  1.00  0.00    -0.330 C  
HETATM   26  C   UNL     1     -13.083  10.738  71.459  1.00  0.00    -0.414 C  
ENDBRANCH  22  24
ENDBRANCH  21  22
ENDBRANCH   8  21
ENDBRANCH   3   8
ENDBRANCH   2   3
TORSDOF 9
ENDMDL
MODEL      215
REMARK 921   NORMALIZED FREE ENERGY PREDICTED BY IDOCK:   -3.15 KCAL/MOL
REMARK 922        TOTAL FREE ENERGY PREDICTED BY IDOCK:   -6.50 KCAL/MOL
REMARK 923 INTER-LIGAND FREE ENERGY PREDICTED BY IDOCK:   -5.85 KCAL/MOL
REMARK 924 INTRA-LIGAND FREE ENERGY PREDICTED BY IDOCK:   -0.65 KCAL/MOL
REMARK 927      BINDING AFFINITY PREDICTED BY RF-SCORE:    0.00 PKD
ROOT
HETATM    1  C   UNL     1     -11.031   6.366  67.174  1.00  0.00    -0.476 C  
HETATM    2  C   UNL     1      -9.698   6.396  67.914  1.00  0.00    -0.124 C  
ENDROOT
BRANCH   2   3
HETATM    3  C   UNL     1      -9.854   6.849  69.380  1.00  0.00    -0.158 C  
BRANCH   3   4
HETATM    4  O   UNL     1     -11.287   6.963  69.645  1.00  0.00    -0.259 OA 
BRANCH   4   5
HETATM    5  C   UNL     1     -11.781   6.450  70.802  1.00  0.00    -0.312 C  
HETATM    6  C   UNL     1     -12.993   7.237  71.228  1.00  0.00    -0.377 C  
HETATM    7  O   UNL     1     -11.276   5.550  71.457  1.00  0.00    -0.174 OA 
ENDBRANCH   4   5
ENDBRANCH   3   4
BRANCH   3   8
HETATM    8  C   UNL     1      -9.124   8.244  69.724  1.00  0.00    -0.147 C  
BRANCH   8   9
HETATM    9  C   UNL     1      -8.538   8.133  71.175  1.00  0.00    -0.153 A  
HETATM   10  C   UNL     1      -7.167   8.037  71.471  1.00  0.00    -0.071 A  
HETATM   11  C   UNL     1      -6.698   8.049  72.795  1.00  0.00    -0.090 A  
HETATM   12  C   UNL     1      -7.588   8.074  73.862  1.00  0.00    -0.219 A  
HETATM   13  C   UNL     1      -8.949   8.106  73.607  1.00  0.00    -0.275 A  
HETATM   14  C   UNL     1      -9.406   8.166  72.288  1.00  0.00    -0.290 A  
ENDBRANCH   8   9
BRANCH   8  15
HETATM   15  C   UNL     1     -10.250   9.389  69.598  1.00  0.00    -0.225 A  
HETATM   16  C   UNL     1     -10.879   9.992  70.706  1.00  0.00    -0.330 A  
HETATM   17  C   UNL     1     -11.794  11.050  70.553  1.00  0.00    -0.464 A  
HETATM   18  C   UNL     1     -12.107  11.546  69.288  1.00  0.00    -0.344 A  
HETATM   19  C   UNL     1     -10.626   9.905  68.334  1.00  0.00    -0.258 A  
HETATM   20  C   UNL     1     -11.526  10.962  68.175  1.00  0.00    -0.368 A  
ENDBRANCH   8  15
BRANCH   8  21
HETATM   21  C   UNL     1      -7.935   8.586  68.690  1.00  0.00    -0.116 C  
BRANCH  21  22
HETATM   22  C   UNL     1      -7.274   9.980  68.386  1.00  0.00    -0.073 C  
HETATM   23  C   UNL     1      -7.109  10.822  69.665  1.00  0.00    -0.136 C  
BRANCH  22  24
HETATM   24  N   UNL     1      -7.830  10.757  67.255  1.00  0.00    -0.111 NA 
HETATM   25  C   UNL     1      -7.721  12.213  67.419  1.00  0.00    -0.165 C  
HETATM   26  C   UNL     1      -7.222  10.418  65.954  1.00  0.00    -0.135 C  
ENDBRANCH  22  24
ENDBRANCH  21  22
ENDBRANCH   8  21
ENDBRANCH   3   8
ENDBRANCH   2   3
TORSDOF 9
ENDMDL
MODEL      216
REMARK 921   NORMALIZED FREE ENERGY PREDICTED BY IDOCK:   -3.14 KCAL/MOL
REMARK 922        TOTAL FREE ENERGY PREDICTED BY IDOCK:   -6.48 KCAL/MOL
REMARK 923 INTER-LIGAND FREE ENERGY PREDICTED BY IDOCK:   -4.52 KCAL/MOL
REMARK 924 INTRA-LIGAND FREE ENERGY PREDICTED BY IDOCK:   -1.95 KCAL/MOL
REMARK 927      BINDING AFFINITY PREDICTED BY RF-SCORE:    0.00 PKD
ROOT
HETATM    1  C   UNL     1     -11.004   6.394  66.978  1.00  0.00    -0.463 C  
HETATM    2  C   UNL     1     -10.600   7.524  67.919  1.00  0.00    -0.250 C  
ENDROOT
BRANCH   2   3
HETATM    3  C   UNL     1      -9.170   7.344  68.468  1.00  0.00    -0.142 C  
BRANCH   3   4
HETATM    4  O   UNL     1      -8.423   6.573  67.477  1.00  0.00    -0.119 OA 
BRANCH   4   5
HETATM    5  C   UNL     1      -7.585   7.231  66.633  1.00  0.00    -0.093 C  
HETATM    6  C   UNL     1      -6.181   7.190  67.178  1.00  0.00    -0.049 C  
HETATM    7  O   UNL     1      -7.920   7.846  65.631  1.00  0.00    -0.102 OA 
ENDBRANCH   4   5
ENDBRANCH   3   4
BRANCH   3   8
HETATM    8  C   UNL     1      -9.098   6.606  69.899  1.00  0.00    -0.143 C  
BRANCH   8   9
HETATM    9  C   UNL     1      -7.996   7.326  70.753  1.00  0.00    -0.099 A  
HETATM   10  C   UNL     1      -7.394   8.548  70.405  1.00  0.00    -0.054 A  
HETATM   11  C   UNL     1      -6.492   9.195  71.265  1.00  0.00    -0.082 A  
HETATM   12  C   UNL     1      -6.102   8.603  72.460  1.00  0.00    -0.079 A  
HETATM   13  C   UNL     1      -6.630   7.370  72.807  1.00  0.00    -0.060 A  
HETATM   14  C   UNL     1      -7.580   6.764  71.980  1.00  0.00    -0.094 A  
ENDBRANCH   8   9
BRANCH   8  15
HETATM   15  C   UNL     1      -8.739   5.066  69.599  1.00  0.00    -0.110 A  
HETATM   16  C   UNL     1      -9.708   4.059  69.412  1.00  0.00    -0.205 A  
HETATM   17  C   UNL     1      -9.352   2.744  69.064  1.00  0.00    -0.211 A  
HETATM   18  C   UNL     1      -8.015   2.389  68.885  1.00  0.00    -0.062 A  
HETATM   19  C   UNL     1      -7.395   4.648  69.439  1.00  0.00    -0.052 A  
HETATM   20  C   UNL     1      -7.035   3.345  69.084  1.00  0.00    -0.045 A  
ENDBRANCH   8  15
BRANCH   8  21
HETATM   21  C   UNL     1     -10.503   6.656  70.687  1.00  0.00    -0.253 C  
BRANCH  21  22
HETATM   22  C   UNL     1     -11.095   7.821  71.562  1.00  0.00    -0.236 C  
HETATM   23  C   UNL     1     -10.925   7.545  73.067  1.00  0.00    -0.443 C  
BRANCH  22  24
HETATM   24  N   UNL     1     -12.454   8.299  71.216  1.00  0.00    -0.282 NA 
HETATM   25  C   UNL     1     -13.523   7.342  71.533  1.00  0.00    -0.372 C  
HETATM   26  C   UNL     1     -12.808   9.578  71.862  1.00  0.00    -0.420 C  
ENDBRANCH  22  24
ENDBRANCH  21  22
ENDBRANCH   8  21
ENDBRANCH   3   8
ENDBRANCH   2   3
TORSDOF 9
ENDMDL
MODEL      217
REMARK 921   NORMALIZED FREE ENERGY PREDICTED BY IDOCK:   -3.11 KCAL/MOL
REMARK 922        TOTAL FREE ENERGY PREDICTED BY IDOCK:   -6.44 KCAL/MOL
REMARK 923 INTER-LIGAND FREE ENERGY PREDICTED BY IDOCK:   -5.82 KCAL/MOL
REMARK 924 INTRA-LIGAND FREE ENERGY PREDICTED BY IDOCK:   -0.61 KCAL/MOL
REMARK 927      BINDING AFFINITY PREDICTED BY RF-SCORE:    0.00 PKD
ROOT
HETATM    1  C   UNL     1     -11.349   4.673  73.104  1.00  0.00    -0.355 C  
HETATM    2  C   UNL     1     -10.221   4.944  72.115  1.00  0.00    -0.257 C  
ENDROOT
BRANCH   2   3
HETATM    3  C   UNL     1     -10.680   5.823  70.933  1.00  0.00    -0.264 C  
BRANCH   3   4
HETATM    4  O   UNL     1     -10.305   5.122  69.706  1.00  0.00    -0.271 OA 
BRANCH   4   5
HETATM    5  C   UNL     1      -9.208   4.320  69.720  1.00  0.00    -0.137 C  
HETATM    6  C   UNL     1      -9.633   2.884  69.883  1.00  0.00    -0.107 C  
HETATM    7  O   UNL     1      -8.046   4.699  69.699  1.00  0.00    -0.064 OA 
ENDBRANCH   4   5
ENDBRANCH   3   4
BRANCH   3   8
HETATM    8  C   UNL     1     -10.051   7.306  70.927  1.00  0.00    -0.192 C  
BRANCH   8   9
HETATM    9  C   UNL     1      -8.971   7.373  72.064  1.00  0.00    -0.143 A  
HETATM   10  C   UNL     1      -7.688   6.806  71.974  1.00  0.00    -0.095 A  
HETATM   11  C   UNL     1      -6.729   6.992  72.983  1.00  0.00    -0.069 A  
HETATM   12  C   UNL     1      -7.049   7.679  74.147  1.00  0.00    -0.132 A  
HETATM   13  C   UNL     1      -8.324   8.199  74.296  1.00  0.00    -0.252 A  
HETATM   14  C   UNL     1      -9.252   8.071  73.259  1.00  0.00    -0.347 A  
ENDBRANCH   8   9
BRANCH   8  15
HETATM   15  C   UNL     1     -11.276   8.320  71.178  1.00  0.00    -0.296 A  
HETATM   16  C   UNL     1     -12.293   8.098  72.128  1.00  0.00    -0.383 A  
HETATM   17  C   UNL     1     -13.296   9.052  72.377  1.00  0.00    -0.516 A  
HETATM   18  C   UNL     1     -13.315  10.265  71.687  1.00  0.00    -0.451 A  
HETATM   19  C   UNL     1     -11.358   9.551  70.481  1.00  0.00    -0.343 A  
HETATM   20  C   UNL     1     -12.347  10.507  70.730  1.00  0.00    -0.474 A  
ENDBRANCH   8  15
BRANCH   8  21
HETATM   21  C   UNL     1      -9.365   7.678  69.516  1.00  0.00    -0.153 C  
BRANCH  21  22
HETATM   22  C   UNL     1      -8.003   8.419  69.254  1.00  0.00    -0.113 C  
HETATM   23  C   UNL     1      -8.018   9.852  69.818  1.00  0.00    -0.181 C  
BRANCH  22  24
HETATM   24  N   UNL     1      -7.450   8.348  67.882  1.00  0.00    -0.096 NA 
HETATM   25  C   UNL     1      -7.421   9.639  67.182  1.00  0.00    -0.088 C  
HETATM   26  C   UNL     1      -6.086   7.790  67.827  1.00  0.00    -0.046 C  
ENDBRANCH  22  24
ENDBRANCH  21  22
ENDBRANCH   8  21
ENDBRANCH   3   8
ENDBRANCH   2   3
TORSDOF 9
ENDMDL
MODEL      218
REMARK 921   NORMALIZED FREE ENERGY PREDICTED BY IDOCK:   -3.10 KCAL/MOL
REMARK 922        TOTAL FREE ENERGY PREDICTED BY IDOCK:   -6.43 KCAL/MOL
REMARK 923 INTER-LIGAND FREE ENERGY PREDICTED BY IDOCK:   -6.20 KCAL/MOL
REMARK 924 INTRA-LIGAND FREE ENERGY PREDICTED BY IDOCK:   -0.23 KCAL/MOL
REMARK 927      BINDING AFFINITY PREDICTED BY RF-SCORE:    0.00 PKD
ROOT
HETATM    1  C   UNL     1      -6.948   9.261  68.862  1.00  0.00    -0.064 C  
HETATM    2  C   UNL     1      -7.775   9.773  67.687  1.00  0.00    -0.094 C  
ENDROOT
BRANCH   2   3
HETATM    3  C   UNL     1      -8.191  11.248  67.865  1.00  0.00    -0.123 C  
BRANCH   3   4
HETATM    4  O   UNL     1      -7.838  11.633  69.230  1.00  0.00     0.041 OA 
BRANCH   4   5
HETATM    5  C   UNL     1      -6.646  12.249  69.447  1.00  0.00    -0.081 C  
HETATM    6  C   UNL     1      -6.047  12.671  68.131  1.00  0.00    -0.080 C  
HETATM    7  O   UNL     1      -6.090  12.366  70.530  1.00  0.00    -0.189 OA 
ENDBRANCH   4   5
ENDBRANCH   3   4
BRANCH   3   8
HETATM    8  C   UNL     1      -9.757  11.530  67.608  1.00  0.00    -0.182 C  
BRANCH   8   9
HETATM    9  C   UNL     1     -10.026  11.370  66.070  1.00  0.00    -0.269 A  
HETATM   10  C   UNL     1     -11.079  11.994  65.379  1.00  0.00    -0.369 A  
HETATM   11  C   UNL     1     -11.202  11.898  63.984  1.00  0.00    -0.470 A  
HETATM   12  C   UNL     1     -10.327  11.109  63.247  1.00  0.00    -0.368 A  
HETATM   13  C   UNL     1      -9.314  10.430  63.903  1.00  0.00    -0.322 A  
HETATM   14  C   UNL     1      -9.153  10.587  65.283  1.00  0.00    -0.220 A  
ENDBRANCH   8   9
BRANCH   8  15
HETATM   15  C   UNL     1     -10.042  13.025  68.133  1.00  0.00    -0.237 A  
HETATM   16  C   UNL     1      -9.332  14.158  67.689  1.00  0.00    -0.209 A  
HETATM   17  C   UNL     1      -9.672  15.457  68.108  1.00  0.00    -0.212 A  
HETATM   18  C   UNL     1     -10.738  15.669  68.982  1.00  0.00    -0.236 A  
HETATM   19  C   UNL     1     -11.094  13.289  69.045  1.00  0.00    -0.291 A  
HETATM   20  C   UNL     1     -11.443  14.578  69.458  1.00  0.00    -0.330 A  
ENDBRANCH   8  15
BRANCH   8  21
HETATM   21  C   UNL     1     -10.706  10.515  68.426  1.00  0.00    -0.262 C  
BRANCH  21  22
HETATM   22  C   UNL     1     -10.913  10.406  69.981  1.00  0.00    -0.308 C  
HETATM   23  C   UNL     1      -9.943   9.391  70.613  1.00  0.00    -0.349 C  
BRANCH  22  24
HETATM   24  N   UNL     1     -12.303  10.251  70.467  1.00  0.00    -0.293 NA 
HETATM   25  C   UNL     1     -12.523   9.042  71.272  1.00  0.00    -0.289 C  
HETATM   26  C   UNL     1     -12.778  11.399  71.264  1.00  0.00    -0.393 C  
ENDBRANCH  22  24
ENDBRANCH  21  22
ENDBRANCH   8  21
ENDBRANCH   3   8
ENDBRANCH   2   3
TORSDOF 9
ENDMDL
MODEL      219
REMARK 921   NORMALIZED FREE ENERGY PREDICTED BY IDOCK:   -3.09 KCAL/MOL
REMARK 922        TOTAL FREE ENERGY PREDICTED BY IDOCK:   -6.41 KCAL/MOL
REMARK 923 INTER-LIGAND FREE ENERGY PREDICTED BY IDOCK:   -5.56 KCAL/MOL
REMARK 924 INTRA-LIGAND FREE ENERGY PREDICTED BY IDOCK:   -0.84 KCAL/MOL
REMARK 927      BINDING AFFINITY PREDICTED BY RF-SCORE:    0.00 PKD
ROOT
HETATM    1  C   UNL     1     -11.775   8.031  72.566  1.00  0.00    -0.446 C  
HETATM    2  C   UNL     1     -12.160   8.479  71.160  1.00  0.00    -0.283 C  
ENDROOT
BRANCH   2   3
HETATM    3  C   UNL     1     -11.250   9.610  70.638  1.00  0.00    -0.320 C  
BRANCH   3   4
HETATM    4  O   UNL     1     -12.118  10.607  70.015  1.00  0.00    -0.296 OA 
BRANCH   4   5
HETATM    5  C   UNL     1     -12.655  11.584  70.793  1.00  0.00    -0.298 C  
HETATM    6  C   UNL     1     -12.172  12.931  70.321  1.00  0.00    -0.362 C  
HETATM    7  O   UNL     1     -13.350  11.407  71.783  1.00  0.00    -0.402 OA 
ENDBRANCH   4   5
ENDBRANCH   3   4
BRANCH   3   8
HETATM    8  C   UNL     1     -10.132   9.126  69.584  1.00  0.00    -0.206 C  
BRANCH   8   9
HETATM    9  C   UNL     1      -8.763   9.037  70.346  1.00  0.00    -0.224 A  
HETATM   10  C   UNL     1      -8.469   8.088  71.341  1.00  0.00    -0.142 A  
HETATM   11  C   UNL     1      -7.188   7.991  71.909  1.00  0.00    -0.085 A  
HETATM   12  C   UNL     1      -6.188   8.891  71.562  1.00  0.00    -0.069 A  
HETATM   13  C   UNL     1      -6.461   9.878  70.629  1.00  0.00    -0.106 A  
HETATM   14  C   UNL     1      -7.716   9.925  70.015  1.00  0.00    -0.188 A  
ENDBRANCH   8   9
BRANCH   8  15
HETATM   15  C   UNL     1     -10.113  10.224  68.406  1.00  0.00    -0.178 A  
HETATM   16  C   UNL     1     -10.707  10.025  67.143  1.00  0.00    -0.279 A  
HETATM   17  C   UNL     1     -10.744  11.044  66.174  1.00  0.00    -0.257 A  
HETATM   18  C   UNL     1     -10.193  12.298  66.435  1.00  0.00    -0.247 A  
HETATM   19  C   UNL     1      -9.538  11.502  68.610  1.00  0.00    -0.159 A  
HETATM   20  C   UNL     1      -9.580  12.522  67.655  1.00  0.00    -0.190 A  
ENDBRANCH   8  15
BRANCH   8  21
HETATM   21  C   UNL     1     -10.478   7.692  68.936  1.00  0.00    -0.211 C  
BRANCH  21  22
HETATM   22  C   UNL     1      -9.544   6.746  68.095  1.00  0.00    -0.122 C  
HETATM   23  C   UNL     1      -9.736   5.268  68.481  1.00  0.00    -0.194 C  
BRANCH  22  24
HETATM   24  N   UNL     1      -8.117   7.130  67.987  1.00  0.00    -0.118 NA 
HETATM   25  C   UNL     1      -7.189   6.150  68.567  1.00  0.00    -0.084 C  
HETATM   26  C   UNL     1      -7.680   7.379  66.600  1.00  0.00    -0.101 C  
ENDBRANCH  22  24
ENDBRANCH  21  22
ENDBRANCH   8  21
ENDBRANCH   3   8
ENDBRANCH   2   3
TORSDOF 9
ENDMDL
MODEL      220
REMARK 921   NORMALIZED FREE ENERGY PREDICTED BY IDOCK:   -3.09 KCAL/MOL
REMARK 922        TOTAL FREE ENERGY PREDICTED BY IDOCK:   -6.40 KCAL/MOL
REMARK 923 INTER-LIGAND FREE ENERGY PREDICTED BY IDOCK:   -5.75 KCAL/MOL
REMARK 924 INTRA-LIGAND FREE ENERGY PREDICTED BY IDOCK:   -0.65 KCAL/MOL
REMARK 927      BINDING AFFINITY PREDICTED BY RF-SCORE:    0.00 PKD
ROOT
HETATM    1  C   UNL     1      -9.465  10.830  64.454  1.00  0.00    -0.300 C  
HETATM    2  C   UNL     1     -10.618  10.781  65.449  1.00  0.00    -0.224 C  
ENDROOT
BRANCH   2   3
HETATM    3  C   UNL     1     -10.169  11.134  66.882  1.00  0.00    -0.222 C  
BRANCH   3   4
HETATM    4  O   UNL     1      -8.888  11.830  66.772  1.00  0.00    -0.180 OA 
BRANCH   4   5
HETATM    5  C   UNL     1      -8.826  13.142  67.117  1.00  0.00    -0.222 C  
HETATM    6  C   UNL     1      -7.508  13.428  67.790  1.00  0.00    -0.160 C  
HETATM    7  O   UNL     1      -9.728  13.958  66.991  1.00  0.00    -0.236 OA 
ENDBRANCH   4   5
ENDBRANCH   3   4
BRANCH   3   8
HETATM    8  C   UNL     1     -10.015   9.862  67.860  1.00  0.00    -0.190 C  
BRANCH   8   9
HETATM    9  C   UNL     1     -10.871  10.141  69.145  1.00  0.00    -0.260 A  
HETATM   10  C   UNL     1     -11.698  11.265  69.320  1.00  0.00    -0.403 A  
HETATM   11  C   UNL     1     -12.522  11.404  70.448  1.00  0.00    -0.345 A  
HETATM   12  C   UNL     1     -12.484  10.467  71.474  1.00  0.00    -0.508 A  
HETATM   13  C   UNL     1     -11.635   9.378  71.363  1.00  0.00    -0.451 A  
HETATM   14  C   UNL     1     -10.870   9.209  70.206  1.00  0.00    -0.282 A  
ENDBRANCH   8   9
BRANCH   8  15
HETATM   15  C   UNL     1      -8.444   9.723  68.182  1.00  0.00    -0.114 A  
HETATM   16  C   UNL     1      -7.486   9.307  67.235  1.00  0.00    -0.091 A  
HETATM   17  C   UNL     1      -6.111   9.284  67.533  1.00  0.00    -0.054 A  
HETATM   18  C   UNL     1      -5.645   9.682  68.786  1.00  0.00    -0.036 A  
HETATM   19  C   UNL     1      -7.924  10.085  69.449  1.00  0.00    -0.145 A  
HETATM   20  C   UNL     1      -6.559  10.074  69.749  1.00  0.00    -0.074 A  
ENDBRANCH   8  15
BRANCH   8  21
HETATM   21  C   UNL     1     -10.515   8.493  67.171  1.00  0.00    -0.370 C  
BRANCH  21  22
HETATM   22  C   UNL     1     -10.157   7.013  67.563  1.00  0.00    -0.185 C  
HETATM   23  C   UNL     1      -9.292   6.955  68.835  1.00  0.00    -0.134 C  
BRANCH  22  24
HETATM   24  N   UNL     1      -9.649   6.135  66.483  1.00  0.00    -0.157 NA 
HETATM   25  C   UNL     1      -8.238   5.755  66.636  1.00  0.00    -0.106 C  
HETATM   26  C   UNL     1     -10.422   4.888  66.329  1.00  0.00    -0.304 C  
ENDBRANCH  22  24
ENDBRANCH  21  22
ENDBRANCH   8  21
ENDBRANCH   3   8
ENDBRANCH   2   3
TORSDOF 9
ENDMDL
MODEL      221
REMARK 921   NORMALIZED FREE ENERGY PREDICTED BY IDOCK:   -3.08 KCAL/MOL
REMARK 922        TOTAL FREE ENERGY PREDICTED BY IDOCK:   -6.39 KCAL/MOL
REMARK 923 INTER-LIGAND FREE ENERGY PREDICTED BY IDOCK:   -6.32 KCAL/MOL
REMARK 924 INTRA-LIGAND FREE ENERGY PREDICTED BY IDOCK:   -0.07 KCAL/MOL
REMARK 927      BINDING AFFINITY PREDICTED BY RF-SCORE:    0.00 PKD
ROOT
HETATM    1  C   UNL     1     -10.198  10.355  67.822  1.00  0.00    -0.229 C  
HETATM    2  C   UNL     1     -10.641  11.599  67.060  1.00  0.00    -0.272 C  
ENDROOT
BRANCH   2   3
HETATM    3  C   UNL     1      -9.673  12.783  67.262  1.00  0.00    -0.206 C  
BRANCH   3   4
HETATM    4  O   UNL     1      -8.841  12.464  68.420  1.00  0.00    -0.182 OA 
BRANCH   4   5
HETATM    5  C   UNL     1      -7.490  12.442  68.268  1.00  0.00    -0.124 C  
HETATM    6  C   UNL     1      -6.834  12.201  69.603  1.00  0.00     0.111 C  
HETATM    7  O   UNL     1      -6.884  12.673  67.232  1.00  0.00    -0.153 OA 
ENDBRANCH   4   5
ENDBRANCH   3   4
BRANCH   3   8
HETATM    8  C   UNL     1     -10.401  14.203  67.487  1.00  0.00    -0.248 C  
BRANCH   8   9
HETATM    9  C   UNL     1      -9.293  15.313  67.490  1.00  0.00    -0.204 A  
HETATM   10  C   UNL     1      -8.654  15.799  66.336  1.00  0.00    -0.346 A  
HETATM   11  C   UNL     1      -7.747  16.870  66.393  1.00  0.00    -0.345 A  
HETATM   12  C   UNL     1      -7.390  17.433  67.612  1.00  0.00    -0.187 A  
HETATM   13  C   UNL     1      -7.954  16.938  68.775  1.00  0.00    -0.254 A  
HETATM   14  C   UNL     1      -8.909  15.919  68.706  1.00  0.00    -0.213 A  
ENDBRANCH   8   9
BRANCH   8  15
HETATM   15  C   UNL     1     -11.174  14.098  68.896  1.00  0.00    -0.294 A  
HETATM   16  C   UNL     1     -12.124  13.100  69.194  1.00  0.00    -0.261 A  
HETATM   17  C   UNL     1     -12.711  12.993  70.468  1.00  0.00    -0.111 A  
HETATM   18  C   UNL     1     -12.365  13.876  71.490  1.00  0.00    -0.327 A  
HETATM   19  C   UNL     1     -10.882  14.990  69.956  1.00  0.00    -0.243 A  
HETATM   20  C   UNL     1     -11.454  14.884  71.227  1.00  0.00    -0.322 A  
ENDBRANCH   8  15
BRANCH   8  21
HETATM   21  C   UNL     1     -11.483  14.528  66.338  1.00  0.00    -0.362 C  
BRANCH  21  22
HETATM   22  C   UNL     1     -11.276  14.558  64.779  1.00  0.00    -0.390 C  
HETATM   23  C   UNL     1     -11.599  15.943  64.189  1.00  0.00    -0.058 C  
BRANCH  22  24
HETATM   24  N   UNL     1     -11.872  13.449  63.998  1.00  0.00    -0.437 NA 
HETATM   25  C   UNL     1     -10.890  12.483  63.487  1.00  0.00    -0.397 C  
HETATM   26  C   UNL     1     -12.887  12.684  64.747  1.00  0.00    -0.265 C  
ENDBRANCH  22  24
ENDBRANCH  21  22
ENDBRANCH   8  21
ENDBRANCH   3   8
ENDBRANCH   2   3
TORSDOF 9
ENDMDL
MODEL      222
REMARK 921   NORMALIZED FREE ENERGY PREDICTED BY IDOCK:   -3.07 KCAL/MOL
REMARK 922        TOTAL FREE ENERGY PREDICTED BY IDOCK:   -6.37 KCAL/MOL
REMARK 923 INTER-LIGAND FREE ENERGY PREDICTED BY IDOCK:   -4.98 KCAL/MOL
REMARK 924 INTRA-LIGAND FREE ENERGY PREDICTED BY IDOCK:   -1.39 KCAL/MOL
REMARK 927      BINDING AFFINITY PREDICTED BY RF-SCORE:    0.00 PKD
ROOT
HETATM    1  C   UNL     1     -11.755  12.345  66.137  1.00  0.00    -0.460 C  
HETATM    2  C   UNL     1     -10.489  13.119  66.489  1.00  0.00    -0.283 C  
ENDROOT
BRANCH   2   3
HETATM    3  C   UNL     1      -9.982  12.793  67.909  1.00  0.00    -0.229 C  
BRANCH   3   4
HETATM    4  O   UNL     1      -9.865  14.061  68.626  1.00  0.00    -0.225 OA 
BRANCH   4   5
HETATM    5  C   UNL     1     -10.937  14.519  69.324  1.00  0.00    -0.260 C  
HETATM    6  C   UNL     1     -10.770  15.990  69.603  1.00  0.00    -0.316 C  
HETATM    7  O   UNL     1     -11.857  13.835  69.749  1.00  0.00    -0.293 OA 
ENDBRANCH   4   5
ENDBRANCH   3   4
BRANCH   3   8
HETATM    8  C   UNL     1      -8.571  12.014  67.946  1.00  0.00    -0.165 C  
BRANCH   8   9
HETATM    9  C   UNL     1      -8.693  10.854  68.995  1.00  0.00    -0.108 A  
HETATM   10  C   UNL     1      -7.598  10.216  69.603  1.00  0.00    -0.158 A  
HETATM   11  C   UNL     1      -7.773   9.258  70.615  1.00  0.00    -0.170 A  
HETATM   12  C   UNL     1      -9.047   8.849  70.991  1.00  0.00    -0.303 A  
HETATM   13  C   UNL     1     -10.148   9.413  70.370  1.00  0.00    -0.310 A  
HETATM   14  C   UNL     1      -9.969  10.417  69.414  1.00  0.00    -0.240 A  
ENDBRANCH   8   9
BRANCH   8  15
HETATM   15  C   UNL     1      -7.461  13.105  68.357  1.00  0.00    -0.124 A  
HETATM   16  C   UNL     1      -6.753  13.081  69.576  1.00  0.00     0.029 A  
HETATM   17  C   UNL     1      -5.729  14.003  69.857  1.00  0.00    -0.114 A  
HETATM   18  C   UNL     1      -5.372  14.978  68.926  1.00  0.00    -0.095 A  
HETATM   19  C   UNL     1      -7.084  14.135  67.460  1.00  0.00    -0.184 A  
HETATM   20  C   UNL     1      -6.061  15.048  67.728  1.00  0.00    -0.154 A  
ENDBRANCH   8  15
BRANCH   8  21
HETATM   21  C   UNL     1      -8.172  11.399  66.511  1.00  0.00    -0.152 C  
BRANCH  21  22
HETATM   22  C   UNL     1      -7.117  10.279  66.186  1.00  0.00    -0.121 C  
HETATM   23  C   UNL     1      -5.708  10.866  65.985  1.00  0.00    -0.149 C  
BRANCH  22  24
HETATM   24  N   UNL     1      -7.481   9.293  65.142  1.00  0.00    -0.103 NA 
HETATM   25  C   UNL     1      -8.267   8.156  65.641  1.00  0.00    -0.133 C  
HETATM   26  C   UNL     1      -8.230   9.880  64.016  1.00  0.00    -0.159 C  
ENDBRANCH  22  24
ENDBRANCH  21  22
ENDBRANCH   8  21
ENDBRANCH   3   8
ENDBRANCH   2   3
TORSDOF 9
ENDMDL
MODEL      223
REMARK 921   NORMALIZED FREE ENERGY PREDICTED BY IDOCK:   -3.04 KCAL/MOL
REMARK 922        TOTAL FREE ENERGY PREDICTED BY IDOCK:   -6.34 KCAL/MOL
REMARK 923 INTER-LIGAND FREE ENERGY PREDICTED BY IDOCK:   -4.29 KCAL/MOL
REMARK 924 INTRA-LIGAND FREE ENERGY PREDICTED BY IDOCK:   -2.04 KCAL/MOL
REMARK 927      BINDING AFFINITY PREDICTED BY RF-SCORE:    0.00 PKD
ROOT
HETATM    1  C   UNL     1     -10.960   6.432  67.000  1.00  0.00    -0.463 C  
HETATM    2  C   UNL     1     -10.908   7.611  67.966  1.00  0.00    -0.068 C  
ENDROOT
BRANCH   2   3
HETATM    3  C   UNL     1      -9.591   8.406  67.847  1.00  0.00    -0.156 C  
BRANCH   3   4
HETATM    4  O   UNL     1      -8.948   7.987  66.602  1.00  0.00    -0.135 OA 
BRANCH   4   5
HETATM    5  C   UNL     1      -8.841   8.885  65.588  1.00  0.00    -0.191 C  
HETATM    6  C   UNL     1      -7.401   8.997  65.158  1.00  0.00    -0.096 C  
HETATM    7  O   UNL     1      -9.750   9.572  65.144  1.00  0.00    -0.277 OA 
ENDBRANCH   4   5
ENDBRANCH   3   4
BRANCH   3   8
HETATM    8  C   UNL     1      -8.577   8.196  69.081  1.00  0.00    -0.136 C  
BRANCH   8   9
HETATM    9  C   UNL     1      -7.756   9.521  69.257  1.00  0.00    -0.086 A  
HETATM   10  C   UNL     1      -8.031  10.721  68.578  1.00  0.00    -0.130 A  
HETATM   11  C   UNL     1      -7.328  11.903  68.859  1.00  0.00    -0.080 A  
HETATM   12  C   UNL     1      -6.276  11.904  69.766  1.00  0.00    -0.137 A  
HETATM   13  C   UNL     1      -5.937  10.725  70.409  1.00  0.00    -0.128 A  
HETATM   14  C   UNL     1      -6.686   9.568  70.178  1.00  0.00    -0.078 A  
ENDBRANCH   8   9
BRANCH   8  15
HETATM   15  C   UNL     1      -7.646   6.939  68.697  1.00  0.00    -0.105 A  
HETATM   16  C   UNL     1      -8.014   5.597  68.920  1.00  0.00    -0.097 A  
HETATM   17  C   UNL     1      -7.209   4.527  68.488  1.00  0.00    -0.060 A  
HETATM   18  C   UNL     1      -6.011   4.761  67.813  1.00  0.00    -0.023 A  
HETATM   19  C   UNL     1      -6.406   7.125  68.037  1.00  0.00    -0.044 A  
HETATM   20  C   UNL     1      -5.607   6.067  67.597  1.00  0.00    -0.009 A  
ENDBRANCH   8  15
BRANCH   8  21
HETATM   21  C   UNL     1      -9.346   7.855  70.457  1.00  0.00    -0.162 C  
BRANCH  21  22
HETATM   22  C   UNL     1      -9.744   8.832  71.623  1.00  0.00    -0.296 C  
HETATM   23  C   UNL     1      -9.223   8.334  72.984  1.00  0.00    -0.316 C  
BRANCH  22  24
HETATM   24  N   UNL     1     -11.155   9.277  71.677  1.00  0.00    -0.369 NA 
HETATM   25  C   UNL     1     -11.527  10.217  70.611  1.00  0.00    -0.349 C  
HETATM   26  C   UNL     1     -12.123   8.165  71.635  1.00  0.00    -0.304 C  
ENDBRANCH  22  24
ENDBRANCH  21  22
ENDBRANCH   8  21
ENDBRANCH   3   8
ENDBRANCH   2   3
TORSDOF 9
ENDMDL
MODEL      224
REMARK 921   NORMALIZED FREE ENERGY PREDICTED BY IDOCK:   -3.04 KCAL/MOL
REMARK 922        TOTAL FREE ENERGY PREDICTED BY IDOCK:   -6.34 KCAL/MOL
REMARK 923 INTER-LIGAND FREE ENERGY PREDICTED BY IDOCK:   -5.40 KCAL/MOL
REMARK 924 INTRA-LIGAND FREE ENERGY PREDICTED BY IDOCK:   -0.94 KCAL/MOL
REMARK 927      BINDING AFFINITY PREDICTED BY RF-SCORE:    0.00 PKD
ROOT
HETATM    1  C   UNL     1     -12.185  11.320  70.566  1.00  0.00    -0.474 C  
HETATM    2  C   UNL     1     -11.211  10.181  70.845  1.00  0.00    -0.383 C  
ENDROOT
BRANCH   2   3
HETATM    3  C   UNL     1     -11.346   9.034  69.822  1.00  0.00     0.062 C  
BRANCH   3   4
HETATM    4  O   UNL     1     -11.526   7.799  70.582  1.00  0.00    -0.279 OA 
BRANCH   4   5
HETATM    5  C   UNL     1     -12.233   7.843  71.742  1.00  0.00    -0.310 C  
HETATM    6  C   UNL     1     -11.326   7.519  72.901  1.00  0.00    -0.355 C  
HETATM    7  O   UNL     1     -13.438   8.024  71.838  1.00  0.00    -0.331 OA 
ENDBRANCH   4   5
ENDBRANCH   3   4
BRANCH   3   8
HETATM    8  C   UNL     1     -10.088   8.883  68.826  1.00  0.00    -0.215 C  
BRANCH   8   9
HETATM    9  C   UNL     1      -8.796   8.746  69.706  1.00  0.00    -0.142 A  
HETATM   10  C   UNL     1      -7.921   9.805  70.000  1.00  0.00    -0.196 A  
HETATM   11  C   UNL     1      -6.840   9.643  70.882  1.00  0.00    -0.054 A  
HETATM   12  C   UNL     1      -6.553   8.399  71.431  1.00  0.00    -0.060 A  
HETATM   13  C   UNL     1      -7.359   7.319  71.114  1.00  0.00    -0.074 A  
HETATM   14  C   UNL     1      -8.474   7.502  70.292  1.00  0.00    -0.138 A  
ENDBRANCH   8   9
BRANCH   8  15
HETATM   15  C   UNL     1     -10.074  10.205  67.908  1.00  0.00    -0.207 A  
HETATM   16  C   UNL     1      -8.914  10.962  67.645  1.00  0.00    -0.140 A  
HETATM   17  C   UNL     1      -8.930  12.060  66.766  1.00  0.00    -0.198 A  
HETATM   18  C   UNL     1     -10.104  12.436  66.114  1.00  0.00    -0.265 A  
HETATM   19  C   UNL     1     -11.247  10.647  67.249  1.00  0.00    -0.237 A  
HETATM   20  C   UNL     1     -11.267  11.731  66.366  1.00  0.00    -0.382 A  
ENDBRANCH   8  15
BRANCH   8  21
HETATM   21  C   UNL     1     -10.219   7.597  67.862  1.00  0.00    -0.250 C  
BRANCH  21  22
HETATM   22  C   UNL     1      -9.082   6.836  67.087  1.00  0.00    -0.126 C  
HETATM   23  C   UNL     1      -8.746   7.524  65.751  1.00  0.00    -0.142 C  
BRANCH  22  24
HETATM   24  N   UNL     1      -9.223   5.367  66.956  1.00  0.00    -0.112 NA 
HETATM   25  C   UNL     1     -10.519   4.937  66.415  1.00  0.00    -0.280 C  
HETATM   26  C   UNL     1      -8.175   4.749  66.122  1.00  0.00    -0.107 C  
ENDBRANCH  22  24
ENDBRANCH  21  22
ENDBRANCH   8  21
ENDBRANCH   3   8
ENDBRANCH   2   3
TORSDOF 9
ENDMDL
MODEL      225
REMARK 921   NORMALIZED FREE ENERGY PREDICTED BY IDOCK:   -3.03 KCAL/MOL
REMARK 922        TOTAL FREE ENERGY PREDICTED BY IDOCK:   -6.31 KCAL/MOL
REMARK 923 INTER-LIGAND FREE ENERGY PREDICTED BY IDOCK:   -6.03 KCAL/MOL
REMARK 924 INTRA-LIGAND FREE ENERGY PREDICTED BY IDOCK:   -0.28 KCAL/MOL
REMARK 927      BINDING AFFINITY PREDICTED BY RF-SCORE:    0.00 PKD
ROOT
HETATM    1  C   UNL     1      -7.524  18.637  68.603  1.00  0.00    -0.332 C  
HETATM    2  C   UNL     1      -9.014  18.311  68.579  1.00  0.00    -0.329 C  
ENDROOT
BRANCH   2   3
HETATM    3  C   UNL     1      -9.397  17.423  67.377  1.00  0.00    -0.237 C  
BRANCH   3   4
HETATM    4  O   UNL     1     -10.732  17.835  66.947  1.00  0.00    -0.284 OA 
BRANCH   4   5
HETATM    5  C   UNL     1     -10.906  18.250  65.665  1.00  0.00     0.091 C  
HETATM    6  C   UNL     1     -10.914  19.756  65.616  1.00  0.00    -0.210 C  
HETATM    7  O   UNL     1     -11.118  17.527  64.703  1.00  0.00    -0.978 OA 
ENDBRANCH   4   5
ENDBRANCH   3   4
BRANCH   3   8
HETATM    8  C   UNL     1      -9.390  15.843  67.692  1.00  0.00    -0.217 C  
BRANCH   8   9
HETATM    9  C   UNL     1     -10.448  15.575  68.820  1.00  0.00    -0.234 A  
HETATM   10  C   UNL     1     -11.784  15.208  68.583  1.00  0.00    -0.364 A  
HETATM   11  C   UNL     1     -12.653  14.877  69.636  1.00  0.00    -0.094 A  
HETATM   12  C   UNL     1     -12.238  14.982  70.958  1.00  0.00    -0.386 A  
HETATM   13  C   UNL     1     -10.947  15.400  71.229  1.00  0.00    -0.240 A  
HETATM   14  C   UNL     1     -10.065  15.660  70.177  1.00  0.00    -0.145 A  
ENDBRANCH   8   9
BRANCH   8  15
HETATM   15  C   UNL     1      -7.891  15.478  68.152  1.00  0.00    -0.129 A  
HETATM   16  C   UNL     1      -7.590  14.645  69.249  1.00  0.00    -0.113 A  
HETATM   17  C   UNL     1      -6.267  14.281  69.562  1.00  0.00    -0.122 A  
HETATM   18  C   UNL     1      -5.200  14.733  68.786  1.00  0.00    -0.089 A  
HETATM   19  C   UNL     1      -6.771  15.936  67.416  1.00  0.00    -0.229 A  
HETATM   20  C   UNL     1      -5.455  15.571  67.715  1.00  0.00    -0.130 A  
ENDBRANCH   8  15
BRANCH   8  21
HETATM   21  C   UNL     1      -9.754  14.956  66.396  1.00  0.00    -0.306 C  
BRANCH  21  22
HETATM   22  C   UNL     1     -10.324  13.492  66.340  1.00  0.00    -0.289 C  
HETATM   23  C   UNL     1      -9.287  12.459  66.819  1.00  0.00    -0.220 C  
BRANCH  22  24
HETATM   24  N   UNL     1     -11.008  13.082  65.092  1.00  0.00    -0.288 NA 
HETATM   25  C   UNL     1     -12.433  12.771  65.264  1.00  0.00    -0.465 C  
HETATM   26  C   UNL     1     -10.907  14.083  64.012  1.00  0.00     0.314 C  
ENDBRANCH  22  24
ENDBRANCH  21  22
ENDBRANCH   8  21
ENDBRANCH   3   8
ENDBRANCH   2   3
TORSDOF 9
ENDMDL
MODEL      226
REMARK 921   NORMALIZED FREE ENERGY PREDICTED BY IDOCK:   -3.00 KCAL/MOL
REMARK 922        TOTAL FREE ENERGY PREDICTED BY IDOCK:   -6.27 KCAL/MOL
REMARK 923 INTER-LIGAND FREE ENERGY PREDICTED BY IDOCK:   -4.78 KCAL/MOL
REMARK 924 INTRA-LIGAND FREE ENERGY PREDICTED BY IDOCK:   -1.49 KCAL/MOL
REMARK 927      BINDING AFFINITY PREDICTED BY RF-SCORE:    0.00 PKD
ROOT
HETATM    1  C   UNL     1     -10.661   7.829  66.928  1.00  0.00    -0.347 C  
HETATM    2  C   UNL     1     -10.704   9.269  67.428  1.00  0.00    -0.263 C  
ENDROOT
BRANCH   2   3
HETATM    3  C   UNL     1      -9.780  10.198  66.614  1.00  0.00    -0.192 C  
BRANCH   3   4
HETATM    4  O   UNL     1      -9.977   9.870  65.203  1.00  0.00    -0.318 OA 
BRANCH   4   5
HETATM    5  C   UNL     1     -10.307  10.867  64.341  1.00  0.00    -0.361 C  
HETATM    6  C   UNL     1     -11.073  11.938  65.074  1.00  0.00    -0.360 C  
HETATM    7  O   UNL     1     -10.103  10.866  63.136  1.00  0.00    -0.328 OA 
ENDBRANCH   4   5
ENDBRANCH   3   4
BRANCH   3   8
HETATM    8  C   UNL     1      -8.218  10.072  66.990  1.00  0.00    -0.117 C  
BRANCH   8   9
HETATM    9  C   UNL     1      -7.663  11.522  67.216  1.00  0.00    -0.150 A  
HETATM   10  C   UNL     1      -8.459  12.681  67.247  1.00  0.00    -0.193 A  
HETATM   11  C   UNL     1      -7.916  13.937  67.561  1.00  0.00    -0.190 A  
HETATM   12  C   UNL     1      -6.551  14.088  67.773  1.00  0.00    -0.188 A  
HETATM   13  C   UNL     1      -5.728  12.977  67.690  1.00  0.00    -0.118 A  
HETATM   14  C   UNL     1      -6.284  11.718  67.447  1.00  0.00    -0.108 A  
ENDBRANCH   8   9
BRANCH   8  15
HETATM   15  C   UNL     1      -7.511   9.326  65.750  1.00  0.00    -0.098 A  
HETATM   16  C   UNL     1      -6.931  10.002  64.658  1.00  0.00    -0.137 A  
HETATM   17  C   UNL     1      -6.246   9.314  63.640  1.00  0.00    -0.090 A  
HETATM   18  C   UNL     1      -6.112   7.927  63.681  1.00  0.00    -0.062 A  
HETATM   19  C   UNL     1      -7.378   7.916  65.729  1.00  0.00    -0.076 A  
HETATM   20  C   UNL     1      -6.690   7.227  64.725  1.00  0.00    -0.050 A  
ENDBRANCH   8  15
BRANCH   8  21
HETATM   21  C   UNL     1      -7.974   9.192  68.318  1.00  0.00    -0.103 C  
BRANCH  21  22
HETATM   22  C   UNL     1      -8.153   9.618  69.821  1.00  0.00    -0.155 C  
HETATM   23  C   UNL     1      -6.798   9.906  70.495  1.00  0.00    -0.122 C  
BRANCH  22  24
HETATM   24  N   UNL     1      -9.044   8.781  70.657  1.00  0.00    -0.169 NA 
HETATM   25  C   UNL     1      -8.441   8.349  71.926  1.00  0.00    -0.177 C  
HETATM   26  C   UNL     1     -10.326   9.433  70.983  1.00  0.00    -0.312 C  
ENDBRANCH  22  24
ENDBRANCH  21  22
ENDBRANCH   8  21
ENDBRANCH   3   8
ENDBRANCH   2   3
TORSDOF 9
ENDMDL
MODEL      227
REMARK 921   NORMALIZED FREE ENERGY PREDICTED BY IDOCK:   -3.00 KCAL/MOL
REMARK 922        TOTAL FREE ENERGY PREDICTED BY IDOCK:   -6.26 KCAL/MOL
REMARK 923 INTER-LIGAND FREE ENERGY PREDICTED BY IDOCK:   -5.10 KCAL/MOL
REMARK 924 INTRA-LIGAND FREE ENERGY PREDICTED BY IDOCK:   -1.16 KCAL/MOL
REMARK 927      BINDING AFFINITY PREDICTED BY RF-SCORE:    0.00 PKD
ROOT
HETATM    1  C   UNL     1      -8.834  10.076  63.391  1.00  0.00    -0.249 C  
HETATM    2  C   UNL     1      -9.854  10.096  64.525  1.00  0.00    -0.334 C  
ENDROOT
BRANCH   2   3
HETATM    3  C   UNL     1      -9.272   9.543  65.843  1.00  0.00    -0.206 C  
BRANCH   3   4
HETATM    4  O   UNL     1     -10.284   8.663  66.423  1.00  0.00    -0.282 OA 
BRANCH   4   5
HETATM    5  C   UNL     1     -10.065   7.322  66.417  1.00  0.00     0.013 C  
HETATM    6  C   UNL     1     -10.979   6.654  67.412  1.00  0.00    -0.434 C  
HETATM    7  O   UNL     1      -9.200   6.743  65.777  1.00  0.00    -0.045 OA 
ENDBRANCH   4   5
ENDBRANCH   3   4
BRANCH   3   8
HETATM    8  C   UNL     1      -8.858  10.677  66.910  1.00  0.00    -0.143 C  
BRANCH   8   9
HETATM    9  C   UNL     1      -8.883  10.023  68.336  1.00  0.00    -0.117 A  
HETATM   10  C   UNL     1      -9.822  10.334  69.336  1.00  0.00    -0.247 A  
HETATM   11  C   UNL     1      -9.858   9.636  70.554  1.00  0.00    -0.294 A  
HETATM   12  C   UNL     1      -8.907   8.664  70.843  1.00  0.00    -0.221 A  
HETATM   13  C   UNL     1      -7.931   8.375  69.905  1.00  0.00    -0.107 A  
HETATM   14  C   UNL     1      -7.943   9.023  68.667  1.00  0.00    -0.102 A  
ENDBRANCH   8   9
BRANCH   8  15
HETATM   15  C   UNL     1      -9.937  11.863  66.755  1.00  0.00    -0.215 A  
HETATM   16  C   UNL     1     -11.220  11.834  67.338  1.00  0.00    -0.357 A  
HETATM   17  C   UNL     1     -12.098  12.930  67.250  1.00  0.00    -0.275 A  
HETATM   18  C   UNL     1     -11.722  14.095  66.582  1.00  0.00    -0.422 A  
HETATM   19  C   UNL     1      -9.615  13.054  66.060  1.00  0.00    -0.175 A  
HETATM   20  C   UNL     1     -10.479  14.150  65.977  1.00  0.00    -0.308 A  
ENDBRANCH   8  15
BRANCH   8  21
HETATM   21  C   UNL     1      -7.392  11.284  66.625  1.00  0.00    -0.131 C  
BRANCH  21  22
HETATM   22  C   UNL     1      -6.389  11.939  67.644  1.00  0.00    -0.086 C  
HETATM   23  C   UNL     1      -5.246  10.976  68.014  1.00  0.00    -0.039 C  
BRANCH  22  24
HETATM   24  N   UNL     1      -6.973  12.616  68.825  1.00  0.00    -0.095 NA 
HETATM   25  C   UNL     1      -6.111  12.593  70.014  1.00  0.00    -0.115 C  
HETATM   26  C   UNL     1      -7.334  14.024  68.574  1.00  0.00    -0.114 C  
ENDBRANCH  22  24
ENDBRANCH  21  22
ENDBRANCH   8  21
ENDBRANCH   3   8
ENDBRANCH   2   3
TORSDOF 9
ENDMDL
MODEL      228
REMARK 921   NORMALIZED FREE ENERGY PREDICTED BY IDOCK:   -2.99 KCAL/MOL
REMARK 922        TOTAL FREE ENERGY PREDICTED BY IDOCK:   -6.25 KCAL/MOL
REMARK 923 INTER-LIGAND FREE ENERGY PREDICTED BY IDOCK:   -5.16 KCAL/MOL
REMARK 924 INTRA-LIGAND FREE ENERGY PREDICTED BY IDOCK:   -1.08 KCAL/MOL
REMARK 927      BINDING AFFINITY PREDICTED BY RF-SCORE:    0.00 PKD
ROOT
HETATM    1  C   UNL     1      -7.758   8.308  65.115  1.00  0.00    -0.102 C  
HETATM    2  C   UNL     1      -8.298   9.233  66.200  1.00  0.00    -0.122 C  
ENDROOT
BRANCH   2   3
HETATM    3  C   UNL     1      -9.602   8.699  66.827  1.00  0.00    -0.207 C  
BRANCH   3   4
HETATM    4  O   UNL     1     -10.599   9.763  66.716  1.00  0.00    -0.206 OA 
BRANCH   4   5
HETATM    5  C   UNL     1     -10.229  10.951  66.171  1.00  0.00    -0.249 C  
HETATM    6  C   UNL     1     -10.583  10.970  64.707  1.00  0.00    -0.350 C  
HETATM    7  O   UNL     1      -9.617  11.840  66.746  1.00  0.00    -0.192 OA 
ENDBRANCH   4   5
ENDBRANCH   3   4
BRANCH   3   8
HETATM    8  C   UNL     1      -9.460   8.244  68.366  1.00  0.00    -0.144 C  
BRANCH   8   9
HETATM    9  C   UNL     1      -8.121   8.846  68.921  1.00  0.00    -0.112 A  
HETATM   10  C   UNL     1      -6.910   8.138  69.013  1.00  0.00    -0.060 A  
HETATM   11  C   UNL     1      -5.721   8.765  69.417  1.00  0.00    -0.034 A  
HETATM   12  C   UNL     1      -5.721  10.094  69.820  1.00  0.00    -0.043 A  
HETATM   13  C   UNL     1      -6.909  10.806  69.801  1.00  0.00    -0.151 A  
HETATM   14  C   UNL     1      -8.075  10.197  69.330  1.00  0.00    -0.163 A  
ENDBRANCH   8   9
BRANCH   8  15
HETATM   15  C   UNL     1      -9.460   6.634  68.366  1.00  0.00    -0.125 A  
HETATM   16  C   UNL     1      -9.447   5.852  69.538  1.00  0.00    -0.166 A  
HETATM   17  C   UNL     1      -9.537   4.448  69.494  1.00  0.00    -0.271 A  
HETATM   18  C   UNL     1      -9.649   3.778  68.276  1.00  0.00    -0.171 A  
HETATM   19  C   UNL     1      -9.541   5.906  67.154  1.00  0.00    -0.136 A  
HETATM   20  C   UNL     1      -9.641   4.512  67.103  1.00  0.00    -0.209 A  
ENDBRANCH   8  15
BRANCH   8  21
HETATM   21  C   UNL     1     -10.692   8.752  69.274  1.00  0.00    -0.166 C  
BRANCH  21  22
HETATM   22  C   UNL     1     -10.649   9.426  70.694  1.00  0.00    -0.290 C  
HETATM   23  C   UNL     1     -10.698   8.379  71.822  1.00  0.00    -0.355 C  
BRANCH  22  24
HETATM   24  N   UNL     1     -11.567  10.565  70.927  1.00  0.00    -0.332 NA 
HETATM   25  C   UNL     1     -11.908  11.316  69.711  1.00  0.00    -0.364 C  
HETATM   26  C   UNL     1     -12.837  10.173  71.568  1.00  0.00    -0.443 C  
ENDBRANCH  22  24
ENDBRANCH  21  22
ENDBRANCH   8  21
ENDBRANCH   3   8
ENDBRANCH   2   3
TORSDOF 9
ENDMDL
MODEL      229
REMARK 921   NORMALIZED FREE ENERGY PREDICTED BY IDOCK:   -2.97 KCAL/MOL
REMARK 922        TOTAL FREE ENERGY PREDICTED BY IDOCK:   -6.23 KCAL/MOL
REMARK 923 INTER-LIGAND FREE ENERGY PREDICTED BY IDOCK:   -4.96 KCAL/MOL
REMARK 924 INTRA-LIGAND FREE ENERGY PREDICTED BY IDOCK:   -1.27 KCAL/MOL
REMARK 927      BINDING AFFINITY PREDICTED BY RF-SCORE:    0.00 PKD
ROOT
HETATM    1  C   UNL     1     -11.916  10.881  69.760  1.00  0.00    -0.423 C  
HETATM    2  C   UNL     1     -11.016   9.862  70.451  1.00  0.00    -0.379 C  
ENDROOT
BRANCH   2   3
HETATM    3  C   UNL     1     -10.891   8.553  69.645  1.00  0.00    -0.151 C  
BRANCH   3   4
HETATM    4  O   UNL     1     -11.407   7.477  70.489  1.00  0.00    -0.275 OA 
BRANCH   4   5
HETATM    5  C   UNL     1     -12.170   7.801  71.567  1.00  0.00    -0.318 C  
HETATM    6  C   UNL     1     -11.374   7.598  72.830  1.00  0.00    -0.419 C  
HETATM    7  O   UNL     1     -13.350   8.120  71.537  1.00  0.00    -0.325 OA 
ENDBRANCH   4   5
ENDBRANCH   3   4
BRANCH   3   8
HETATM    8  C   UNL     1      -9.389   8.205  69.176  1.00  0.00    -0.151 C  
BRANCH   8   9
HETATM    9  C   UNL     1      -9.481   7.145  68.023  1.00  0.00    -0.132 A  
HETATM   10  C   UNL     1      -8.371   6.531  67.418  1.00  0.00    -0.120 A  
HETATM   11  C   UNL     1      -8.522   5.510  66.466  1.00  0.00    -0.113 A  
HETATM   12  C   UNL     1      -9.785   5.130  66.029  1.00  0.00    -0.182 A  
HETATM   13  C   UNL     1     -10.900   5.756  66.559  1.00  0.00    -0.227 A  
HETATM   14  C   UNL     1     -10.746   6.722  67.558  1.00  0.00    -0.381 A  
ENDBRANCH   8   9
BRANCH   8  15
HETATM   15  C   UNL     1      -8.627   7.639  70.477  1.00  0.00    -0.137 A  
HETATM   16  C   UNL     1      -8.506   6.267  70.777  1.00  0.00    -0.135 A  
HETATM   17  C   UNL     1      -7.756   5.812  71.877  1.00  0.00    -0.105 A  
HETATM   18  C   UNL     1      -7.097   6.713  72.713  1.00  0.00    -0.080 A  
HETATM   19  C   UNL     1      -7.968   8.514  71.374  1.00  0.00    -0.168 A  
HETATM   20  C   UNL     1      -7.213   8.069  72.463  1.00  0.00    -0.112 A  
ENDBRANCH   8  15
BRANCH   8  21
HETATM   21  C   UNL     1      -8.594   9.503  68.647  1.00  0.00    -0.119 C  
BRANCH  21  22
HETATM   22  C   UNL     1      -7.395   9.571  67.631  1.00  0.00    -0.083 C  
HETATM   23  C   UNL     1      -6.109  10.087  68.303  1.00  0.00    -0.045 C  
BRANCH  22  24
HETATM   24  N   UNL     1      -7.656  10.213  66.323  1.00  0.00    -0.106 NA 
HETATM   25  C   UNL     1      -7.273   9.391  65.166  1.00  0.00    -0.101 C  
HETATM   26  C   UNL     1      -9.066  10.604  66.132  1.00  0.00    -0.170 C  
ENDBRANCH  22  24
ENDBRANCH  21  22
ENDBRANCH   8  21
ENDBRANCH   3   8
ENDBRANCH   2   3
TORSDOF 9
ENDMDL
MODEL      230
REMARK 921   NORMALIZED FREE ENERGY PREDICTED BY IDOCK:   -2.89 KCAL/MOL
REMARK 922        TOTAL FREE ENERGY PREDICTED BY IDOCK:   -6.10 KCAL/MOL
REMARK 923 INTER-LIGAND FREE ENERGY PREDICTED BY IDOCK:   -5.23 KCAL/MOL
REMARK 924 INTRA-LIGAND FREE ENERGY PREDICTED BY IDOCK:   -0.88 KCAL/MOL
REMARK 927      BINDING AFFINITY PREDICTED BY RF-SCORE:    0.00 PKD
ROOT
HETATM    1  C   UNL     1      -8.366   8.495  65.160  1.00  0.00    -0.178 C  
HETATM    2  C   UNL     1      -8.096   9.837  65.832  1.00  0.00    -0.114 C  
ENDROOT
BRANCH   2   3
HETATM    3  C   UNL     1      -9.212  10.228  66.822  1.00  0.00    -0.157 C  
BRANCH   3   4
HETATM    4  O   UNL     1      -9.771  11.497  66.360  1.00  0.00    -0.197 OA 
BRANCH   4   5
HETATM    5  C   UNL     1     -10.746  11.475  65.413  1.00  0.00    -0.278 C  
HETATM    6  C   UNL     1     -11.847  12.430  65.797  1.00  0.00    -0.467 C  
HETATM    7  O   UNL     1     -10.783  10.733  64.443  1.00  0.00    -0.301 OA 
ENDBRANCH   4   5
ENDBRANCH   3   4
BRANCH   3   8
HETATM    8  C   UNL     1      -8.721  10.374  68.350  1.00  0.00    -0.129 C  
BRANCH   8   9
HETATM    9  C   UNL     1      -7.664   9.247  68.623  1.00  0.00    -0.085 A  
HETATM   10  C   UNL     1      -6.345   9.482  69.049  1.00  0.00    -0.042 A  
HETATM   11  C   UNL     1      -5.480   8.426  69.379  1.00  0.00    -0.031 A  
HETATM   12  C   UNL     1      -5.878   7.105  69.216  1.00  0.00    -0.019 A  
HETATM   13  C   UNL     1      -7.150   6.837  68.740  1.00  0.00    -0.086 A  
HETATM   14  C   UNL     1      -8.031   7.891  68.480  1.00  0.00    -0.121 A  
ENDBRANCH   8   9
BRANCH   8  15
HETATM   15  C   UNL     1     -10.036  10.223  69.267  1.00  0.00    -0.244 A  
HETATM   16  C   UNL     1     -10.048   9.572  70.517  1.00  0.00    -0.347 A  
HETATM   17  C   UNL     1     -11.199   9.540  71.325  1.00  0.00    -0.452 A  
HETATM   18  C   UNL     1     -12.377  10.162  70.914  1.00  0.00    -0.461 A  
HETATM   19  C   UNL     1     -11.266  10.810  68.879  1.00  0.00    -0.328 A  
HETATM   20  C   UNL     1     -12.410  10.790  69.681  1.00  0.00    -0.262 A  
ENDBRANCH   8  15
BRANCH   8  21
HETATM   21  C   UNL     1      -8.058  11.813  68.648  1.00  0.00    -0.104 C  
BRANCH  21  22
HETATM   22  C   UNL     1      -7.421  12.827  67.628  1.00  0.00    -0.144 C  
HETATM   23  C   UNL     1      -5.930  12.531  67.388  1.00  0.00    -0.147 C  
BRANCH  22  24
HETATM   24  N   UNL     1      -7.692  14.266  67.852  1.00  0.00    -0.136 NA 
HETATM   25  C   UNL     1      -6.492  15.114  67.807  1.00  0.00    -0.161 C  
HETATM   26  C   UNL     1      -8.664  14.836  66.900  1.00  0.00    -0.236 C  
ENDBRANCH  22  24
ENDBRANCH  21  22
ENDBRANCH   8  21
ENDBRANCH   3   8
ENDBRANCH   2   3
TORSDOF 9
ENDMDL
MODEL      231
REMARK 921   NORMALIZED FREE ENERGY PREDICTED BY IDOCK:   -2.89 KCAL/MOL
REMARK 922        TOTAL FREE ENERGY PREDICTED BY IDOCK:   -6.10 KCAL/MOL
REMARK 923 INTER-LIGAND FREE ENERGY PREDICTED BY IDOCK:   -4.91 KCAL/MOL
REMARK 924 INTRA-LIGAND FREE ENERGY PREDICTED BY IDOCK:   -1.19 KCAL/MOL
REMARK 927      BINDING AFFINITY PREDICTED BY RF-SCORE:    0.00 PKD
ROOT
HETATM    1  C   UNL     1     -12.684   9.068  71.549  1.00  0.00    -0.399 C  
HETATM    2  C   UNL     1     -11.180   9.162  71.321  1.00  0.00    -0.407 C  
ENDROOT
BRANCH   2   3
HETATM    3  C   UNL     1     -10.594   7.854  70.749  1.00  0.00    -0.214 C  
BRANCH   3   4
HETATM    4  O   UNL     1     -10.013   7.117  71.869  1.00  0.00    -0.168 OA 
BRANCH   4   5
HETATM    5  C   UNL     1     -10.594   5.951  72.255  1.00  0.00    -0.217 C  
HETATM    6  C   UNL     1      -9.611   4.820  72.103  1.00  0.00    -0.202 C  
HETATM    7  O   UNL     1     -11.762   5.811  72.589  1.00  0.00    -0.293 OA 
ENDBRANCH   4   5
ENDBRANCH   3   4
BRANCH   3   8
HETATM    8  C   UNL     1      -9.480   8.073  69.605  1.00  0.00    -0.163 C  
BRANCH   8   9
HETATM    9  C   UNL     1      -9.706   9.496  68.983  1.00  0.00    -0.170 A  
HETATM   10  C   UNL     1      -8.764  10.539  69.024  1.00  0.00    -0.160 A  
HETATM   11  C   UNL     1      -8.982  11.754  68.355  1.00  0.00    -0.168 A  
HETATM   12  C   UNL     1     -10.181  11.995  67.695  1.00  0.00    -0.210 A  
HETATM   13  C   UNL     1     -11.156  11.012  67.686  1.00  0.00    -0.363 A  
HETATM   14  C   UNL     1     -10.905   9.778  68.293  1.00  0.00    -0.256 A  
ENDBRANCH   8   9
BRANCH   8  15
HETATM   15  C   UNL     1      -9.691   6.889  68.533  1.00  0.00    -0.138 A  
HETATM   16  C   UNL     1      -9.364   5.541  68.784  1.00  0.00    -0.152 A  
HETATM   17  C   UNL     1      -9.647   4.525  67.852  1.00  0.00    -0.208 A  
HETATM   18  C   UNL     1     -10.270   4.821  66.640  1.00  0.00    -0.274 A  
HETATM   19  C   UNL     1     -10.291   7.143  67.276  1.00  0.00    -0.342 A  
HETATM   20  C   UNL     1     -10.583   6.137  66.350  1.00  0.00    -0.107 A  
ENDBRANCH   8  15
BRANCH   8  21
HETATM   21  C   UNL     1      -7.978   7.973  70.182  1.00  0.00    -0.105 C  
BRANCH  21  22
HETATM   22  C   UNL     1      -6.679   7.475  69.449  1.00  0.00    -0.041 C  
HETATM   23  C   UNL     1      -5.447   7.540  70.371  1.00  0.00    -0.023 C  
BRANCH  22  24
HETATM   24  N   UNL     1      -6.415   8.023  68.099  1.00  0.00    -0.054 NA 
HETATM   25  C   UNL     1      -5.266   8.937  68.039  1.00  0.00    -0.035 C  
HETATM   26  C   UNL     1      -6.199   6.982  67.076  1.00  0.00    -0.041 C  
ENDBRANCH  22  24
ENDBRANCH  21  22
ENDBRANCH   8  21
ENDBRANCH   3   8
ENDBRANCH   2   3
TORSDOF 9
ENDMDL
MODEL      232
REMARK 921   NORMALIZED FREE ENERGY PREDICTED BY IDOCK:   -2.82 KCAL/MOL
REMARK 922        TOTAL FREE ENERGY PREDICTED BY IDOCK:   -5.99 KCAL/MOL
REMARK 923 INTER-LIGAND FREE ENERGY PREDICTED BY IDOCK:   -5.39 KCAL/MOL
REMARK 924 INTRA-LIGAND FREE ENERGY PREDICTED BY IDOCK:   -0.60 KCAL/MOL
REMARK 927      BINDING AFFINITY PREDICTED BY RF-SCORE:    0.00 PKD
ROOT
HETATM    1  C   UNL     1     -10.244   7.970  66.665  1.00  0.00    -0.315 C  
HETATM    2  C   UNL     1      -8.991   7.612  67.457  1.00  0.00    -0.128 C  
ENDROOT
BRANCH   2   3
HETATM    3  C   UNL     1      -9.278   7.454  68.964  1.00  0.00    -0.146 C  
BRANCH   3   4
HETATM    4  O   UNL     1     -10.718   7.245  69.108  1.00  0.00    -0.221 OA 
BRANCH   4   5
HETATM    5  C   UNL     1     -11.155   6.134  69.757  1.00  0.00    -0.416 C  
HETATM    6  C   UNL     1     -12.383   6.468  70.563  1.00  0.00     0.041 C  
HETATM    7  O   UNL     1     -10.595   5.047  69.768  1.00  0.00    -0.222 OA 
ENDBRANCH   4   5
ENDBRANCH   3   4
BRANCH   3   8
HETATM    8  C   UNL     1      -8.818   8.711  69.861  1.00  0.00    -0.144 C  
BRANCH   8   9
HETATM    9  C   UNL     1      -8.572   8.193  71.321  1.00  0.00    -0.162 A  
HETATM   10  C   UNL     1      -7.325   7.770  71.814  1.00  0.00    -0.068 A  
HETATM   11  C   UNL     1      -7.148   7.418  73.162  1.00  0.00    -0.080 A  
HETATM   12  C   UNL     1      -8.227   7.400  74.038  1.00  0.00    -0.198 A  
HETATM   13  C   UNL     1      -9.482   7.752  73.571  1.00  0.00    -0.346 A  
HETATM   14  C   UNL     1      -9.639   8.169  72.247  1.00  0.00    -0.319 A  
ENDBRANCH   8   9
BRANCH   8  15
HETATM   15  C   UNL     1     -10.011   9.789  69.780  1.00  0.00    -0.265 A  
HETATM   16  C   UNL     1     -10.080  10.808  68.809  1.00  0.00    -0.202 A  
HETATM   17  C   UNL     1     -11.185  11.674  68.720  1.00  0.00    -0.304 A  
HETATM   18  C   UNL     1     -12.264  11.547  69.596  1.00  0.00    -0.296 A  
HETATM   19  C   UNL     1     -11.115   9.722  70.666  1.00  0.00    -0.398 A  
HETATM   20  C   UNL     1     -12.220  10.573  70.577  1.00  0.00    -0.435 A  
ENDBRANCH   8  15
BRANCH   8  21
HETATM   21  C   UNL     1      -7.472   9.402  69.305  1.00  0.00    -0.076 C  
BRANCH  21  22
HETATM   22  C   UNL     1      -7.011  10.900  69.442  1.00  0.00    -0.125 C  
HETATM   23  C   UNL     1      -6.289  11.391  68.174  1.00  0.00    -0.049 C  
BRANCH  22  24
HETATM   24  N   UNL     1      -6.303  11.276  70.688  1.00  0.00    -0.287 NA 
HETATM   25  C   UNL     1      -5.194  10.379  71.039  1.00  0.00    -0.083 C  
HETATM   26  C   UNL     1      -5.764  12.649  70.665  1.00  0.00    -0.151 C  
ENDBRANCH  22  24
ENDBRANCH  21  22
ENDBRANCH   8  21
ENDBRANCH   3   8
ENDBRANCH   2   3
TORSDOF 9
ENDMDL
MODEL      233
REMARK 921   NORMALIZED FREE ENERGY PREDICTED BY IDOCK:   -2.80 KCAL/MOL
REMARK 922        TOTAL FREE ENERGY PREDICTED BY IDOCK:   -5.96 KCAL/MOL
REMARK 923 INTER-LIGAND FREE ENERGY PREDICTED BY IDOCK:   -4.85 KCAL/MOL
REMARK 924 INTRA-LIGAND FREE ENERGY PREDICTED BY IDOCK:   -1.11 KCAL/MOL
REMARK 927      BINDING AFFINITY PREDICTED BY RF-SCORE:    0.00 PKD
ROOT
HETATM    1  C   UNL     1     -11.127   6.439  67.839  1.00  0.00    -0.370 C  
HETATM    2  C   UNL     1     -11.131   6.229  69.349  1.00  0.00    -0.477 C  
ENDROOT
BRANCH   2   3
HETATM    3  C   UNL     1      -9.949   6.939  70.040  1.00  0.00    -0.180 C  
BRANCH   3   4
HETATM    4  O   UNL     1      -9.340   7.824  69.048  1.00  0.00    -0.150 OA 
BRANCH   4   5
HETATM    5  C   UNL     1      -9.608   9.155  69.108  1.00  0.00    -0.161 C  
HETATM    6  C   UNL     1      -8.827   9.877  68.041  1.00  0.00    -0.125 C  
HETATM    7  O   UNL     1     -10.301   9.707  69.950  1.00  0.00    -0.214 OA 
ENDBRANCH   4   5
ENDBRANCH   3   4
BRANCH   3   8
HETATM    8  C   UNL     1      -8.833   5.941  70.637  1.00  0.00    -0.144 C  
BRANCH   8   9
HETATM    9  C   UNL     1      -8.195   5.162  69.434  1.00  0.00    -0.087 A  
HETATM   10  C   UNL     1      -8.704   3.963  68.905  1.00  0.00    -0.132 A  
HETATM   11  C   UNL     1      -8.150   3.372  67.758  1.00  0.00    -0.081 A  
HETATM   12  C   UNL     1      -7.022   3.914  67.155  1.00  0.00    -0.062 A  
HETATM   13  C   UNL     1      -6.457   5.061  67.686  1.00  0.00    -0.045 A  
HETATM   14  C   UNL     1      -7.055   5.685  68.785  1.00  0.00    -0.072 A  
ENDBRANCH   8   9
BRANCH   8  15
HETATM   15  C   UNL     1      -9.599   4.968  71.667  1.00  0.00    -0.210 A  
HETATM   16  C   UNL     1     -10.707   5.366  72.442  1.00  0.00    -0.286 A  
HETATM   17  C   UNL     1     -11.401   4.460  73.263  1.00  0.00    -0.334 A  
HETATM   18  C   UNL     1     -11.015   3.121  73.334  1.00  0.00    -0.302 A  
HETATM   19  C   UNL     1      -9.226   3.608  71.799  1.00  0.00    -0.181 A  
HETATM   20  C   UNL     1      -9.917   2.700  72.606  1.00  0.00    -0.219 A  
ENDBRANCH   8  15
BRANCH   8  21
HETATM   21  C   UNL     1      -7.677   6.723  71.443  1.00  0.00    -0.093 C  
BRANCH  21  22
HETATM   22  C   UNL     1      -7.653   8.225  71.909  1.00  0.00    -0.108 C  
HETATM   23  C   UNL     1      -6.589   9.039  71.149  1.00  0.00    -0.086 C  
BRANCH  22  24
HETATM   24  N   UNL     1      -7.634   8.477  73.369  1.00  0.00    -0.362 NA 
HETATM   25  C   UNL     1      -8.567   7.637  74.132  1.00  0.00    -0.247 C  
HETATM   26  C   UNL     1      -6.300   8.310  73.975  1.00  0.00    -0.123 C  
ENDBRANCH  22  24
ENDBRANCH  21  22
ENDBRANCH   8  21
ENDBRANCH   3   8
ENDBRANCH   2   3
TORSDOF 9
ENDMDL
MODEL      234
REMARK 921   NORMALIZED FREE ENERGY PREDICTED BY IDOCK:   -2.80 KCAL/MOL
REMARK 922        TOTAL FREE ENERGY PREDICTED BY IDOCK:   -5.96 KCAL/MOL
REMARK 923 INTER-LIGAND FREE ENERGY PREDICTED BY IDOCK:   -4.44 KCAL/MOL
REMARK 924 INTRA-LIGAND FREE ENERGY PREDICTED BY IDOCK:   -1.53 KCAL/MOL
REMARK 927      BINDING AFFINITY PREDICTED BY RF-SCORE:    0.00 PKD
ROOT
HETATM    1  C   UNL     1     -11.043   6.766  67.107  1.00  0.00    -0.404 C  
HETATM    2  C   UNL     1     -10.478   6.423  68.481  1.00  0.00    -0.265 C  
ENDROOT
BRANCH   2   3
HETATM    3  C   UNL     1      -8.952   6.640  68.555  1.00  0.00    -0.120 C  
BRANCH   3   4
HETATM    4  O   UNL     1      -8.355   5.363  68.943  1.00  0.00    -0.099 OA 
BRANCH   4   5
HETATM    5  C   UNL     1      -8.414   4.322  68.072  1.00  0.00    -0.094 C  
HETATM    6  C   UNL     1      -8.792   3.064  68.810  1.00  0.00    -0.168 C  
HETATM    7  O   UNL     1      -8.117   4.366  66.887  1.00  0.00    -0.101 OA 
ENDBRANCH   4   5
ENDBRANCH   3   4
BRANCH   3   8
HETATM    8  C   UNL     1      -8.496   7.791  69.586  1.00  0.00    -0.133 C  
BRANCH   8   9
HETATM    9  C   UNL     1      -9.759   8.222  70.411  1.00  0.00    -0.175 A  
HETATM   10  C   UNL     1     -10.440   7.388  71.315  1.00  0.00    -0.221 A  
HETATM   11  C   UNL     1     -11.499   7.867  72.103  1.00  0.00    -0.377 A  
HETATM   12  C   UNL     1     -11.963   9.168  71.953  1.00  0.00    -0.443 A  
HETATM   13  C   UNL     1     -11.355   9.999  71.028  1.00  0.00    -0.434 A  
HETATM   14  C   UNL     1     -10.256   9.539  70.297  1.00  0.00    -0.312 A  
ENDBRANCH   8   9
BRANCH   8  15
HETATM   15  C   UNL     1      -7.901   8.991  68.693  1.00  0.00    -0.101 A  
HETATM   16  C   UNL     1      -8.419   9.361  67.436  1.00  0.00    -0.125 A  
HETATM   17  C   UNL     1      -7.925  10.472  66.729  1.00  0.00    -0.121 A  
HETATM   18  C   UNL     1      -6.899  11.256  67.257  1.00  0.00    -0.108 A  
HETATM   19  C   UNL     1      -6.839   9.798  69.171  1.00  0.00    -0.054 A  
HETATM   20  C   UNL     1      -6.350  10.909  68.478  1.00  0.00    -0.049 A  
ENDBRANCH   8  15
BRANCH   8  21
HETATM   21  C   UNL     1      -7.343   7.290  70.596  1.00  0.00    -0.071 C  
BRANCH  21  22
HETATM   22  C   UNL     1      -6.958   7.868  72.007  1.00  0.00    -0.068 C  
HETATM   23  C   UNL     1      -5.451   8.165  72.107  1.00  0.00    -0.037 C  
BRANCH  22  24
HETATM   24  N   UNL     1      -7.483   7.155  73.194  1.00  0.00    -0.072 NA 
HETATM   25  C   UNL     1      -6.711   5.959  73.562  1.00  0.00    -0.079 C  
HETATM   26  C   UNL     1      -7.573   8.004  74.397  1.00  0.00    -0.207 C  
ENDBRANCH  22  24
ENDBRANCH  21  22
ENDBRANCH   8  21
ENDBRANCH   3   8
ENDBRANCH   2   3
TORSDOF 9
ENDMDL
MODEL      235
REMARK 921   NORMALIZED FREE ENERGY PREDICTED BY IDOCK:   -2.77 KCAL/MOL
REMARK 922        TOTAL FREE ENERGY PREDICTED BY IDOCK:   -5.92 KCAL/MOL
REMARK 923 INTER-LIGAND FREE ENERGY PREDICTED BY IDOCK:   -4.84 KCAL/MOL
REMARK 924 INTRA-LIGAND FREE ENERGY PREDICTED BY IDOCK:   -1.08 KCAL/MOL
REMARK 927      BINDING AFFINITY PREDICTED BY RF-SCORE:    0.00 PKD
ROOT
HETATM    1  C   UNL     1      -6.035   6.182  69.608  1.00  0.00    -0.025 C  
HETATM    2  C   UNL     1      -7.277   5.802  68.809  1.00  0.00    -0.082 C  
ENDROOT
BRANCH   2   3
HETATM    3  C   UNL     1      -7.775   6.959  67.919  1.00  0.00    -0.112 C  
BRANCH   3   4
HETATM    4  O   UNL     1      -7.472   8.204  68.623  1.00  0.00    -0.093 OA 
BRANCH   4   5
HETATM    5  C   UNL     1      -6.674   9.120  68.015  1.00  0.00    -0.068 C  
HETATM    6  C   UNL     1      -6.069   8.520  66.772  1.00  0.00    -0.054 C  
HETATM    7  O   UNL     1      -6.404  10.231  68.447  1.00  0.00    -0.048 OA 
ENDBRANCH   4   5
ENDBRANCH   3   4
BRANCH   3   8
HETATM    8  C   UNL     1      -9.348   6.898  67.573  1.00  0.00    -0.130 C  
BRANCH   8   9
HETATM    9  C   UNL     1      -9.545   5.841  66.430  1.00  0.00    -0.175 A  
HETATM   10  C   UNL     1     -10.743   5.144  66.192  1.00  0.00    -0.247 A  
HETATM   11  C   UNL     1     -10.889   4.290  65.087  1.00  0.00    -0.075 A  
HETATM   12  C   UNL     1      -9.820   4.043  64.234  1.00  0.00    -0.175 A  
HETATM   13  C   UNL     1      -8.607   4.666  64.474  1.00  0.00    -0.141 A  
HETATM   14  C   UNL     1      -8.488   5.569  65.535  1.00  0.00    -0.144 A  
ENDBRANCH   8   9
BRANCH   8  15
HETATM   15  C   UNL     1      -9.771   8.384  67.120  1.00  0.00    -0.250 A  
HETATM   16  C   UNL     1      -9.519   8.913  65.838  1.00  0.00    -0.303 A  
HETATM   17  C   UNL     1      -9.984  10.184  65.456  1.00  0.00    -0.363 A  
HETATM   18  C   UNL     1     -10.723  10.970  66.341  1.00  0.00    -0.286 A  
HETATM   19  C   UNL     1     -10.496   9.233  67.992  1.00  0.00    -0.275 A  
HETATM   20  C   UNL     1     -10.970  10.493  67.617  1.00  0.00    -0.375 A  
ENDBRANCH   8  15
BRANCH   8  21
HETATM   21  C   UNL     1     -10.242   6.482  68.848  1.00  0.00    -0.206 C  
BRANCH  21  22
HETATM   22  C   UNL     1     -10.517   7.303  70.161  1.00  0.00    -0.218 C  
HETATM   23  C   UNL     1      -9.382   7.130  71.186  1.00  0.00    -0.157 C  
BRANCH  22  24
HETATM   24  N   UNL     1     -11.862   7.174  70.767  1.00  0.00    -0.333 NA 
HETATM   25  C   UNL     1     -11.894   6.349  71.982  1.00  0.00    -0.333 C  
HETATM   26  C   UNL     1     -12.481   8.470  71.103  1.00  0.00    -0.174 C  
ENDBRANCH  22  24
ENDBRANCH  21  22
ENDBRANCH   8  21
ENDBRANCH   3   8
ENDBRANCH   2   3
TORSDOF 9
ENDMDL
MODEL      236
REMARK 921   NORMALIZED FREE ENERGY PREDICTED BY IDOCK:   -2.76 KCAL/MOL
REMARK 922        TOTAL FREE ENERGY PREDICTED BY IDOCK:   -5.90 KCAL/MOL
REMARK 923 INTER-LIGAND FREE ENERGY PREDICTED BY IDOCK:   -6.02 KCAL/MOL
REMARK 924 INTRA-LIGAND FREE ENERGY PREDICTED BY IDOCK:    0.13 KCAL/MOL
REMARK 927      BINDING AFFINITY PREDICTED BY RF-SCORE:    0.00 PKD
ROOT
HETATM    1  C   UNL     1     -11.193  14.887  64.837  1.00  0.00    -0.415 C  
HETATM    2  C   UNL     1      -9.926  14.870  65.684  1.00  0.00    -0.389 C  
ENDROOT
BRANCH   2   3
HETATM    3  C   UNL     1     -10.143  15.507  67.072  1.00  0.00    -0.254 C  
BRANCH   3   4
HETATM    4  O   UNL     1      -9.462  16.800  67.063  1.00  0.00    -0.223 OA 
BRANCH   4   5
HETATM    5  C   UNL     1     -10.206  17.932  67.172  1.00  0.00    -0.353 C  
HETATM    6  C   UNL     1      -9.812  18.904  66.090  1.00  0.00    -0.346 C  
HETATM    7  O   UNL     1     -11.009  18.176  68.061  1.00  0.00    -0.265 OA 
ENDBRANCH   4   5
ENDBRANCH   3   4
BRANCH   3   8
HETATM    8  C   UNL     1      -9.604  14.616  68.302  1.00  0.00    -0.208 C  
BRANCH   8   9
HETATM    9  C   UNL     1      -8.075  14.920  68.478  1.00  0.00    -0.147 A  
HETATM   10  C   UNL     1      -7.556  15.912  69.329  1.00  0.00    -0.221 A  
HETATM   11  C   UNL     1      -6.174  16.063  69.525  1.00  0.00    -0.172 A  
HETATM   12  C   UNL     1      -5.267  15.284  68.816  1.00  0.00    -0.095 A  
HETATM   13  C   UNL     1      -5.743  14.338  67.924  1.00  0.00    -0.118 A  
HETATM   14  C   UNL     1      -7.120  14.144  67.786  1.00  0.00    -0.185 A  
ENDBRANCH   8   9
BRANCH   8  15
HETATM   15  C   UNL     1      -9.888  13.081  67.909  1.00  0.00    -0.224 A  
HETATM   16  C   UNL     1     -11.165  12.485  67.955  1.00  0.00    -0.316 A  
HETATM   17  C   UNL     1     -11.383  11.165  67.519  1.00  0.00    -0.351 A  
HETATM   18  C   UNL     1     -10.333  10.397  67.016  1.00  0.00    -0.295 A  
HETATM   19  C   UNL     1      -8.850  12.249  67.421  1.00  0.00    -0.185 A  
HETATM   20  C   UNL     1      -9.061  10.941  66.977  1.00  0.00    -0.158 A  
ENDBRANCH   8  15
BRANCH   8  21
HETATM   21  C   UNL     1     -10.376  14.938  69.679  1.00  0.00    -0.144 C  
BRANCH  21  22
HETATM   22  C   UNL     1     -11.922  14.897  69.968  1.00  0.00    -0.329 C  
HETATM   23  C   UNL     1     -12.745  15.154  68.692  1.00  0.00     0.742 C  
BRANCH  22  24
HETATM   24  N   UNL     1     -12.411  15.672  71.132  1.00  0.00    -0.423 NA 
HETATM   25  C   UNL     1     -13.803  15.381  71.501  1.00  0.00    -0.505 C  
HETATM   26  C   UNL     1     -11.591  15.490  72.344  1.00  0.00    -0.445 C  
ENDBRANCH  22  24
ENDBRANCH  21  22
ENDBRANCH   8  21
ENDBRANCH   3   8
ENDBRANCH   2   3
TORSDOF 9
ENDMDL
MODEL      237
REMARK 921   NORMALIZED FREE ENERGY PREDICTED BY IDOCK:   -2.74 KCAL/MOL
REMARK 922        TOTAL FREE ENERGY PREDICTED BY IDOCK:   -5.87 KCAL/MOL
REMARK 923 INTER-LIGAND FREE ENERGY PREDICTED BY IDOCK:   -6.12 KCAL/MOL
REMARK 924 INTRA-LIGAND FREE ENERGY PREDICTED BY IDOCK:    0.25 KCAL/MOL
REMARK 927      BINDING AFFINITY PREDICTED BY RF-SCORE:    0.00 PKD
ROOT
HETATM    1  C   UNL     1      -9.120  17.625  67.301  1.00  0.00    -0.237 C  
HETATM    2  C   UNL     1     -10.085  16.490  66.978  1.00  0.00    -0.279 C  
ENDROOT
BRANCH   2   3
HETATM    3  C   UNL     1      -9.375  15.122  66.910  1.00  0.00    -0.234 C  
BRANCH   3   4
HETATM    4  O   UNL     1     -10.105  14.306  65.941  1.00  0.00    -0.300 OA 
BRANCH   4   5
HETATM    5  C   UNL     1     -11.053  14.900  65.170  1.00  0.00    -0.393 C  
HETATM    6  C   UNL     1     -12.352  14.146  65.293  1.00  0.00    -0.469 C  
HETATM    7  O   UNL     1     -10.871  15.844  64.415  1.00  0.00    -0.465 OA 
ENDBRANCH   4   5
ENDBRANCH   3   4
BRANCH   3   8
HETATM    8  C   UNL     1      -9.293  14.348  68.321  1.00  0.00    -0.206 C  
BRANCH   8   9
HETATM    9  C   UNL     1      -7.808  14.422  68.822  1.00  0.00    -0.138 A  
HETATM   10  C   UNL     1      -7.263  15.507  69.531  1.00  0.00    -0.201 A  
HETATM   11  C   UNL     1      -5.957  15.468  70.046  1.00  0.00    -0.146 A  
HETATM   12  C   UNL     1      -5.130  14.379  69.798  1.00  0.00    -0.091 A  
HETATM   13  C   UNL     1      -5.614  13.319  69.052  1.00  0.00    -0.074 A  
HETATM   14  C   UNL     1      -6.937  13.333  68.602  1.00  0.00    -0.101 A  
ENDBRANCH   8   9
BRANCH   8  15
HETATM   15  C   UNL     1      -9.776  12.838  68.040  1.00  0.00    -0.220 A  
HETATM   16  C   UNL     1     -10.781  12.186  68.783  1.00  0.00    -0.252 A  
HETATM   17  C   UNL     1     -11.233  10.897  68.447  1.00  0.00    -0.347 A  
HETATM   18  C   UNL     1     -10.701  10.216  67.353  1.00  0.00    -0.336 A  
HETATM   19  C   UNL     1      -9.244  12.092  66.959  1.00  0.00    -0.195 A  
HETATM   20  C   UNL     1      -9.695  10.815  66.614  1.00  0.00    -0.227 A  
ENDBRANCH   8  15
BRANCH   8  21
HETATM   21  C   UNL     1     -10.266  14.992  69.433  1.00  0.00    -0.229 C  
BRANCH  21  22
HETATM   22  C   UNL     1     -11.734  14.573  69.811  1.00  0.00    -0.303 C  
HETATM   23  C   UNL     1     -12.768  15.213  68.866  1.00  0.00     0.523 C  
BRANCH  22  24
HETATM   24  N   UNL     1     -12.118  14.676  71.237  1.00  0.00    -0.336 NA 
HETATM   25  C   UNL     1     -11.920  16.013  71.815  1.00  0.00    -0.517 C  
HETATM   26  C   UNL     1     -13.519  14.292  71.497  1.00  0.00    -0.351 C  
ENDBRANCH  22  24
ENDBRANCH  21  22
ENDBRANCH   8  21
ENDBRANCH   3   8
ENDBRANCH   2   3
TORSDOF 9
ENDMDL
MODEL      238
REMARK 921   NORMALIZED FREE ENERGY PREDICTED BY IDOCK:   -2.73 KCAL/MOL
REMARK 922        TOTAL FREE ENERGY PREDICTED BY IDOCK:   -5.85 KCAL/MOL
REMARK 923 INTER-LIGAND FREE ENERGY PREDICTED BY IDOCK:   -5.91 KCAL/MOL
REMARK 924 INTRA-LIGAND FREE ENERGY PREDICTED BY IDOCK:    0.05 KCAL/MOL
REMARK 927      BINDING AFFINITY PREDICTED BY RF-SCORE:    0.00 PKD
ROOT
HETATM    1  C   UNL     1     -10.828  15.571  65.290  1.00  0.00    -0.425 C  
HETATM    2  C   UNL     1      -9.675  15.047  66.140  1.00  0.00    -0.334 C  
ENDROOT
BRANCH   2   3
HETATM    3  C   UNL     1     -10.162  14.424  67.464  1.00  0.00    -0.240 C  
BRANCH   3   4
HETATM    4  O   UNL     1      -9.377  15.029  68.538  1.00  0.00    -0.183 OA 
BRANCH   4   5
HETATM    5  C   UNL     1      -9.497  16.364  68.763  1.00  0.00    -0.247 C  
HETATM    6  C   UNL     1      -8.135  16.962  69.003  1.00  0.00    -0.162 C  
HETATM    7  O   UNL     1     -10.548  16.982  68.853  1.00  0.00    -0.325 OA 
ENDBRANCH   4   5
ENDBRANCH   3   4
BRANCH   3   8
HETATM    8  C   UNL     1     -10.029  12.819  67.529  1.00  0.00    -0.210 C  
BRANCH   8   9
HETATM    9  C   UNL     1      -8.524  12.475  67.812  1.00  0.00    -0.171 A  
HETATM   10  C   UNL     1      -7.931  11.230  67.542  1.00  0.00    -0.124 A  
HETATM   11  C   UNL     1      -6.553  11.018  67.717  1.00  0.00    -0.063 A  
HETATM   12  C   UNL     1      -5.744  12.017  68.244  1.00  0.00    -0.051 A  
HETATM   13  C   UNL     1      -6.307  13.237  68.579  1.00  0.00    -0.083 A  
HETATM   14  C   UNL     1      -7.664  13.465  68.337  1.00  0.00    -0.138 A  
ENDBRANCH   8   9
BRANCH   8  15
HETATM   15  C   UNL     1     -10.533  12.263  66.105  1.00  0.00    -0.270 A  
HETATM   16  C   UNL     1     -11.883  12.264  65.698  1.00  0.00    -0.423 A  
HETATM   17  C   UNL     1     -12.269  11.850  64.410  1.00  0.00    -0.277 A  
HETATM   18  C   UNL     1     -11.319  11.426  63.482  1.00  0.00    -0.257 A  
HETATM   19  C   UNL     1      -9.611  11.792  65.138  1.00  0.00    -0.173 A  
HETATM   20  C   UNL     1      -9.987  11.389  63.854  1.00  0.00    -0.357 A  
ENDBRANCH   8  15
BRANCH   8  21
HETATM   21  C   UNL     1     -10.952  12.172  68.682  1.00  0.00    -0.284 C  
BRANCH  21  22
HETATM   22  C   UNL     1     -10.742  10.823  69.462  1.00  0.00    -0.226 C  
HETATM   23  C   UNL     1     -10.857   9.604  68.528  1.00  0.00    -0.202 C  
BRANCH  22  24
HETATM   24  N   UNL     1     -11.495  10.651  70.725  1.00  0.00    -0.298 NA 
HETATM   25  C   UNL     1     -12.311  11.815  71.099  1.00  0.00    -0.224 C  
HETATM   26  C   UNL     1     -12.387   9.476  70.721  1.00  0.00    -0.162 C  
ENDBRANCH  22  24
ENDBRANCH  21  22
ENDBRANCH   8  21
ENDBRANCH   3   8
ENDBRANCH   2   3
TORSDOF 9
ENDMDL
MODEL      239
REMARK 921   NORMALIZED FREE ENERGY PREDICTED BY IDOCK:   -2.71 KCAL/MOL
REMARK 922        TOTAL FREE ENERGY PREDICTED BY IDOCK:   -5.83 KCAL/MOL
REMARK 923 INTER-LIGAND FREE ENERGY PREDICTED BY IDOCK:   -4.15 KCAL/MOL
REMARK 924 INTRA-LIGAND FREE ENERGY PREDICTED BY IDOCK:   -1.68 KCAL/MOL
REMARK 927      BINDING AFFINITY PREDICTED BY RF-SCORE:    0.00 PKD
ROOT
HETATM    1  C   UNL     1      -9.195   8.652  71.647  1.00  0.00    -0.326 C  
HETATM    2  C   UNL     1      -8.959   7.994  70.292  1.00  0.00    -0.147 C  
ENDROOT
BRANCH   2   3
HETATM    3  C   UNL     1      -8.104   8.873  69.357  1.00  0.00    -0.105 C  
BRANCH   3   4
HETATM    4  O   UNL     1      -7.867  10.137  70.053  1.00  0.00    -0.173 OA 
BRANCH   4   5
HETATM    5  C   UNL     1      -6.585  10.527  70.281  1.00  0.00    -0.137 C  
HETATM    6  C   UNL     1      -6.357  11.891  69.683  1.00  0.00    -0.124 C  
HETATM    7  O   UNL     1      -5.714   9.848  70.805  1.00  0.00    -0.064 OA 
ENDBRANCH   4   5
ENDBRANCH   3   4
BRANCH   3   8
HETATM    8  C   UNL     1      -8.775   9.161  67.921  1.00  0.00    -0.128 C  
BRANCH   8   9
HETATM    9  C   UNL     1      -7.620   9.480  66.908  1.00  0.00    -0.095 A  
HETATM   10  C   UNL     1      -6.251   9.371  67.207  1.00  0.00    -0.057 A  
HETATM   11  C   UNL     1      -5.266   9.567  66.224  1.00  0.00    -0.039 A  
HETATM   12  C   UNL     1      -5.616   9.957  64.937  1.00  0.00    -0.080 A  
HETATM   13  C   UNL     1      -6.953  10.133  64.625  1.00  0.00    -0.121 A  
HETATM   14  C   UNL     1      -7.932   9.868  65.587  1.00  0.00    -0.130 A  
ENDBRANCH   8   9
BRANCH   8  15
HETATM   15  C   UNL     1      -9.777  10.404  68.128  1.00  0.00    -0.165 A  
HETATM   16  C   UNL     1     -11.062  10.287  68.697  1.00  0.00    -0.290 A  
HETATM   17  C   UNL     1     -11.870  11.412  68.940  1.00  0.00    -0.413 A  
HETATM   18  C   UNL     1     -11.420  12.695  68.629  1.00  0.00    -0.347 A  
HETATM   19  C   UNL     1      -9.380  11.723  67.799  1.00  0.00    -0.181 A  
HETATM   20  C   UNL     1     -10.173  12.846  68.047  1.00  0.00    -0.229 A  
ENDBRANCH   8  15
BRANCH   8  21
HETATM   21  C   UNL     1      -9.629   7.905  67.380  1.00  0.00    -0.195 C  
BRANCH  21  22
HETATM   22  C   UNL     1      -9.165   6.415  67.189  1.00  0.00    -0.123 C  
HETATM   23  C   UNL     1      -8.498   6.199  65.818  1.00  0.00    -0.147 C  
BRANCH  22  24
HETATM   24  N   UNL     1     -10.145   5.356  67.523  1.00  0.00    -0.167 NA 
HETATM   25  C   UNL     1     -10.370   4.386  66.442  1.00  0.00    -0.057 C  
HETATM   26  C   UNL     1      -9.790   4.588  68.732  1.00  0.00    -0.110 C  
ENDBRANCH  22  24
ENDBRANCH  21  22
ENDBRANCH   8  21
ENDBRANCH   3   8
ENDBRANCH   2   3
TORSDOF 9
ENDMDL
MODEL      240
REMARK 921   NORMALIZED FREE ENERGY PREDICTED BY IDOCK:   -2.68 KCAL/MOL
REMARK 922        TOTAL FREE ENERGY PREDICTED BY IDOCK:   -5.78 KCAL/MOL
REMARK 923 INTER-LIGAND FREE ENERGY PREDICTED BY IDOCK:   -4.23 KCAL/MOL
REMARK 924 INTRA-LIGAND FREE ENERGY PREDICTED BY IDOCK:   -1.55 KCAL/MOL
REMARK 927      BINDING AFFINITY PREDICTED BY RF-SCORE:    0.00 PKD
ROOT
HETATM    1  C   UNL     1      -8.402   8.095  63.817  1.00  0.00     0.005 C  
HETATM    2  C   UNL     1      -7.691   9.025  64.795  1.00  0.00    -0.109 C  
ENDROOT
BRANCH   2   3
HETATM    3  C   UNL     1      -8.673   9.712  65.766  1.00  0.00    -0.147 C  
BRANCH   3   4
HETATM    4  O   UNL     1      -8.794  11.105  65.341  1.00  0.00    -0.180 OA 
BRANCH   4   5
HETATM    5  C   UNL     1      -9.897  11.483  64.644  1.00  0.00    -0.246 C  
HETATM    6  C   UNL     1     -10.076  12.976  64.747  1.00  0.00    -0.239 C  
HETATM    7  O   UNL     1     -10.685  10.729  64.091  1.00  0.00    -0.295 OA 
ENDBRANCH   4   5
ENDBRANCH   3   4
BRANCH   3   8
HETATM    8  C   UNL     1      -8.227   9.650  67.313  1.00  0.00    -0.114 C  
BRANCH   8   9
HETATM    9  C   UNL     1      -7.636   8.222  67.584  1.00  0.00    -0.098 A  
HETATM   10  C   UNL     1      -6.350   7.979  68.098  1.00  0.00    -0.054 A  
HETATM   11  C   UNL     1      -5.920   6.682  68.420  1.00  0.00    -0.021 A  
HETATM   12  C   UNL     1      -6.728   5.582  68.161  1.00  0.00    -0.054 A  
HETATM   13  C   UNL     1      -7.977   5.779  67.598  1.00  0.00    -0.102 A  
HETATM   14  C   UNL     1      -8.428   7.078  67.346  1.00  0.00    -0.122 A  
ENDBRANCH   8   9
BRANCH   8  15
HETATM   15  C   UNL     1      -9.550   9.946  68.180  1.00  0.00    -0.153 A  
HETATM   16  C   UNL     1      -9.734   9.501  69.505  1.00  0.00    -0.201 A  
HETATM   17  C   UNL     1     -10.868   9.857  70.256  1.00  0.00    -0.367 A  
HETATM   18  C   UNL     1     -11.857  10.676  69.712  1.00  0.00    -0.377 A  
HETATM   19  C   UNL     1     -10.598  10.747  67.661  1.00  0.00    -0.271 A  
HETATM   20  C   UNL     1     -11.723  11.113  68.406  1.00  0.00    -0.349 A  
ENDBRANCH   8  15
BRANCH   8  21
HETATM   21  C   UNL     1      -7.121  10.765  67.678  1.00  0.00    -0.091 C  
BRANCH  21  22
HETATM   22  C   UNL     1      -7.213  11.926  68.735  1.00  0.00    -0.112 C  
HETATM   23  C   UNL     1      -7.852  13.191  68.134  1.00  0.00    -0.145 C  
BRANCH  22  24
HETATM   24  N   UNL     1      -5.994  12.218  69.524  1.00  0.00    -0.099 NA 
HETATM   25  C   UNL     1      -6.017  13.522  70.200  1.00  0.00    -0.145 C  
HETATM   26  C   UNL     1      -5.701  11.199  70.550  1.00  0.00    -0.140 C  
ENDBRANCH  22  24
ENDBRANCH  21  22
ENDBRANCH   8  21
ENDBRANCH   3   8
ENDBRANCH   2   3
TORSDOF 9
ENDMDL
MODEL      241
REMARK 921   NORMALIZED FREE ENERGY PREDICTED BY IDOCK:   -2.68 KCAL/MOL
REMARK 922        TOTAL FREE ENERGY PREDICTED BY IDOCK:   -5.78 KCAL/MOL
REMARK 923 INTER-LIGAND FREE ENERGY PREDICTED BY IDOCK:   -5.64 KCAL/MOL
REMARK 924 INTRA-LIGAND FREE ENERGY PREDICTED BY IDOCK:   -0.14 KCAL/MOL
REMARK 927      BINDING AFFINITY PREDICTED BY RF-SCORE:    0.00 PKD
ROOT
HETATM    1  C   UNL     1     -12.508  10.686  69.982  1.00  0.00    -0.294 C  
HETATM    2  C   UNL     1     -11.041  11.084  70.102  1.00  0.00    -0.175 C  
ENDROOT
BRANCH   2   3
HETATM    3  C   UNL     1     -10.170  10.444  69.002  1.00  0.00    -0.217 C  
BRANCH   3   4
HETATM    4  O   UNL     1      -8.911  10.044  69.629  1.00  0.00    -0.198 OA 
BRANCH   4   5
HETATM    5  C   UNL     1      -8.771   8.760  70.053  1.00  0.00    -0.144 C  
HETATM    6  C   UNL     1      -9.648   7.855  69.227  1.00  0.00    -0.157 C  
HETATM    7  O   UNL     1      -8.112   8.394  71.015  1.00  0.00    -0.098 OA 
ENDBRANCH   4   5
ENDBRANCH   3   4
BRANCH   3   8
HETATM    8  C   UNL     1      -9.871  11.410  67.748  1.00  0.00    -0.186 C  
BRANCH   8   9
HETATM    9  C   UNL     1      -8.462  11.027  67.174  1.00  0.00    -0.137 A  
HETATM   10  C   UNL     1      -8.249  10.071  66.164  1.00  0.00    -0.121 A  
HETATM   11  C   UNL     1      -6.975   9.850  65.618  1.00  0.00    -0.108 A  
HETATM   12  C   UNL     1      -5.863  10.517  66.118  1.00  0.00    -0.099 A  
HETATM   13  C   UNL     1      -6.027  11.420  67.154  1.00  0.00    -0.098 A  
HETATM   14  C   UNL     1      -7.307  11.688  67.646  1.00  0.00    -0.108 A  
ENDBRANCH   8   9
BRANCH   8  15
HETATM   15  C   UNL     1      -9.919  12.917  68.313  1.00  0.00    -0.234 A  
HETATM   16  C   UNL     1     -11.106  13.567  68.706  1.00  0.00    -0.298 A  
HETATM   17  C   UNL     1     -11.093  14.853  69.277  1.00  0.00    -0.284 A  
HETATM   18  C   UNL     1      -9.891  15.531  69.481  1.00  0.00    -0.284 A  
HETATM   19  C   UNL     1      -8.729  13.660  68.510  1.00  0.00    -0.102 A  
HETATM   20  C   UNL     1      -8.707  14.933  69.086  1.00  0.00    -0.149 A  
ENDBRANCH   8  15
BRANCH   8  21
HETATM   21  C   UNL     1     -10.979  11.269  66.585  1.00  0.00    -0.326 C  
BRANCH  21  22
HETATM   22  C   UNL     1     -11.141  12.128  65.278  1.00  0.00    -0.321 C  
HETATM   23  C   UNL     1     -12.121  13.297  65.485  1.00  0.00    -0.480 C  
BRANCH  22  24
HETATM   24  N   UNL     1     -11.383  11.393  64.015  1.00  0.00    -0.301 NA 
HETATM   25  C   UNL     1     -12.506  11.915  63.225  1.00  0.00    -0.384 C  
HETATM   26  C   UNL     1     -10.206  11.351  63.126  1.00  0.00    -0.334 C  
ENDBRANCH  22  24
ENDBRANCH  21  22
ENDBRANCH   8  21
ENDBRANCH   3   8
ENDBRANCH   2   3
TORSDOF 9
ENDMDL
MODEL      242
REMARK 921   NORMALIZED FREE ENERGY PREDICTED BY IDOCK:   -2.66 KCAL/MOL
REMARK 922        TOTAL FREE ENERGY PREDICTED BY IDOCK:   -5.75 KCAL/MOL
REMARK 923 INTER-LIGAND FREE ENERGY PREDICTED BY IDOCK:   -6.17 KCAL/MOL
REMARK 924 INTRA-LIGAND FREE ENERGY PREDICTED BY IDOCK:    0.42 KCAL/MOL
REMARK 927      BINDING AFFINITY PREDICTED BY RF-SCORE:    0.00 PKD
ROOT
HETATM    1  C   UNL     1     -12.144  13.600  66.615  1.00  0.00    -0.459 C  
HETATM    2  C   UNL     1     -11.910  12.096  66.692  1.00  0.00    -0.314 C  
ENDROOT
BRANCH   2   3
HETATM    3  C   UNL     1     -10.419  11.728  66.543  1.00  0.00    -0.230 C  
BRANCH   3   4
HETATM    4  O   UNL     1     -10.304  10.874  65.362  1.00  0.00    -0.268 OA 
BRANCH   4   5
HETATM    5  C   UNL     1      -9.950  11.440  64.179  1.00  0.00    -0.290 C  
HETATM    6  C   UNL     1      -9.048  10.503  63.418  1.00  0.00    -0.264 C  
HETATM    7  O   UNL     1     -10.236  12.571  63.814  1.00  0.00    -0.416 OA 
ENDBRANCH   4   5
ENDBRANCH   3   4
BRANCH   3   8
HETATM    8  C   UNL     1      -9.791  10.977  67.823  1.00  0.00    -0.190 C  
BRANCH   8   9
HETATM    9  C   UNL     1      -9.589   9.469  67.440  1.00  0.00    -0.178 A  
HETATM   10  C   UNL     1     -10.535   8.457  67.677  1.00  0.00    -0.307 A  
HETATM   11  C   UNL     1     -10.341   7.145  67.214  1.00  0.00    -0.342 A  
HETATM   12  C   UNL     1      -9.160   6.786  66.574  1.00  0.00    -0.171 A  
HETATM   13  C   UNL     1      -8.180   7.744  66.379  1.00  0.00    -0.116 A  
HETATM   14  C   UNL     1      -8.409   9.064  66.779  1.00  0.00    -0.115 A  
ENDBRANCH   8   9
BRANCH   8  15
HETATM   15  C   UNL     1     -10.841  11.174  69.027  1.00  0.00    -0.276 A  
HETATM   16  C   UNL     1     -11.271  12.434  69.491  1.00  0.00    -0.171 A  
HETATM   17  C   UNL     1     -12.257  12.560  70.487  1.00  0.00    -0.382 A  
HETATM   18  C   UNL     1     -12.852  11.431  71.049  1.00  0.00    -0.381 A  
HETATM   19  C   UNL     1     -11.451  10.059  69.652  1.00  0.00    -0.210 A  
HETATM   20  C   UNL     1     -12.438  10.177  70.634  1.00  0.00    -0.372 A  
ENDBRANCH   8  15
BRANCH   8  21
HETATM   21  C   UNL     1      -8.378  11.609  68.273  1.00  0.00    -0.159 C  
BRANCH  21  22
HETATM   22  C   UNL     1      -7.277  10.981  69.205  1.00  0.00    -0.121 C  
HETATM   23  C   UNL     1      -7.852   9.857  70.086  1.00  0.00    -0.186 C  
BRANCH  22  24
HETATM   24  N   UNL     1      -6.419  11.921  69.962  1.00  0.00    -0.071 NA 
HETATM   25  C   UNL     1      -5.159  11.332  70.435  1.00  0.00    -0.086 C  
HETATM   26  C   UNL     1      -6.073  13.139  69.205  1.00  0.00    -0.095 C  
ENDBRANCH  22  24
ENDBRANCH  21  22
ENDBRANCH   8  21
ENDBRANCH   3   8
ENDBRANCH   2   3
TORSDOF 9
ENDMDL
MODEL      243
REMARK 921   NORMALIZED FREE ENERGY PREDICTED BY IDOCK:   -2.66 KCAL/MOL
REMARK 922        TOTAL FREE ENERGY PREDICTED BY IDOCK:   -5.74 KCAL/MOL
REMARK 923 INTER-LIGAND FREE ENERGY PREDICTED BY IDOCK:   -4.92 KCAL/MOL
REMARK 924 INTRA-LIGAND FREE ENERGY PREDICTED BY IDOCK:   -0.82 KCAL/MOL
REMARK 927      BINDING AFFINITY PREDICTED BY RF-SCORE:    0.00 PKD
ROOT
HETATM    1  C   UNL     1     -13.064   8.176  71.826  1.00  0.00    -0.367 C  
HETATM    2  C   UNL     1     -11.543   8.164  71.935  1.00  0.00    -0.361 C  
ENDROOT
BRANCH   2   3
HETATM    3  C   UNL     1     -10.908   7.019  71.119  1.00  0.00    -0.237 C  
BRANCH   3   4
HETATM    4  O   UNL     1     -10.145   6.196  72.056  1.00  0.00    -0.179 OA 
BRANCH   4   5
HETATM    5  C   UNL     1     -10.502   4.896  72.224  1.00  0.00    -0.204 C  
HETATM    6  C   UNL     1     -11.641   4.806  73.207  1.00  0.00    -0.286 C  
HETATM    7  O   UNL     1      -9.935   3.930  71.733  1.00  0.00    -0.181 OA 
ENDBRANCH   4   5
ENDBRANCH   3   4
BRANCH   3   8
HETATM    8  C   UNL     1      -9.951   7.512  69.921  1.00  0.00    -0.189 C  
BRANCH   8   9
HETATM    9  C   UNL     1     -10.023   6.439  68.779  1.00  0.00    -0.165 A  
HETATM   10  C   UNL     1     -10.759   6.593  67.591  1.00  0.00    -0.373 A  
HETATM   11  C   UNL     1     -10.697   5.642  66.559  1.00  0.00    -0.296 A  
HETATM   12  C   UNL     1      -9.964   4.472  66.715  1.00  0.00    -0.240 A  
HETATM   13  C   UNL     1      -9.275   4.260  67.898  1.00  0.00    -0.179 A  
HETATM   14  C   UNL     1      -9.284   5.241  68.893  1.00  0.00    -0.150 A  
ENDBRANCH   8   9
BRANCH   8  15
HETATM   15  C   UNL     1      -8.474   7.650  70.547  1.00  0.00    -0.128 A  
HETATM   16  C   UNL     1      -8.146   8.541  71.590  1.00  0.00    -0.195 A  
HETATM   17  C   UNL     1      -6.864   8.566  72.167  1.00  0.00    -0.093 A  
HETATM   18  C   UNL     1      -5.865   7.699  71.726  1.00  0.00    -0.036 A  
HETATM   19  C   UNL     1      -7.416   6.814  70.112  1.00  0.00    -0.094 A  
HETATM   20  C   UNL     1      -6.143   6.828  70.687  1.00  0.00    -0.028 A  
ENDBRANCH   8  15
BRANCH   8  21
HETATM   21  C   UNL     1     -10.390   8.948  69.335  1.00  0.00    -0.217 C  
BRANCH  21  22
HETATM   22  C   UNL     1      -9.491  10.043  68.652  1.00  0.00    -0.156 C  
HETATM   23  C   UNL     1     -10.313  11.278  68.240  1.00  0.00    -0.200 C  
BRANCH  22  24
HETATM   24  N   UNL     1      -8.567   9.589  67.587  1.00  0.00    -0.122 NA 
HETATM   25  C   UNL     1      -9.069   9.811  66.225  1.00  0.00    -0.157 C  
HETATM   26  C   UNL     1      -7.230  10.208  67.666  1.00  0.00    -0.088 C  
ENDBRANCH  22  24
ENDBRANCH  21  22
ENDBRANCH   8  21
ENDBRANCH   3   8
ENDBRANCH   2   3
TORSDOF 9
ENDMDL
MODEL      244
REMARK 921   NORMALIZED FREE ENERGY PREDICTED BY IDOCK:   -2.39 KCAL/MOL
REMARK 922        TOTAL FREE ENERGY PREDICTED BY IDOCK:   -5.34 KCAL/MOL
REMARK 923 INTER-LIGAND FREE ENERGY PREDICTED BY IDOCK:   -4.52 KCAL/MOL
REMARK 924 INTRA-LIGAND FREE ENERGY PREDICTED BY IDOCK:   -0.82 KCAL/MOL
REMARK 927      BINDING AFFINITY PREDICTED BY RF-SCORE:    0.00 PKD
ROOT
HETATM    1  C   UNL     1     -10.819   3.487  73.153  1.00  0.00    -0.248 C  
HETATM    2  C   UNL     1      -9.499   3.544  72.391  1.00  0.00    -0.183 C  
ENDROOT
BRANCH   2   3
HETATM    3  C   UNL     1      -9.640   4.257  71.031  1.00  0.00    -0.183 C  
BRANCH   3   4
HETATM    4  O   UNL     1      -8.937   3.441  70.043  1.00  0.00    -0.081 OA 
BRANCH   4   5
HETATM    5  C   UNL     1      -7.908   2.656  70.457  1.00  0.00    -0.042 C  
HETATM    6  C   UNL     1      -6.771   2.751  69.473  1.00  0.00    -0.034 C  
HETATM    7  O   UNL     1      -7.924   1.910  71.425  1.00  0.00    -0.040 OA 
ENDBRANCH   4   5
ENDBRANCH   3   4
BRANCH   3   8
HETATM    8  C   UNL     1      -9.059   5.761  71.008  1.00  0.00    -0.157 C  
BRANCH   8   9
HETATM    9  C   UNL     1      -8.044   5.899  72.196  1.00  0.00    -0.107 A  
HETATM   10  C   UNL     1      -8.410   6.180  73.524  1.00  0.00    -0.118 A  
HETATM   11  C   UNL     1      -7.464   6.185  74.562  1.00  0.00    -0.093 A  
HETATM   12  C   UNL     1      -6.115   5.991  74.293  1.00  0.00    -0.064 A  
HETATM   13  C   UNL     1      -5.711   5.772  72.987  1.00  0.00    -0.035 A  
HETATM   14  C   UNL     1      -6.665   5.698  71.968  1.00  0.00    -0.063 A  
ENDBRANCH   8   9
BRANCH   8  15
HETATM   15  C   UNL     1     -10.328   6.740  71.161  1.00  0.00    -0.227 A  
HETATM   16  C   UNL     1     -11.665   6.292  71.180  1.00  0.00    -0.292 A  
HETATM   17  C   UNL     1     -12.739   7.172  71.404  1.00  0.00    -0.433 A  
HETATM   18  C   UNL     1     -12.514   8.531  71.624  1.00  0.00    -0.370 A  
HETATM   19  C   UNL     1     -10.155   8.132  71.356  1.00  0.00    -0.248 A  
HETATM   20  C   UNL     1     -11.217   9.011  71.589  1.00  0.00    -0.431 A  
ENDBRANCH   8  15
BRANCH   8  21
HETATM   21  C   UNL     1      -8.313   6.110  69.622  1.00  0.00    -0.124 C  
BRANCH  21  22
HETATM   22  C   UNL     1      -8.951   6.470  68.231  1.00  0.00    -0.121 C  
HETATM   23  C   UNL     1      -9.132   7.990  68.065  1.00  0.00    -0.130 C  
BRANCH  22  24
HETATM   24  N   UNL     1     -10.149   5.702  67.820  1.00  0.00    -0.157 NA 
HETATM   25  C   UNL     1     -11.100   6.469  67.003  1.00  0.00    -0.339 C  
HETATM   26  C   UNL     1      -9.829   4.470  67.075  1.00  0.00    -0.202 C  
ENDBRANCH  22  24
ENDBRANCH  21  22
ENDBRANCH   8  21
ENDBRANCH   3   8
ENDBRANCH   2   3
TORSDOF 9
ENDMDL
MODEL      245
REMARK 921   NORMALIZED FREE ENERGY PREDICTED BY IDOCK:   -2.39 KCAL/MOL
REMARK 922        TOTAL FREE ENERGY PREDICTED BY IDOCK:   -5.33 KCAL/MOL
REMARK 923 INTER-LIGAND FREE ENERGY PREDICTED BY IDOCK:   -3.38 KCAL/MOL
REMARK 924 INTRA-LIGAND FREE ENERGY PREDICTED BY IDOCK:   -1.95 KCAL/MOL
REMARK 927      BINDING AFFINITY PREDICTED BY RF-SCORE:    0.00 PKD
ROOT
HETATM    1  C   UNL     1     -10.929   6.909  66.862  1.00  0.00    -0.328 C  
HETATM    2  C   UNL     1     -10.646   7.880  68.003  1.00  0.00    -0.194 C  
ENDROOT
BRANCH   2   3
HETATM    3  C   UNL     1      -9.385   8.730  67.747  1.00  0.00    -0.141 C  
BRANCH   3   4
HETATM    4  O   UNL     1      -9.172   8.758  66.301  1.00  0.00    -0.176 OA 
BRANCH   4   5
HETATM    5  C   UNL     1      -9.263   9.947  65.650  1.00  0.00    -0.194 C  
HETATM    6  C   UNL     1     -10.318  10.802  66.303  1.00  0.00    -0.303 C  
HETATM    7  O   UNL     1      -8.657  10.253  64.634  1.00  0.00    -0.170 OA 
ENDBRANCH   4   5
ENDBRANCH   3   4
BRANCH   3   8
HETATM    8  C   UNL     1      -8.059   8.185  68.483  1.00  0.00    -0.124 C  
BRANCH   8   9
HETATM    9  C   UNL     1      -7.269   9.428  69.026  1.00  0.00    -0.071 A  
HETATM   10  C   UNL     1      -7.698  10.760  68.894  1.00  0.00    -0.129 A  
HETATM   11  C   UNL     1      -7.000  11.820  69.497  1.00  0.00     0.027 A  
HETATM   12  C   UNL     1      -5.811  11.590  70.178  1.00  0.00    -0.150 A  
HETATM   13  C   UNL     1      -5.327  10.297  70.275  1.00  0.00    -0.049 A  
HETATM   14  C   UNL     1      -6.062   9.238  69.735  1.00  0.00    -0.039 A  
ENDBRANCH   8   9
BRANCH   8  15
HETATM   15  C   UNL     1      -7.230   7.362  67.375  1.00  0.00    -0.093 A  
HETATM   16  C   UNL     1      -6.260   7.942  66.533  1.00  0.00    -0.046 A  
HETATM   17  C   UNL     1      -5.497   7.169  65.640  1.00  0.00    -0.028 A  
HETATM   18  C   UNL     1      -5.672   5.787  65.561  1.00  0.00    -0.017 A  
HETATM   19  C   UNL     1      -7.394   5.962  67.234  1.00  0.00    -0.077 A  
HETATM   20  C   UNL     1      -6.632   5.186  66.356  1.00  0.00    -0.049 A  
ENDBRANCH   8  15
BRANCH   8  21
HETATM   21  C   UNL     1      -8.399   7.191  69.706  1.00  0.00    -0.132 C  
BRANCH  21  22
HETATM   22  C   UNL     1      -8.870   7.554  71.161  1.00  0.00    -0.141 C  
HETATM   23  C   UNL     1      -7.796   7.209  72.209  1.00  0.00    -0.092 C  
BRANCH  22  24
HETATM   24  N   UNL     1     -10.226   7.111  71.561  1.00  0.00    -0.198 NA 
HETATM   25  C   UNL     1     -10.251   6.291  72.780  1.00  0.00    -0.185 C  
HETATM   26  C   UNL     1     -11.171   8.224  71.764  1.00  0.00    -0.283 C  
ENDBRANCH  22  24
ENDBRANCH  21  22
ENDBRANCH   8  21
ENDBRANCH   3   8
ENDBRANCH   2   3
TORSDOF 9
ENDMDL
MODEL      246
REMARK 921   NORMALIZED FREE ENERGY PREDICTED BY IDOCK:   -2.24 KCAL/MOL
REMARK 922        TOTAL FREE ENERGY PREDICTED BY IDOCK:   -5.10 KCAL/MOL
REMARK 923 INTER-LIGAND FREE ENERGY PREDICTED BY IDOCK:   -5.11 KCAL/MOL
REMARK 924 INTRA-LIGAND FREE ENERGY PREDICTED BY IDOCK:    0.01 KCAL/MOL
REMARK 927      BINDING AFFINITY PREDICTED BY RF-SCORE:    0.00 PKD
ROOT
HETATM    1  C   UNL     1     -10.904  15.160  66.309  1.00  0.00    -0.333 C  
HETATM    2  C   UNL     1     -11.119  13.654  66.416  1.00  0.00    -0.307 C  
ENDROOT
BRANCH   2   3
HETATM    3  C   UNL     1     -10.520  13.070  67.712  1.00  0.00    -0.228 C  
BRANCH   3   4
HETATM    4  O   UNL     1     -10.308  14.187  68.630  1.00  0.00    -0.236 OA 
BRANCH   4   5
HETATM    5  C   UNL     1     -11.215  14.401  69.619  1.00  0.00    -0.232 C  
HETATM    6  C   UNL     1     -11.961  13.124  69.908  1.00  0.00    -0.387 C  
HETATM    7  O   UNL     1     -11.463  15.480  70.139  1.00  0.00    -0.270 OA 
ENDBRANCH   4   5
ENDBRANCH   3   4
BRANCH   3   8
HETATM    8  C   UNL     1      -9.138  12.268  67.500  1.00  0.00    -0.182 C  
BRANCH   8   9
HETATM    9  C   UNL     1      -7.960  13.280  67.725  1.00  0.00    -0.166 A  
HETATM   10  C   UNL     1      -7.801  14.484  67.018  1.00  0.00    -0.015 A  
HETATM   11  C   UNL     1      -6.786  15.399  67.340  1.00  0.00    -0.178 A  
HETATM   12  C   UNL     1      -5.849  15.101  68.323  1.00  0.00    -0.123 A  
HETATM   13  C   UNL     1      -5.939  13.896  68.999  1.00  0.00    -0.086 A  
HETATM   14  C   UNL     1      -6.993  13.021  68.722  1.00  0.00    -0.103 A  
ENDBRANCH   8   9
BRANCH   8  15
HETATM   15  C   UNL     1      -9.176  11.687  65.999  1.00  0.00    -0.218 A  
HETATM   16  C   UNL     1      -8.075  11.069  65.372  1.00  0.00     0.103 A  
HETATM   17  C   UNL     1      -8.177  10.496  64.092  1.00  0.00    -0.058 A  
HETATM   18  C   UNL     1      -9.385  10.516  63.395  1.00  0.00    -0.335 A  
HETATM   19  C   UNL     1     -10.370  11.711  65.238  1.00  0.00    -0.316 A  
HETATM   20  C   UNL     1     -10.481  11.136  63.969  1.00  0.00    -0.447 A  
ENDBRANCH   8  15
BRANCH   8  21
HETATM   21  C   UNL     1      -8.983  11.030  68.520  1.00  0.00    -0.163 C  
BRANCH  21  22
HETATM   22  C   UNL     1      -9.369   9.522  68.295  1.00  0.00    -0.133 C  
HETATM   23  C   UNL     1     -10.849   9.368  67.899  1.00  0.00    -0.215 C  
BRANCH  22  24
HETATM   24  N   UNL     1      -8.951   8.557  69.338  1.00  0.00    -0.148 NA 
HETATM   25  C   UNL     1      -7.528   8.196  69.281  1.00  0.00    -0.089 C  
HETATM   26  C   UNL     1      -9.230   9.018  70.711  1.00  0.00    -0.245 C  
ENDBRANCH  22  24
ENDBRANCH  21  22
ENDBRANCH   8  21
ENDBRANCH   3   8
ENDBRANCH   2   3
TORSDOF 9
ENDMDL
MODEL      247
REMARK 921   NORMALIZED FREE ENERGY PREDICTED BY IDOCK:   -2.17 KCAL/MOL
REMARK 922        TOTAL FREE ENERGY PREDICTED BY IDOCK:   -5.00 KCAL/MOL
REMARK 923 INTER-LIGAND FREE ENERGY PREDICTED BY IDOCK:   -4.00 KCAL/MOL
REMARK 924 INTRA-LIGAND FREE ENERGY PREDICTED BY IDOCK:   -1.00 KCAL/MOL
REMARK 927      BINDING AFFINITY PREDICTED BY RF-SCORE:    0.00 PKD
ROOT
HETATM    1  C   UNL     1     -10.696   8.392  68.931  1.00  0.00    -0.095 C  
HETATM    2  C   UNL     1     -11.008   6.933  69.241  1.00  0.00    -0.260 C  
ENDROOT
BRANCH   2   3
HETATM    3  C   UNL     1     -10.429   6.488  70.600  1.00  0.00    -0.214 C  
BRANCH   3   4
HETATM    4  O   UNL     1      -9.725   7.638  71.164  1.00  0.00    -0.163 OA 
BRANCH   4   5
HETATM    5  C   UNL     1     -10.079   8.078  72.400  1.00  0.00    -0.266 C  
HETATM    6  C   UNL     1      -8.842   8.325  73.224  1.00  0.00    -0.283 C  
HETATM    7  O   UNL     1     -11.222   8.175  72.823  1.00  0.00    -0.389 OA 
ENDBRANCH   4   5
ENDBRANCH   3   4
BRANCH   3   8
HETATM    8  C   UNL     1      -9.429   5.226  70.512  1.00  0.00    -0.222 C  
BRANCH   8   9
HETATM    9  C   UNL     1      -9.398   4.542  71.924  1.00  0.00    -0.189 A  
HETATM   10  C   UNL     1      -8.253   3.969  72.503  1.00  0.00    -0.098 A  
HETATM   11  C   UNL     1      -8.264   3.467  73.815  1.00  0.00    -0.079 A  
HETATM   12  C   UNL     1      -9.439   3.448  74.556  1.00  0.00    -0.127 A  
HETATM   13  C   UNL     1     -10.601   3.948  73.994  1.00  0.00    -0.290 A  
HETATM   14  C   UNL     1     -10.568   4.511  72.715  1.00  0.00    -0.263 A  
ENDBRANCH   8   9
BRANCH   8  15
HETATM   15  C   UNL     1      -7.994   5.814  70.078  1.00  0.00    -0.099 A  
HETATM   16  C   UNL     1      -6.885   5.889  70.945  1.00  0.00    -0.062 A  
HETATM   17  C   UNL     1      -5.625   6.327  70.500  1.00  0.00    -0.018 A  
HETATM   18  C   UNL     1      -5.427   6.700  69.171  1.00  0.00    -0.014 A  
HETATM   19  C   UNL     1      -7.751   6.235  68.748  1.00  0.00    -0.100 A  
HETATM   20  C   UNL     1      -6.499   6.663  68.297  1.00  0.00    -0.049 A  
ENDBRANCH   8  15
BRANCH   8  21
HETATM   21  C   UNL     1      -9.893   4.151  69.405  1.00  0.00    -0.163 C  
BRANCH  21  22
HETATM   22  C   UNL     1      -9.067   2.963  68.788  1.00  0.00    -0.153 C  
HETATM   23  C   UNL     1      -8.051   2.394  69.796  1.00  0.00    -0.057 C  
BRANCH  22  24
HETATM   24  N   UNL     1      -8.484   3.174  67.443  1.00  0.00    -0.088 NA 
HETATM   25  C   UNL     1      -8.008   1.943  66.797  1.00  0.00    -0.072 C  
HETATM   26  C   UNL     1      -9.408   3.832  66.500  1.00  0.00    -0.190 C  
ENDBRANCH  22  24
ENDBRANCH  21  22
ENDBRANCH   8  21
ENDBRANCH   3   8
ENDBRANCH   2   3
TORSDOF 9
ENDMDL
MODEL      248
REMARK 921   NORMALIZED FREE ENERGY PREDICTED BY IDOCK:   -1.99 KCAL/MOL
REMARK 922        TOTAL FREE ENERGY PREDICTED BY IDOCK:   -4.72 KCAL/MOL
REMARK 923 INTER-LIGAND FREE ENERGY PREDICTED BY IDOCK:   -3.45 KCAL/MOL
REMARK 924 INTRA-LIGAND FREE ENERGY PREDICTED BY IDOCK:   -1.27 KCAL/MOL
REMARK 927      BINDING AFFINITY PREDICTED BY RF-SCORE:    0.00 PKD
ROOT
HETATM    1  C   UNL     1      -5.574  10.428  68.760  1.00  0.00    -0.041 C  
HETATM    2  C   UNL     1      -7.058  10.158  68.980  1.00  0.00    -0.072 C  
ENDROOT
BRANCH   2   3
HETATM    3  C   UNL     1      -7.935  10.782  67.875  1.00  0.00    -0.110 C  
BRANCH   3   4
HETATM    4  O   UNL     1      -8.679  11.881  68.487  1.00  0.00    -0.165 OA 
BRANCH   4   5
HETATM    5  C   UNL     1      -8.153  13.133  68.438  1.00  0.00    -0.130 C  
HETATM    6  C   UNL     1      -8.175  13.637  67.018  1.00  0.00    -0.056 C  
HETATM    7  O   UNL     1      -7.650  13.734  69.376  1.00  0.00     0.108 OA 
ENDBRANCH   4   5
ENDBRANCH   3   4
BRANCH   3   8
HETATM    8  C   UNL     1      -8.960   9.750  67.182  1.00  0.00    -0.148 C  
BRANCH   8   9
HETATM    9  C   UNL     1      -9.764  10.537  66.088  1.00  0.00    -0.259 A  
HETATM   10  C   UNL     1     -11.143  10.802  66.155  1.00  0.00     0.066 A  
HETATM   11  C   UNL     1     -11.785  11.604  65.198  1.00  0.00    -0.046 A  
HETATM   12  C   UNL     1     -11.087  12.098  64.103  1.00  0.00    -0.424 A  
HETATM   13  C   UNL     1      -9.739  11.805  63.973  1.00  0.00    -0.202 A  
HETATM   14  C   UNL     1      -9.091  11.065  64.965  1.00  0.00    -0.182 A  
ENDBRANCH   8   9
BRANCH   8  15
HETATM   15  C   UNL     1      -9.904   9.187  68.358  1.00  0.00    -0.181 A  
HETATM   16  C   UNL     1     -10.131   7.815  68.590  1.00  0.00    -0.211 A  
HETATM   17  C   UNL     1     -10.893   7.364  69.683  1.00  0.00    -0.222 A  
HETATM   18  C   UNL     1     -11.449   8.269  70.587  1.00  0.00    -0.236 A  
HETATM   19  C   UNL     1     -10.517  10.066  69.284  1.00  0.00    -0.245 A  
HETATM   20  C   UNL     1     -11.267   9.625  70.378  1.00  0.00    -0.342 A  
ENDBRANCH   8  15
BRANCH   8  21
HETATM   21  C   UNL     1      -8.205   8.501  66.496  1.00  0.00    -0.108 C  
BRANCH  21  22
HETATM   22  C   UNL     1      -8.540   7.779  65.139  1.00  0.00     0.001 C  
HETATM   23  C   UNL     1      -8.813   6.278  65.347  1.00  0.00     0.002 C  
BRANCH  22  24
HETATM   24  N   UNL     1      -7.640   8.046  63.994  1.00  0.00    -0.116 NA 
HETATM   25  C   UNL     1      -6.406   7.248  64.005  1.00  0.00    -0.044 C  
HETATM   26  C   UNL     1      -8.282   7.838  62.682  1.00  0.00    -0.084 C  
ENDBRANCH  22  24
ENDBRANCH  21  22
ENDBRANCH   8  21
ENDBRANCH   3   8
ENDBRANCH   2   3
TORSDOF 9
ENDMDL
MODEL      249
REMARK 921   NORMALIZED FREE ENERGY PREDICTED BY IDOCK:   -1.77 KCAL/MOL
REMARK 922        TOTAL FREE ENERGY PREDICTED BY IDOCK:   -4.39 KCAL/MOL
REMARK 923 INTER-LIGAND FREE ENERGY PREDICTED BY IDOCK:   -5.24 KCAL/MOL
REMARK 924 INTRA-LIGAND FREE ENERGY PREDICTED BY IDOCK:    0.85 KCAL/MOL
REMARK 927      BINDING AFFINITY PREDICTED BY RF-SCORE:    0.00 PKD
ROOT
HETATM    1  C   UNL     1      -8.905  17.294  67.862  1.00  0.00    -0.235 C  
HETATM    2  C   UNL     1     -10.009  16.847  66.910  1.00  0.00    -0.279 C  
ENDROOT
BRANCH   2   3
HETATM    3  C   UNL     1      -9.642  15.552  66.158  1.00  0.00    -0.330 C  
BRANCH   3   4
HETATM    4  O   UNL     1     -10.452  15.517  64.942  1.00  0.00    -0.397 OA 
BRANCH   4   5
HETATM    5  C   UNL     1     -11.359  16.506  64.732  1.00  0.00    -0.075 C  
HETATM    6  C   UNL     1     -12.706  15.904  64.425  1.00  0.00     0.949 C  
HETATM    7  O   UNL     1     -11.116  17.704  64.702  1.00  0.00    -0.906 OA 
ENDBRANCH   4   5
ENDBRANCH   3   4
BRANCH   3   8
HETATM    8  C   UNL     1      -9.877  14.203  67.008  1.00  0.00    -0.258 C  
BRANCH   8   9
HETATM    9  C   UNL     1      -8.580  13.936  67.849  1.00  0.00    -0.180 A  
HETATM   10  C   UNL     1      -8.042  14.836  68.786  1.00  0.00    -0.158 A  
HETATM   11  C   UNL     1      -6.940  14.494  69.586  1.00  0.00    -0.122 A  
HETATM   12  C   UNL     1      -6.292  13.276  69.417  1.00  0.00    -0.111 A  
HETATM   13  C   UNL     1      -6.757  12.390  68.461  1.00  0.00    -0.077 A  
HETATM   14  C   UNL     1      -7.898  12.706  67.717  1.00  0.00    -0.154 A  
ENDBRANCH   8   9
BRANCH   8  15
HETATM   15  C   UNL     1     -10.171  13.037  65.937  1.00  0.00    -0.298 A  
HETATM   16  C   UNL     1      -9.871  13.142  64.564  1.00  0.00     0.006 A  
HETATM   17  C   UNL     1     -10.063  12.065  63.679  1.00  0.00    -0.439 A  
HETATM   18  C   UNL     1     -10.557  10.844  64.137  1.00  0.00    -0.327 A  
HETATM   19  C   UNL     1     -10.701  11.788  66.347  1.00  0.00    -0.306 A  
HETATM   20  C   UNL     1     -10.885  10.712  65.475  1.00  0.00     0.000 A  
ENDBRANCH   8  15
BRANCH   8  21
HETATM   21  C   UNL     1     -11.144  14.314  67.998  1.00  0.00    -0.286 C  
BRANCH  21  22
HETATM   22  C   UNL     1     -11.268  13.824  69.487  1.00  0.00    -0.165 C  
HETATM   23  C   UNL     1     -11.986  12.464  69.580  1.00  0.00    -0.341 C  
BRANCH  22  24
HETATM   24  N   UNL     1     -11.766  14.804  70.480  1.00  0.00    -0.280 NA 
HETATM   25  C   UNL     1     -11.895  16.171  69.957  1.00  0.00    -0.118 C  
HETATM   26  C   UNL     1     -13.069  14.436  71.065  1.00  0.00    -0.353 C  
ENDBRANCH  22  24
ENDBRANCH  21  22
ENDBRANCH   8  21
ENDBRANCH   3   8
ENDBRANCH   2   3
TORSDOF 9
ENDMDL
MODEL      250
REMARK 921   NORMALIZED FREE ENERGY PREDICTED BY IDOCK:   -1.67 KCAL/MOL
REMARK 922        TOTAL FREE ENERGY PREDICTED BY IDOCK:   -4.24 KCAL/MOL
REMARK 923 INTER-LIGAND FREE ENERGY PREDICTED BY IDOCK:   -4.73 KCAL/MOL
REMARK 924 INTRA-LIGAND FREE ENERGY PREDICTED BY IDOCK:    0.49 KCAL/MOL
REMARK 927      BINDING AFFINITY PREDICTED BY RF-SCORE:    0.00 PKD
ROOT
HETATM    1  C   UNL     1     -12.467  13.377  67.571  1.00  0.00     0.164 C  
HETATM    2  C   UNL     1     -11.852  12.054  67.126  1.00  0.00    -0.251 C  
ENDROOT
BRANCH   2   3
HETATM    3  C   UNL     1     -10.584  12.259  66.271  1.00  0.00    -0.251 C  
BRANCH   3   4
HETATM    4  O   UNL     1     -10.671  11.332  65.144  1.00  0.00    -0.288 OA 
BRANCH   4   5
HETATM    5  C   UNL     1     -10.876  11.835  63.898  1.00  0.00    -0.404 C  
HETATM    6  C   UNL     1      -9.693  11.515  63.022  1.00  0.00    -0.382 C  
HETATM    7  O   UNL     1     -11.825  12.524  63.553  1.00  0.00    -0.470 OA 
ENDBRANCH   4   5
ENDBRANCH   3   4
BRANCH   3   8
HETATM    8  C   UNL     1      -9.203  12.021  67.066  1.00  0.00    -0.195 C  
BRANCH   8   9
HETATM    9  C   UNL     1      -8.441  13.391  67.124  1.00  0.00    -0.179 A  
HETATM   10  C   UNL     1      -8.928  14.593  66.579  1.00  0.00    -0.236 A  
HETATM   11  C   UNL     1      -8.249  15.809  66.758  1.00  0.00    -0.302 A  
HETATM   12  C   UNL     1      -7.024  15.848  67.413  1.00  0.00    -0.233 A  
HETATM   13  C   UNL     1      -6.485  14.673  67.909  1.00  0.00    -0.177 A  
HETATM   14  C   UNL     1      -7.199  13.477  67.790  1.00  0.00    -0.157 A  
ENDBRANCH   8   9
BRANCH   8  15
HETATM   15  C   UNL     1      -8.393  10.897  66.245  1.00  0.00    -0.164 A  
HETATM   16  C   UNL     1      -8.926   9.635  65.914  1.00  0.00    -0.203 A  
HETATM   17  C   UNL     1      -8.216   8.717  65.119  1.00  0.00    -0.152 A  
HETATM   18  C   UNL     1      -6.951   9.031  64.622  1.00  0.00    -0.085 A  
HETATM   19  C   UNL     1      -7.093  11.155  65.745  1.00  0.00     0.194 A  
HETATM   20  C   UNL     1      -6.387  10.251  64.946  1.00  0.00    -0.121 A  
ENDBRANCH   8  15
BRANCH   8  21
HETATM   21  C   UNL     1      -9.443  11.479  68.565  1.00  0.00    -0.175 C  
BRANCH  21  22
HETATM   22  C   UNL     1      -8.608  10.414  69.367  1.00  0.00    -0.130 C  
HETATM   23  C   UNL     1      -7.363   9.961  68.582  1.00  0.00    -0.074 C  
BRANCH  22  24
HETATM   24  N   UNL     1      -9.354   9.281  69.962  1.00  0.00    -0.192 NA 
HETATM   25  C   UNL     1     -10.108   9.633  71.173  1.00  0.00    -0.050 C  
HETATM   26  C   UNL     1     -10.302   8.647  69.027  1.00  0.00    -0.213 C  
ENDBRANCH  22  24
ENDBRANCH  21  22
ENDBRANCH   8  21
ENDBRANCH   3   8
ENDBRANCH   2   3
TORSDOF 9
ENDMDL
MODEL      251
REMARK 921   NORMALIZED FREE ENERGY PREDICTED BY IDOCK:   -0.88 KCAL/MOL
REMARK 922        TOTAL FREE ENERGY PREDICTED BY IDOCK:   -3.04 KCAL/MOL
REMARK 923 INTER-LIGAND FREE ENERGY PREDICTED BY IDOCK:   -6.29 KCAL/MOL
REMARK 924 INTRA-LIGAND FREE ENERGY PREDICTED BY IDOCK:    3.25 KCAL/MOL
REMARK 927      BINDING AFFINITY PREDICTED BY RF-SCORE:    0.00 PKD
ROOT
HETATM    1  C   UNL     1      -9.718  15.090  65.230  1.00  0.00    -0.144 C  
HETATM    2  C   UNL     1      -8.686  14.731  66.294  1.00  0.00     0.062 C  
ENDROOT
BRANCH   2   3
HETATM    3  C   UNL     1      -9.263  14.823  67.722  1.00  0.00    -0.194 C  
BRANCH   3   4
HETATM    4  O   UNL     1      -9.267  13.468  68.271  1.00  0.00    -0.197 OA 
BRANCH   4   5
HETATM    5  C   UNL     1      -8.086  12.911  68.645  1.00  0.00    -0.007 C  
HETATM    6  C   UNL     1      -7.161  13.983  69.162  1.00  0.00    -0.059 C  
HETATM    7  O   UNL     1      -7.772  11.738  68.504  1.00  0.00    -0.126 OA 
ENDBRANCH   4   5
ENDBRANCH   3   4
BRANCH   3   8
HETATM    8  C   UNL     1     -10.747  15.446  67.797  1.00  0.00    -0.289 C  
BRANCH   8   9
HETATM    9  C   UNL     1     -10.653  16.958  67.388  1.00  0.00    -0.294 A  
HETATM   10  C   UNL     1     -10.450  18.014  68.293  1.00  0.00    -0.355 A  
HETATM   11  C   UNL     1     -10.266  19.335  67.853  1.00  0.00    -0.511 A  
HETATM   12  C   UNL     1     -10.361  19.653  66.504  1.00  0.00    -0.601 A  
HETATM   13  C   UNL     1     -10.621  18.646  65.590  1.00  0.00    -0.171 A  
HETATM   14  C   UNL     1     -10.732  17.323  66.026  1.00  0.00    -0.110 A  
ENDBRANCH   8   9
BRANCH   8  15
HETATM   15  C   UNL     1     -11.247  15.246  69.315  1.00  0.00    -0.291 A  
HETATM   16  C   UNL     1     -10.396  15.326  70.436  1.00  0.00    -0.088 A  
HETATM   17  C   UNL     1     -10.889  15.233  71.749  1.00  0.00     0.148 A  
HETATM   18  C   UNL     1     -12.253  15.062  71.989  1.00  0.00    -0.436 A  
HETATM   19  C   UNL     1     -12.617  15.039  69.610  1.00  0.00    -0.099 A  
HETATM   20  C   UNL     1     -13.115  14.955  70.913  1.00  0.00    -0.430 A  
ENDBRANCH   8  15
BRANCH   8  21
HETATM   21  C   UNL     1     -11.782  14.690  66.819  1.00  0.00    -0.355 C  
BRANCH  21  22
HETATM   22  C   UNL     1     -12.365  13.235  66.947  1.00  0.00    -0.161 C  
HETATM   23  C   UNL     1     -12.012  12.599  68.304  1.00  0.00    -0.271 C  
BRANCH  22  24
HETATM   24  N   UNL     1     -12.139  12.317  65.807  1.00  0.00    -0.603 NA 
HETATM   25  C   UNL     1     -12.202  12.969  64.492  1.00  0.00    -0.416 C  
HETATM   26  C   UNL     1     -10.852  11.599  65.877  1.00  0.00    -0.287 C  
ENDBRANCH  22  24
ENDBRANCH  21  22
ENDBRANCH   8  21
ENDBRANCH   3   8
ENDBRANCH   2   3
TORSDOF 9
ENDMDL
MODEL      252
REMARK 921   NORMALIZED FREE ENERGY PREDICTED BY IDOCK:   -0.79 KCAL/MOL
REMARK 922        TOTAL FREE ENERGY PREDICTED BY IDOCK:   -2.89 KCAL/MOL
REMARK 923 INTER-LIGAND FREE ENERGY PREDICTED BY IDOCK:   -2.79 KCAL/MOL
REMARK 924 INTRA-LIGAND FREE ENERGY PREDICTED BY IDOCK:   -0.10 KCAL/MOL
REMARK 927      BINDING AFFINITY PREDICTED BY RF-SCORE:    0.00 PKD
ROOT
HETATM    1  C   UNL     1     -10.763  17.318  69.161  1.00  0.00    -0.118 C  
HETATM    2  C   UNL     1      -9.263  17.057  69.230  1.00  0.00     0.042 C  
ENDROOT
BRANCH   2   3
HETATM    3  C   UNL     1      -8.535  17.490  67.941  1.00  0.00    -0.230 C  
BRANCH   3   4
HETATM    4  O   UNL     1      -8.911  16.540  66.896  1.00  0.00    -0.186 OA 
BRANCH   4   5
HETATM    5  C   UNL     1     -10.133  16.658  66.314  1.00  0.00    -0.328 C  
HETATM    6  C   UNL     1     -10.576  15.318  65.787  1.00  0.00    -0.359 C  
HETATM    7  O   UNL     1     -10.750  17.702  66.153  1.00  0.00    -0.256 OA 
ENDBRANCH   4   5
ENDBRANCH   3   4
BRANCH   3   8
HETATM    8  C   UNL     1      -6.929  17.546  68.074  1.00  0.00    -0.195 C  
BRANCH   8   9
HETATM    9  C   UNL     1      -6.586  18.283  69.416  1.00  0.00    -0.213 A  
HETATM   10  C   UNL     1      -5.619  17.844  70.337  1.00  0.00    -0.216 A  
HETATM   11  C   UNL     1      -5.282  18.606  71.468  1.00  0.00    -0.242 A  
HETATM   12  C   UNL     1      -5.957  19.786  71.756  1.00  0.00    -0.190 A  
HETATM   13  C   UNL     1      -6.958  20.217  70.902  1.00  0.00     0.485 A  
HETATM   14  C   UNL     1      -7.241  19.491  69.741  1.00  0.00    -0.032 A  
ENDBRANCH   8   9
BRANCH   8  15
HETATM   15  C   UNL     1      -6.394  18.338  66.779  1.00  0.00    -0.207 A  
HETATM   16  C   UNL     1      -5.733  19.582  66.841  1.00  0.00    -0.173 A  
HETATM   17  C   UNL     1      -5.204  20.198  65.692  1.00  0.00    -0.183 A  
HETATM   18  C   UNL     1      -5.311  19.589  64.442  1.00  0.00    -0.239 A  
HETATM   19  C   UNL     1      -6.507  17.777  65.483  1.00  0.00    -0.039 A  
HETATM   20  C   UNL     1      -5.974  18.379  64.339  1.00  0.00     0.368 A  
ENDBRANCH   8  15
BRANCH   8  21
HETATM   21  C   UNL     1      -6.262  16.079  68.083  1.00  0.00    -0.127 C  
BRANCH  21  22
HETATM   22  C   UNL     1      -6.798  14.763  68.759  1.00  0.00    -0.099 C  
HETATM   23  C   UNL     1      -6.621  14.798  70.288  1.00  0.00    -0.109 C  
BRANCH  22  24
HETATM   24  N   UNL     1      -6.372  13.477  68.161  1.00  0.00    -0.108 NA 
HETATM   25  C   UNL     1      -7.398  12.836  67.327  1.00  0.00    -0.090 C  
HETATM   26  C   UNL     1      -5.149  13.587  67.342  1.00  0.00     0.256 C  
ENDBRANCH  22  24
ENDBRANCH  21  22
ENDBRANCH   8  21
ENDBRANCH   3   8
ENDBRANCH   2   3
TORSDOF 9
ENDMDL
MODEL      253
REMARK 921   NORMALIZED FREE ENERGY PREDICTED BY IDOCK:   -0.64 KCAL/MOL
REMARK 922        TOTAL FREE ENERGY PREDICTED BY IDOCK:   -2.67 KCAL/MOL
REMARK 923 INTER-LIGAND FREE ENERGY PREDICTED BY IDOCK:   -3.45 KCAL/MOL
REMARK 924 INTRA-LIGAND FREE ENERGY PREDICTED BY IDOCK:    0.78 KCAL/MOL
REMARK 927      BINDING AFFINITY PREDICTED BY RF-SCORE:    0.00 PKD
ROOT
HETATM    1  C   UNL     1      -6.491  14.109  70.876  1.00  0.00     0.167 C  
HETATM    2  C   UNL     1      -6.373  13.478  69.494  1.00  0.00    -0.108 C  
ENDROOT
BRANCH   2   3
HETATM    3  C   UNL     1      -7.669  12.758  69.069  1.00  0.00     0.203 C  
BRANCH   3   4
HETATM    4  O   UNL     1      -7.278  11.632  68.222  1.00  0.00    -0.075 OA 
BRANCH   4   5
HETATM    5  C   UNL     1      -7.000  10.439  68.809  1.00  0.00    -0.068 C  
HETATM    6  C   UNL     1      -8.267   9.834  69.354  1.00  0.00    -0.135 C  
HETATM    7  O   UNL     1      -5.885   9.961  68.961  1.00  0.00    -0.035 OA 
ENDBRANCH   4   5
ENDBRANCH   3   4
BRANCH   3   8
HETATM    8  C   UNL     1      -8.719  13.693  68.281  1.00  0.00    -0.171 C  
BRANCH   8   9
HETATM    9  C   UNL     1      -8.112  15.138  68.209  1.00  0.00    -0.138 A  
HETATM   10  C   UNL     1      -7.565  15.825  69.308  1.00  0.00    -0.224 A  
HETATM   11  C   UNL     1      -6.939  17.073  69.157  1.00  0.00    -0.228 A  
HETATM   12  C   UNL     1      -6.913  17.709  67.922  1.00  0.00    -0.190 A  
HETATM   13  C   UNL     1      -7.496  17.088  66.830  1.00  0.00    -0.248 A  
HETATM   14  C   UNL     1      -8.055  15.815  66.972  1.00  0.00    -0.272 A  
ENDBRANCH   8   9
BRANCH   8  15
HETATM   15  C   UNL     1     -10.093  13.641  69.120  1.00  0.00     0.153 A  
HETATM   16  C   UNL     1     -10.669  14.764  69.748  1.00  0.00    -0.176 A  
HETATM   17  C   UNL     1     -11.916  14.691  70.396  1.00  0.00    -0.375 A  
HETATM   18  C   UNL     1     -12.632  13.495  70.435  1.00  0.00    -0.267 A  
HETATM   19  C   UNL     1     -10.842  12.443  69.217  1.00  0.00    -0.073 A  
HETATM   20  C   UNL     1     -12.085  12.366  69.851  1.00  0.00    -0.317 A  
ENDBRANCH   8  15
BRANCH   8  21
HETATM   21  C   UNL     1      -9.016  13.162  66.789  1.00  0.00    -0.183 C  
BRANCH  21  22
HETATM   22  C   UNL     1     -10.178  12.223  66.297  1.00  0.00    -0.229 C  
HETATM   23  C   UNL     1      -9.633  10.980  65.569  1.00  0.00    -0.263 C  
BRANCH  22  24
HETATM   24  N   UNL     1     -11.302  12.863  65.576  1.00  0.00    -0.299 NA 
HETATM   25  C   UNL     1     -12.596  12.748  66.263  1.00  0.00     0.431 C  
HETATM   26  C   UNL     1     -11.082  14.295  65.298  1.00  0.00    -0.335 C  
ENDBRANCH  22  24
ENDBRANCH  21  22
ENDBRANCH   8  21
ENDBRANCH   3   8
ENDBRANCH   2   3
TORSDOF 9
ENDMDL
MODEL      254
REMARK 921   NORMALIZED FREE ENERGY PREDICTED BY IDOCK:   -0.27 KCAL/MOL
REMARK 922        TOTAL FREE ENERGY PREDICTED BY IDOCK:   -2.10 KCAL/MOL
REMARK 923 INTER-LIGAND FREE ENERGY PREDICTED BY IDOCK:   -3.26 KCAL/MOL
REMARK 924 INTRA-LIGAND FREE ENERGY PREDICTED BY IDOCK:    1.16 KCAL/MOL
REMARK 927      BINDING AFFINITY PREDICTED BY RF-SCORE:    0.00 PKD
ROOT
HETATM    1  C   UNL     1      -6.545  13.948  70.809  1.00  0.00     0.374 C  
HETATM    2  C   UNL     1      -6.171  12.652  70.098  1.00  0.00    -0.026 C  
ENDROOT
BRANCH   2   3
HETATM    3  C   UNL     1      -7.406  11.915  69.540  1.00  0.00     0.293 C  
BRANCH   3   4
HETATM    4  O   UNL     1      -7.082  10.489  69.521  1.00  0.00    -0.094 OA 
BRANCH   4   5
HETATM    5  C   UNL     1      -7.907   9.623  70.166  1.00  0.00    -0.174 C  
HETATM    6  C   UNL     1      -9.230   9.553  69.449  1.00  0.00    -0.181 C  
HETATM    7  O   UNL     1      -7.660   9.053  71.219  1.00  0.00    -0.178 OA 
ENDBRANCH   4   5
ENDBRANCH   3   4
BRANCH   3   8
HETATM    8  C   UNL     1      -7.854  12.392  68.068  1.00  0.00    -0.141 C  
BRANCH   8   9
HETATM    9  C   UNL     1      -7.093  11.502  67.024  1.00  0.00    -0.147 A  
HETATM   10  C   UNL     1      -5.726  11.182  67.101  1.00  0.00    -0.067 A  
HETATM   11  C   UNL     1      -5.127  10.291  66.195  1.00  0.00    -0.049 A  
HETATM   12  C   UNL     1      -5.855   9.759  65.137  1.00  0.00    -0.077 A  
HETATM   13  C   UNL     1      -7.190  10.101  64.996  1.00  0.00    -0.139 A  
HETATM   14  C   UNL     1      -7.798  10.932  65.941  1.00  0.00    -0.090 A  
ENDBRANCH   8   9
BRANCH   8  15
HETATM   15  C   UNL     1      -7.459  13.950  67.956  1.00  0.00    -0.135 A  
HETATM   16  C   UNL     1      -6.164  14.408  67.640  1.00  0.00    -0.098 A  
HETATM   17  C   UNL     1      -5.884  15.775  67.466  1.00  0.00    -0.125 A  
HETATM   18  C   UNL     1      -6.890  16.732  67.596  1.00  0.00    -0.158 A  
HETATM   19  C   UNL     1      -8.438  14.962  68.111  1.00  0.00    -0.146 A  
HETATM   20  C   UNL     1      -8.169  16.321  67.930  1.00  0.00    -0.156 A  
ENDBRANCH   8  15
BRANCH   8  21
HETATM   21  C   UNL     1      -9.442  12.253  67.834  1.00  0.00    -0.200 C  
BRANCH  21  22
HETATM   22  C   UNL     1     -10.555  13.354  67.987  1.00  0.00    -0.243 C  
HETATM   23  C   UNL     1     -11.292  13.233  69.334  1.00  0.00    -0.280 C  
BRANCH  22  24
HETATM   24  N   UNL     1     -11.476  13.545  66.843  1.00  0.00    -0.329 NA 
HETATM   25  C   UNL     1     -11.282  14.811  66.124  1.00  0.00    -0.337 C  
HETATM   26  C   UNL     1     -11.406  12.461  65.846  1.00  0.00    -0.356 C  
ENDBRANCH  22  24
ENDBRANCH  21  22
ENDBRANCH   8  21
ENDBRANCH   3   8
ENDBRANCH   2   3
TORSDOF 9
ENDMDL
MODEL      255
REMARK 921   NORMALIZED FREE ENERGY PREDICTED BY IDOCK:    1.27 KCAL/MOL
REMARK 922        TOTAL FREE ENERGY PREDICTED BY IDOCK:    0.25 KCAL/MOL
REMARK 923 INTER-LIGAND FREE ENERGY PREDICTED BY IDOCK:   -2.45 KCAL/MOL
REMARK 924 INTRA-LIGAND FREE ENERGY PREDICTED BY IDOCK:    2.70 KCAL/MOL
REMARK 927      BINDING AFFINITY PREDICTED BY RF-SCORE:    0.00 PKD
ROOT
HETATM    1  C   UNL     1      -5.182  10.735  69.053  1.00  0.00    -0.041 C  
HETATM    2  C   UNL     1      -5.971  12.039  69.024  1.00  0.00    -0.068 C  
ENDROOT
BRANCH   2   3
HETATM    3  C   UNL     1      -6.912  12.125  67.805  1.00  0.00    -0.109 C  
BRANCH   3   4
HETATM    4  O   UNL     1      -7.849  13.217  68.061  1.00  0.00    -0.122 OA 
BRANCH   4   5
HETATM    5  C   UNL     1      -7.381  14.492  68.066  1.00  0.00    -0.138 C  
HETATM    6  C   UNL     1      -7.673  15.144  66.739  1.00  0.00     0.098 C  
HETATM    7  O   UNL     1      -6.738  15.014  68.966  1.00  0.00    -0.104 OA 
ENDBRANCH   4   5
ENDBRANCH   3   4
BRANCH   3   8
HETATM    8  C   UNL     1      -7.726  10.768  67.500  1.00  0.00    -0.105 C  
BRANCH   8   9
HETATM    9  C   UNL     1      -9.069  11.164  66.791  1.00  0.00    -0.174 A  
HETATM   10  C   UNL     1     -10.348  10.909  67.314  1.00  0.00    -0.255 A  
HETATM   11  C   UNL     1     -11.509  11.385  66.683  1.00  0.00    -0.124 A  
HETATM   12  C   UNL     1     -11.432  12.058  65.470  1.00  0.00    -0.368 A  
HETATM   13  C   UNL     1     -10.191  12.274  64.895  1.00  0.00    -0.307 A  
HETATM   14  C   UNL     1      -9.035  11.860  65.563  1.00  0.00     0.163 A  
ENDBRANCH   8   9
BRANCH   8  15
HETATM   15  C   UNL     1      -7.966  10.053  68.923  1.00  0.00    -0.101 A  
HETATM   16  C   UNL     1      -7.004   9.249  69.567  1.00  0.00    -0.052 A  
HETATM   17  C   UNL     1      -7.222   8.716  70.850  1.00  0.00    -0.073 A  
HETATM   18  C   UNL     1      -8.409   8.972  71.537  1.00  0.00    -0.070 A  
HETATM   19  C   UNL     1      -9.167  10.256  69.647  1.00  0.00    -0.155 A  
HETATM   20  C   UNL     1      -9.386   9.737  70.926  1.00  0.00     0.211 A  
ENDBRANCH   8  15
BRANCH   8  21
HETATM   21  C   UNL     1      -6.901   9.755  66.556  1.00  0.00    -0.084 C  
BRANCH  21  22
HETATM   22  C   UNL     1      -7.220   9.312  65.081  1.00  0.00    -0.094 C  
HETATM   23  C   UNL     1      -7.170   7.781  64.925  1.00  0.00    -0.066 C  
BRANCH  22  24
HETATM   24  N   UNL     1      -6.507  10.023  63.995  1.00  0.00    -0.128 NA 
HETATM   25  C   UNL     1      -5.134   9.550  63.772  1.00  0.00    -0.060 C  
HETATM   26  C   UNL     1      -7.205   9.963  62.697  1.00  0.00    -0.120 C  
ENDBRANCH  22  24
ENDBRANCH  21  22
ENDBRANCH   8  21
ENDBRANCH   3   8
ENDBRANCH   2   3
TORSDOF 9
ENDMDL
MODEL      256
REMARK 921   NORMALIZED FREE ENERGY PREDICTED BY IDOCK:    3.13 KCAL/MOL
REMARK 922        TOTAL FREE ENERGY PREDICTED BY IDOCK:    3.09 KCAL/MOL
REMARK 923 INTER-LIGAND FREE ENERGY PREDICTED BY IDOCK:   -0.65 KCAL/MOL
REMARK 924 INTRA-LIGAND FREE ENERGY PREDICTED BY IDOCK:    3.75 KCAL/MOL
REMARK 927      BINDING AFFINITY PREDICTED BY RF-SCORE:    0.00 PKD
ROOT
HETATM    1  C   UNL     1      -6.876  14.818  70.661  1.00  0.00     0.340 C  
HETATM    2  C   UNL     1      -6.271  13.586  69.996  1.00  0.00    -0.098 C  
ENDROOT
BRANCH   2   3
HETATM    3  C   UNL     1      -7.343  12.687  69.347  1.00  0.00     0.353 C  
BRANCH   3   4
HETATM    4  O   UNL     1      -6.648  11.539  68.769  1.00  0.00    -0.059 OA 
BRANCH   4   5
HETATM    5  C   UNL     1      -6.131  10.600  69.604  1.00  0.00    -0.061 C  
HETATM    6  C   UNL     1      -7.035   9.395  69.636  1.00  0.00    -0.058 C  
HETATM    7  O   UNL     1      -5.135  10.735  70.300  1.00  0.00    -0.045 OA 
ENDBRANCH   4   5
ENDBRANCH   3   4
BRANCH   3   8
HETATM    8  C   UNL     1      -8.223  13.420  68.212  1.00  0.00    -0.160 C  
BRANCH   8   9
HETATM    9  C   UNL     1      -8.428  12.402  67.035  1.00  0.00    -0.170 A  
HETATM   10  C   UNL     1      -8.174  11.023  67.125  1.00  0.00    -0.133 A  
HETATM   11  C   UNL     1      -8.479  10.148  66.070  1.00  0.00    -0.136 A  
HETATM   12  C   UNL     1      -8.971  10.634  64.865  1.00  0.00    -0.218 A  
HETATM   13  C   UNL     1      -9.175  11.996  64.720  1.00  0.00     0.343 A  
HETATM   14  C   UNL     1      -8.936  12.854  65.797  1.00  0.00     0.508 A  
ENDBRANCH   8   9
BRANCH   8  15
HETATM   15  C   UNL     1      -7.392  14.724  67.764  1.00  0.00    -0.186 A  
HETATM   16  C   UNL     1      -6.004  14.721  67.517  1.00  0.00     0.051 A  
HETATM   17  C   UNL     1      -5.333  15.862  67.042  1.00  0.00     0.337 A  
HETATM   18  C   UNL     1      -6.027  17.046  66.793  1.00  0.00    -0.227 A  
HETATM   19  C   UNL     1      -8.045  15.958  67.528  1.00  0.00    -0.171 A  
HETATM   20  C   UNL     1      -7.386  17.094  67.047  1.00  0.00    -0.216 A  
ENDBRANCH   8  15
BRANCH   8  21
HETATM   21  C   UNL     1      -9.660  13.898  68.762  1.00  0.00    -0.073 C  
BRANCH  21  22
HETATM   22  C   UNL     1     -10.426  15.239  68.464  1.00  0.00    -0.235 C  
HETATM   23  C   UNL     1      -9.962  16.376  69.393  1.00  0.00    -0.214 C  
BRANCH  22  24
HETATM   24  N   UNL     1     -11.900  15.161  68.345  1.00  0.00    -0.308 NA 
HETATM   25  C   UNL     1     -12.373  14.817  66.996  1.00  0.00     0.207 C  
HETATM   26  C   UNL     1     -12.515  14.201  69.281  1.00  0.00    -0.023 C  
ENDBRANCH  22  24
ENDBRANCH  21  22
ENDBRANCH   8  21
ENDBRANCH   3   8
ENDBRANCH   2   3
TORSDOF 9
ENDMDL
MODEL      257
REMARK 921   NORMALIZED FREE ENERGY PREDICTED BY IDOCK:   16.88 KCAL/MOL
REMARK 922        TOTAL FREE ENERGY PREDICTED BY IDOCK:   24.08 KCAL/MOL
REMARK 923 INTER-LIGAND FREE ENERGY PREDICTED BY IDOCK:   19.77 KCAL/MOL
REMARK 924 INTRA-LIGAND FREE ENERGY PREDICTED BY IDOCK:    4.31 KCAL/MOL
REMARK 927      BINDING AFFINITY PREDICTED BY RF-SCORE:    0.00 PKD
ROOT
HETATM    1  C   UNL     1      -7.609  14.782  71.566  1.00  0.00     3.057 C  
HETATM    2  C   UNL     1      -6.687  13.594  71.820  1.00  0.00     2.573 C  
ENDROOT
BRANCH   2   3
HETATM    3  C   UNL     1      -7.359  12.249  71.475  1.00  0.00     7.654 C  
BRANCH   3   4
HETATM    4  O   UNL     1      -6.452  11.190  71.914  1.00  0.00     1.408 OA 
BRANCH   4   5
HETATM    5  C   UNL     1      -5.935  11.252  73.169  1.00  0.00     2.590 C  
HETATM    6  C   UNL     1      -6.512  10.143  74.010  1.00  0.00     1.610 C  
HETATM    7  O   UNL     1      -5.188  12.123  73.592  1.00  0.00    -0.251 OA 
ENDBRANCH   4   5
ENDBRANCH   3   4
BRANCH   3   8
HETATM    8  C   UNL     1      -7.699  12.061  69.910  1.00  0.00     1.502 C  
BRANCH   8   9
HETATM    9  C   UNL     1      -6.901  10.812  69.394  1.00  0.00    -0.109 A  
HETATM   10  C   UNL     1      -6.410   9.787  70.222  1.00  0.00    -0.085 A  
HETATM   11  C   UNL     1      -5.798   8.641  69.688  1.00  0.00    -0.029 A  
HETATM   12  C   UNL     1      -5.585   8.523  68.320  1.00  0.00    -0.035 A  
HETATM   13  C   UNL     1      -6.001   9.543  67.481  1.00  0.00    -0.052 A  
HETATM   14  C   UNL     1      -6.672  10.648  68.011  1.00  0.00    -0.064 A  
ENDBRANCH   8   9
BRANCH   8  15
HETATM   15  C   UNL     1      -7.251  13.425  69.181  1.00  0.00     0.041 A  
HETATM   16  C   UNL     1      -6.021  13.588  68.513  1.00  0.00    -0.090 A  
HETATM   17  C   UNL     1      -5.707  14.767  67.814  1.00  0.00    -0.085 A  
HETATM   18  C   UNL     1      -6.615  15.824  67.754  1.00  0.00    -0.181 A  
HETATM   19  C   UNL     1      -8.125  14.539  69.119  1.00  0.00    -0.032 A  
HETATM   20  C   UNL     1      -7.823  15.710  68.418  1.00  0.00    -0.127 A  
ENDBRANCH   8  15
BRANCH   8  21
HETATM   21  C   UNL     1      -9.273  11.838  69.646  1.00  0.00     1.427 C  
BRANCH  21  22
HETATM   22  C   UNL     1     -10.246  12.688  68.749  1.00  0.00    -0.079 C  
HETATM   23  C   UNL     1     -11.180  13.568  69.601  1.00  0.00    -0.128 C  
BRANCH  22  24
HETATM   24  N   UNL     1     -10.959  11.975  67.665  1.00  0.00    -0.226 NA 
HETATM   25  C   UNL     1     -10.637  12.462  66.317  1.00  0.00    -0.249 C  
HETATM   26  C   UNL     1     -10.728  10.518  67.670  1.00  0.00    -0.275 C  
ENDBRANCH  22  24
ENDBRANCH  21  22
ENDBRANCH   8  21
ENDBRANCH   3   8
ENDBRANCH   2   3
TORSDOF 9
ENDMDL
MODEL      258
REMARK 921   NORMALIZED FREE ENERGY PREDICTED BY IDOCK:   35.64 KCAL/MOL
REMARK 922        TOTAL FREE ENERGY PREDICTED BY IDOCK:   52.70 KCAL/MOL
REMARK 923 INTER-LIGAND FREE ENERGY PREDICTED BY IDOCK:   47.39 KCAL/MOL
REMARK 924 INTRA-LIGAND FREE ENERGY PREDICTED BY IDOCK:    5.31 KCAL/MOL
REMARK 927      BINDING AFFINITY PREDICTED BY RF-SCORE:    0.00 PKD
ROOT
HETATM    1  C   UNL     1      -9.597  15.121  63.330  1.00  0.00    11.356 C  
HETATM    2  C   UNL     1      -8.222  14.858  63.934  1.00  0.00    15.094 C  
ENDROOT
BRANCH   2   3
HETATM    3  C   UNL     1      -8.128  15.334  65.399  1.00  0.00     4.006 C  
BRANCH   3   4
HETATM    4  O   UNL     1      -7.841  14.156  66.216  1.00  0.00     0.988 OA 
BRANCH   4   5
HETATM    5  C   UNL     1      -8.019  12.924  65.671  1.00  0.00     2.813 C  
HETATM    6  C   UNL     1      -6.872  12.028  66.058  1.00  0.00     1.258 C  
HETATM    7  O   UNL     1      -8.918  12.604  64.906  1.00  0.00     0.796 OA 
ENDBRANCH   4   5
ENDBRANCH   3   4
BRANCH   3   8
HETATM    8  C   UNL     1      -9.456  16.065  65.944  1.00  0.00    -0.351 C  
BRANCH   8   9
HETATM    9  C   UNL     1      -9.132  17.593  66.099  1.00  0.00    -0.146 A  
HETATM   10  C   UNL     1      -8.196  18.117  67.008  1.00  0.00    -0.246 A  
HETATM   11  C   UNL     1      -7.872  19.483  67.024  1.00  0.00    -0.286 A  
HETATM   12  C   UNL     1      -8.531  20.378  66.190  1.00  0.00    -0.041 A  
HETATM   13  C   UNL     1      -9.503  19.905  65.324  1.00  0.00     0.857 A  
HETATM   14  C   UNL     1      -9.771  18.534  65.263  1.00  0.00     1.505 A  
ENDBRANCH   8   9
BRANCH   8  15
HETATM   15  C   UNL     1      -9.817  15.364  67.348  1.00  0.00    -0.216 A  
HETATM   16  C   UNL     1     -10.304  14.047  67.462  1.00  0.00    -0.245 A  
HETATM   17  C   UNL     1     -10.523  13.443  68.714  1.00  0.00    -0.203 A  
HETATM   18  C   UNL     1     -10.256  14.133  69.896  1.00  0.00     0.619 A  
HETATM   19  C   UNL     1      -9.594  16.034  68.576  1.00  0.00    -0.215 A  
HETATM   20  C   UNL     1      -9.799  15.437  69.823  1.00  0.00    -0.236 A  
ENDBRANCH   8  15
BRANCH   8  21
HETATM   21  C   UNL     1     -10.711  15.883  64.949  1.00  0.00    -0.365 C  
BRANCH  21  22
HETATM   22  C   UNL     1     -12.030  15.057  65.178  1.00  0.00    -0.135 C  
HETATM   23  C   UNL     1     -11.756  13.542  65.197  1.00  0.00    -0.341 C  
BRANCH  22  24
HETATM   24  N   UNL     1     -13.203  15.418  64.348  1.00  0.00     0.341 NA 
HETATM   25  C   UNL     1     -14.379  15.834  65.125  1.00  0.00     4.869 C  
HETATM   26  C   UNL     1     -12.924  16.487  63.371  1.00  0.00     5.918 C  
ENDBRANCH  22  24
ENDBRANCH  21  22
ENDBRANCH   8  21
ENDBRANCH   3   8
ENDBRANCH   2   3
TORSDOF 9
ENDMDL
