MODEL        1
REMARK 921   NORMALIZED FREE ENERGY PREDICTED BY IDOCK:   -6.18 KCAL/MOL
REMARK 922        TOTAL FREE ENERGY PREDICTED BY IDOCK:  -11.52 KCAL/MOL
REMARK 923 INTER-LIGAND FREE ENERGY PREDICTED BY IDOCK:   -9.79 KCAL/MOL
REMARK 924 INTRA-LIGAND FREE ENERGY PREDICTED BY IDOCK:   -1.73 KCAL/MOL
REMARK 927      BINDING AFFINITY PREDICTED BY RF-SCORE:    0.00 PKD
ROOT
HETATM    1  C   UNL     1      -9.219   9.475  68.223  1.00  0.00    -0.132 C  
HETATM    2  C   UNL     1     -10.158   9.746  69.381  1.00  0.00    -0.209 C  
ENDROOT
BRANCH   2   3
HETATM    3  O   UNL     1     -10.332  11.158  69.407  1.00  0.00    -0.173 OA 
BRANCH   3   4
HETATM    4  C   UNL     1     -11.402  11.707  68.787  1.00  0.00    -0.264 C  
HETATM    5  O   UNL     1     -12.456  11.143  68.541  1.00  0.00    -0.452 OA 
BRANCH   4   6
HETATM    6  C   UNL     1     -11.159  13.172  68.646  1.00  0.00    -0.304 C  
HETATM    7  C   UNL     1     -11.708  14.080  69.492  1.00  0.00    -0.313 C  
HETATM    8  C   UNL     1     -10.213  15.156  67.304  1.00  0.00    -0.243 C  
HETATM    9  N   UNL     1     -11.493  15.430  69.281  1.00  0.00    -0.309 NA 
HETATM   10  C   UNL     1     -10.837  15.969  68.191  1.00  0.00    -0.322 C  
HETATM   11  C   UNL     1     -10.257  13.623  67.485  1.00  0.00    -0.241 C  
HETATM   12  C   UNL     1     -10.897  17.474  68.092  1.00  0.00    -0.246 C  
BRANCH   7  13
HETATM   13  C   UNL     1     -12.514  13.743  70.745  1.00  0.00    -0.370 C  
BRANCH  13  14
HETATM   14  O   UNL     1     -13.414  14.793  71.108  1.00  0.00    -0.377 OA 
BRANCH  14  15
HETATM   15  C   UNL     1     -13.644  14.852  72.520  1.00  0.00    -0.458 C  
BRANCH  15  16
HETATM   16  C   UNL     1     -12.405  15.415  73.220  1.00  0.00    -0.480 C  
HETATM   17  N   UNL     1     -12.762  16.153  74.434  1.00  0.00    -0.952 NA 
HETATM   18  H2  UNL     1     -13.320  15.580  75.067  1.00  0.00     0.000 HD 
HETATM   19  H1  UNL     1     -11.936  16.528  74.900  1.00  0.00     0.000 HD 
ENDBRANCH  15  16
ENDBRANCH  14  15
ENDBRANCH  13  14
ENDBRANCH   7  13
BRANCH   8  20
HETATM   20  C   UNL     1      -9.535  15.750  66.120  1.00  0.00    -0.340 C  
HETATM   21  O   UNL     1     -10.115  16.209  65.145  1.00  0.00    -0.503 OA 
BRANCH  20  22
HETATM   22  O   UNL     1      -8.185  15.731  66.262  1.00  0.00    -0.243 OA 
HETATM   23  C   UNL     1      -7.613  17.036  66.401  1.00  0.00    -0.315 C  
ENDBRANCH  20  22
ENDBRANCH   8  20
BRANCH  11  24
HETATM   24  C   UNL     1     -10.546  12.872  66.171  1.00  0.00    -0.287 A  
HETATM   25  C   UNL     1      -9.568  11.958  65.713  1.00  0.00    -0.241 A  
HETATM   26  C   UNL     1      -9.730  11.261  64.513  1.00  0.00    -0.293 A  
HETATM   27  C   UNL     1     -10.874  11.459  63.750  1.00  0.00    -0.468 A  
HETATM   28  C   UNL     1     -11.862  12.337  64.195  1.00  0.00    -0.502 A  
HETATM   29  C   UNL     1     -11.706  13.034  65.399  1.00  0.00    -0.364 A  
HETATM   30 CL   UNL     1     -12.998  14.075  65.877  1.00  0.00    -0.391 Cl 
ENDBRANCH  11  24
ENDBRANCH   4   6
ENDBRANCH   3   4
ENDBRANCH   2   3
TORSDOF 10
ENDMDL
MODEL        2
REMARK 921   NORMALIZED FREE ENERGY PREDICTED BY IDOCK:   -6.08 KCAL/MOL
REMARK 922        TOTAL FREE ENERGY PREDICTED BY IDOCK:  -11.37 KCAL/MOL
REMARK 923 INTER-LIGAND FREE ENERGY PREDICTED BY IDOCK:  -10.18 KCAL/MOL
REMARK 924 INTRA-LIGAND FREE ENERGY PREDICTED BY IDOCK:   -1.19 KCAL/MOL
REMARK 927      BINDING AFFINITY PREDICTED BY RF-SCORE:    0.00 PKD
ROOT
HETATM    1  C   UNL     1     -13.588  15.843  72.995  1.00  0.00    -0.616 C  
HETATM    2  C   UNL     1     -14.109  15.225  71.713  1.00  0.00    -0.555 C  
ENDROOT
BRANCH   2   3
HETATM    3  O   UNL     1     -13.205  15.640  70.696  1.00  0.00    -0.487 OA 
BRANCH   3   4
HETATM    4  C   UNL     1     -11.962  15.106  70.653  1.00  0.00    -0.324 C  
HETATM    5  O   UNL     1     -11.104  15.218  71.512  1.00  0.00    -0.357 OA 
BRANCH   4   6
HETATM    6  C   UNL     1     -11.891  14.185  69.482  1.00  0.00    -0.373 C  
HETATM    7  C   UNL     1     -12.002  12.838  69.616  1.00  0.00    -0.288 C  
HETATM    8  C   UNL     1     -11.429  13.791  66.979  1.00  0.00    -0.368 C  
HETATM    9  N   UNL     1     -11.873  12.027  68.502  1.00  0.00    -0.338 NA 
HETATM   10  C   UNL     1     -11.524  12.463  67.238  1.00  0.00    -0.354 C  
HETATM   11  C   UNL     1     -11.676  14.824  68.100  1.00  0.00    -0.353 C  
HETATM   12  C   UNL     1     -11.264  11.366  66.235  1.00  0.00    -0.228 C  
BRANCH   7  13
HETATM   13  C   UNL     1     -12.337  12.105  70.912  1.00  0.00    -0.273 C  
BRANCH  13  14
HETATM   14  O   UNL     1     -12.891  10.809  70.673  1.00  0.00    -0.340 OA 
BRANCH  14  15
HETATM   15  C   UNL     1     -12.220   9.783  71.413  1.00  0.00    -0.397 C  
BRANCH  15  16
HETATM   16  C   UNL     1     -13.230   8.717  71.846  1.00  0.00    -0.381 C  
HETATM   17  N   UNL     1     -13.893   9.083  73.099  1.00  0.00    -1.177 NA 
HETATM   18  H2  UNL     1     -14.327  10.005  73.037  1.00  0.00     0.000 HD 
HETATM   19  H1  UNL     1     -14.566   8.374  73.388  1.00  0.00     0.000 HD 
ENDBRANCH  15  16
ENDBRANCH  14  15
ENDBRANCH  13  14
ENDBRANCH   7  13
BRANCH   8  20
HETATM   20  C   UNL     1     -11.025  14.244  65.620  1.00  0.00    -0.309 C  
HETATM   21  O   UNL     1      -9.868  14.329  65.233  1.00  0.00    -0.304 OA 
BRANCH  20  22
HETATM   22  O   UNL     1     -12.107  14.539  64.856  1.00  0.00    -0.402 OA 
HETATM   23  C   UNL     1     -12.240  13.690  63.712  1.00  0.00    -0.356 C  
ENDBRANCH  20  22
ENDBRANCH   8  20
BRANCH  11  24
HETATM   24  C   UNL     1     -10.629  15.954  68.115  1.00  0.00    -0.280 A  
HETATM   25  C   UNL     1     -11.089  17.274  67.893  1.00  0.00    -0.053 A  
HETATM   26  C   UNL     1     -10.205  18.354  67.853  1.00  0.00    -0.404 A  
HETATM   27  C   UNL     1      -8.846  18.140  68.041  1.00  0.00    -0.286 A  
HETATM   28  C   UNL     1      -8.373  16.851  68.287  1.00  0.00    -0.224 A  
HETATM   29  C   UNL     1      -9.255  15.765  68.331  1.00  0.00    -0.192 A  
HETATM   30 CL   UNL     1      -8.577  14.214  68.670  1.00  0.00    -0.157 Cl 
ENDBRANCH  11  24
ENDBRANCH   4   6
ENDBRANCH   3   4
ENDBRANCH   2   3
TORSDOF 10
ENDMDL
MODEL        3
REMARK 921   NORMALIZED FREE ENERGY PREDICTED BY IDOCK:   -5.93 KCAL/MOL
REMARK 922        TOTAL FREE ENERGY PREDICTED BY IDOCK:  -11.12 KCAL/MOL
REMARK 923 INTER-LIGAND FREE ENERGY PREDICTED BY IDOCK:   -9.12 KCAL/MOL
REMARK 924 INTRA-LIGAND FREE ENERGY PREDICTED BY IDOCK:   -2.00 KCAL/MOL
REMARK 927      BINDING AFFINITY PREDICTED BY RF-SCORE:    0.00 PKD
ROOT
HETATM    1  C   UNL     1     -12.853  11.130  71.387  1.00  0.00    -0.544 C  
HETATM    2  C   UNL     1     -11.938   9.978  71.023  1.00  0.00    -0.376 C  
ENDROOT
BRANCH   2   3
HETATM    3  O   UNL     1     -11.752  10.071  69.615  1.00  0.00    -0.158 OA 
BRANCH   3   4
HETATM    4  C   UNL     1     -10.558  10.482  69.129  1.00  0.00    -0.229 C  
HETATM    5  O   UNL     1      -9.495  10.465  69.728  1.00  0.00    -0.154 OA 
BRANCH   4   6
HETATM    6  C   UNL     1     -10.718  10.760  67.673  1.00  0.00    -0.305 C  
HETATM    7  C   UNL     1     -10.265   9.905  66.721  1.00  0.00    -0.236 C  
HETATM    8  C   UNL     1     -11.372  12.364  65.767  1.00  0.00    -0.393 C  
HETATM    9  N   UNL     1     -10.392  10.240  65.384  1.00  0.00    -0.232 NA 
HETATM   10  C   UNL     1     -10.855  11.451  64.908  1.00  0.00    -0.257 C  
HETATM   11  C   UNL     1     -11.418  12.073  67.283  1.00  0.00    -0.403 C  
HETATM   12  C   UNL     1     -10.721  11.645  63.417  1.00  0.00    -0.460 C  
BRANCH   7  13
HETATM   13  C   UNL     1      -9.669   8.525  66.986  1.00  0.00    -0.204 C  
BRANCH  13  14
HETATM   14  O   UNL     1     -10.677   7.532  67.196  1.00  0.00    -0.326 OA 
BRANCH  14  15
HETATM   15  C   UNL     1     -10.203   6.428  67.974  1.00  0.00    -0.164 C  
BRANCH  15  16
HETATM   16  C   UNL     1     -10.388   6.731  69.463  1.00  0.00    -0.202 C  
HETATM   17  N   UNL     1     -11.805   6.767  69.832  1.00  0.00    -0.657 NA 
HETATM   18  H2  UNL     1     -12.282   5.905  69.564  1.00  0.00     0.000 HD 
HETATM   19  H1  UNL     1     -11.929   6.969  70.824  1.00  0.00     0.000 HD 
ENDBRANCH  15  16
ENDBRANCH  14  15
ENDBRANCH  13  14
ENDBRANCH   7  13
BRANCH   8  20
HETATM   20  C   UNL     1     -11.841  13.677  65.243  1.00  0.00    -0.349 C  
HETATM   21  O   UNL     1     -13.006  14.051  65.251  1.00  0.00    -0.743 OA 
BRANCH  20  22
HETATM   22  O   UNL     1     -10.807  14.414  64.764  1.00  0.00    -0.395 OA 
HETATM   23  C   UNL     1     -10.775  15.746  65.286  1.00  0.00    -0.428 C  
ENDBRANCH  20  22
ENDBRANCH   8  20
BRANCH  11  24
HETATM   24  C   UNL     1     -10.966  13.273  68.138  1.00  0.00    -0.278 A  
HETATM   25  C   UNL     1     -11.945  13.910  68.937  1.00  0.00    -0.393 A  
HETATM   26  C   UNL     1     -11.632  15.027  69.714  1.00  0.00    -0.336 A  
HETATM   27  C   UNL     1     -10.336  15.527  69.715  1.00  0.00    -0.316 A  
HETATM   28  C   UNL     1      -9.349  14.899  68.955  1.00  0.00    -0.179 A  
HETATM   29  C   UNL     1      -9.657  13.776  68.177  1.00  0.00    -0.216 A  
HETATM   30 CL   UNL     1      -8.361  13.053  67.294  1.00  0.00    -0.190 Cl 
ENDBRANCH  11  24
ENDBRANCH   4   6
ENDBRANCH   3   4
ENDBRANCH   2   3
TORSDOF 10
ENDMDL
MODEL        4
REMARK 921   NORMALIZED FREE ENERGY PREDICTED BY IDOCK:   -5.67 KCAL/MOL
REMARK 922        TOTAL FREE ENERGY PREDICTED BY IDOCK:  -10.72 KCAL/MOL
REMARK 923 INTER-LIGAND FREE ENERGY PREDICTED BY IDOCK:   -9.20 KCAL/MOL
REMARK 924 INTRA-LIGAND FREE ENERGY PREDICTED BY IDOCK:   -1.52 KCAL/MOL
REMARK 927      BINDING AFFINITY PREDICTED BY RF-SCORE:    0.00 PKD
ROOT
HETATM    1  C   UNL     1     -12.424  11.988  63.684  1.00  0.00    -0.637 C  
HETATM    2  C   UNL     1     -12.493  13.044  64.769  1.00  0.00    -0.427 C  
ENDROOT
BRANCH   2   3
HETATM    3  O   UNL     1     -12.316  12.342  65.994  1.00  0.00    -0.627 OA 
BRANCH   3   4
HETATM    4  C   UNL     1     -11.385  12.772  66.877  1.00  0.00    -0.321 C  
HETATM    5  O   UNL     1     -10.807  13.846  66.844  1.00  0.00    -0.283 OA 
BRANCH   4   6
HETATM    6  C   UNL     1     -11.338  11.806  68.013  1.00  0.00    -0.355 C  
HETATM    7  C   UNL     1     -11.668  12.165  69.280  1.00  0.00    -0.328 C  
HETATM    8  C   UNL     1     -10.690   9.497  68.951  1.00  0.00    -0.220 C  
HETATM    9  N   UNL     1     -11.554  11.242  70.304  1.00  0.00    -0.304 NA 
HETATM   10  C   UNL     1     -11.015   9.977  70.177  1.00  0.00    -0.310 C  
HETATM   11  C   UNL     1     -10.887  10.371  67.694  1.00  0.00    -0.361 C  
HETATM   12  C   UNL     1     -10.826   9.231  71.476  1.00  0.00    -0.442 C  
BRANCH   7  13
HETATM   13  C   UNL     1     -12.243  13.518  69.691  1.00  0.00    -0.247 C  
BRANCH  13  14
HETATM   14  O   UNL     1     -12.615  13.551  71.071  1.00  0.00    -0.353 OA 
BRANCH  14  15
HETATM   15  C   UNL     1     -12.386  14.832  71.669  1.00  0.00    -0.345 C  
BRANCH  15  16
HETATM   16  C   UNL     1     -12.889  14.822  73.115  1.00  0.00    -0.508 C  
HETATM   17  N   UNL     1     -13.534  16.088  73.468  1.00  0.00    -0.837 NA 
HETATM   18  H2  UNL     1     -14.282  16.321  72.814  1.00  0.00     0.000 HD 
HETATM   19  H1  UNL     1     -13.870  16.082  74.431  1.00  0.00     0.000 HD 
ENDBRANCH  15  16
ENDBRANCH  14  15
ENDBRANCH  13  14
ENDBRANCH   7  13
BRANCH   8  20
HETATM   20  C   UNL     1     -10.084   8.143  68.833  1.00  0.00    -0.202 C  
HETATM   21  O   UNL     1      -8.905   7.889  69.041  1.00  0.00    -0.144 OA 
BRANCH  20  22
HETATM   22  O   UNL     1     -11.010   7.217  68.477  1.00  0.00    -0.138 OA 
HETATM   23  C   UNL     1     -11.104   6.127  69.400  1.00  0.00    -0.409 C  
ENDBRANCH  20  22
ENDBRANCH   8  20
BRANCH  11  24
HETATM   24  C   UNL     1      -9.684  10.318  66.731  1.00  0.00    -0.231 A  
HETATM   25  C   UNL     1      -9.905   9.779  65.441  1.00  0.00    -0.365 A  
HETATM   26  C   UNL     1      -8.863   9.659  64.518  1.00  0.00    -0.257 A  
HETATM   27  C   UNL     1      -7.585  10.078  64.861  1.00  0.00    -0.139 A  
HETATM   28  C   UNL     1      -7.350  10.635  66.119  1.00  0.00    -0.138 A  
HETATM   29  C   UNL     1      -8.391  10.762  67.046  1.00  0.00    -0.129 A  
HETATM   30 CL   UNL     1      -8.006  11.489  68.564  1.00  0.00    -0.139 Cl 
ENDBRANCH  11  24
ENDBRANCH   4   6
ENDBRANCH   3   4
ENDBRANCH   2   3
TORSDOF 10
ENDMDL
MODEL        5
REMARK 921   NORMALIZED FREE ENERGY PREDICTED BY IDOCK:   -5.65 KCAL/MOL
REMARK 922        TOTAL FREE ENERGY PREDICTED BY IDOCK:  -10.69 KCAL/MOL
REMARK 923 INTER-LIGAND FREE ENERGY PREDICTED BY IDOCK:   -8.76 KCAL/MOL
REMARK 924 INTRA-LIGAND FREE ENERGY PREDICTED BY IDOCK:   -1.93 KCAL/MOL
REMARK 927      BINDING AFFINITY PREDICTED BY RF-SCORE:    0.00 PKD
ROOT
HETATM    1  C   UNL     1      -6.745  11.549  68.754  1.00  0.00    -0.079 C  
HETATM    2  C   UNL     1      -7.947  11.485  67.834  1.00  0.00    -0.126 C  
ENDROOT
BRANCH   2   3
HETATM    3  O   UNL     1      -8.949  10.787  68.565  1.00  0.00    -0.145 OA 
BRANCH   3   4
HETATM    4  C   UNL     1     -10.235  10.845  68.150  1.00  0.00    -0.176 C  
HETATM    5  O   UNL     1     -10.683  10.350  67.130  1.00  0.00    -0.259 OA 
BRANCH   4   6
HETATM    6  C   UNL     1     -11.054  11.432  69.251  1.00  0.00    -0.313 C  
HETATM    7  C   UNL     1     -11.772  10.660  70.106  1.00  0.00    -0.332 C  
HETATM    8  C   UNL     1     -12.075  13.488  70.418  1.00  0.00    -0.415 C  
HETATM    9  N   UNL     1     -12.558  11.260  71.075  1.00  0.00    -0.399 NA 
HETATM   10  C   UNL     1     -12.773  12.620  71.192  1.00  0.00    -0.254 C  
HETATM   11  C   UNL     1     -11.061  12.964  69.378  1.00  0.00    -0.131 C  
HETATM   12  C   UNL     1     -13.817  13.014  72.208  1.00  0.00    -0.529 C  
BRANCH   7  13
HETATM   13  C   UNL     1     -11.744   9.134  70.153  1.00  0.00     0.065 C  
BRANCH  13  14
HETATM   14  O   UNL     1     -12.076   8.626  71.447  1.00  0.00    -0.288 OA 
BRANCH  14  15
HETATM   15  C   UNL     1     -13.043   7.572  71.390  1.00  0.00    -0.325 C  
BRANCH  15  16
HETATM   16  C   UNL     1     -14.366   8.056  71.989  1.00  0.00    -0.410 C  
HETATM   17  N   UNL     1     -14.147   9.008  73.080  1.00  0.00    -1.223 NA 
HETATM   18  H2  UNL     1     -13.564   9.790  72.781  1.00  0.00     0.000 HD 
HETATM   19  H1  UNL     1     -15.028   9.330  73.479  1.00  0.00     0.000 HD 
ENDBRANCH  15  16
ENDBRANCH  14  15
ENDBRANCH  13  14
ENDBRANCH   7  13
BRANCH   8  20
HETATM   20  C   UNL     1     -12.339  14.948  70.537  1.00  0.00    -0.342 C  
HETATM   21  O   UNL     1     -13.261  15.533  69.987  1.00  0.00    -0.045 OA 
BRANCH  20  22
HETATM   22  O   UNL     1     -11.431  15.549  71.347  1.00  0.00    -0.350 OA 
HETATM   23  C   UNL     1     -12.030  16.302  72.406  1.00  0.00    -0.540 C  
ENDBRANCH  20  22
ENDBRANCH   8  20
BRANCH  11  24
HETATM   24  C   UNL     1     -11.172  13.681  68.018  1.00  0.00    -0.295 A  
HETATM   25  C   UNL     1     -12.282  13.361  67.201  1.00  0.00    -0.306 A  
HETATM   26  C   UNL     1     -12.442  13.934  65.938  1.00  0.00    -0.519 A  
HETATM   27  C   UNL     1     -11.502  14.842  65.468  1.00  0.00    -0.307 A  
HETATM   28  C   UNL     1     -10.414  15.192  66.268  1.00  0.00    -0.312 A  
HETATM   29  C   UNL     1     -10.250  14.623  67.536  1.00  0.00    -0.225 A  
HETATM   30 CL   UNL     1      -8.887  15.141  68.460  1.00  0.00    -0.177 Cl 
ENDBRANCH  11  24
ENDBRANCH   4   6
ENDBRANCH   3   4
ENDBRANCH   2   3
TORSDOF 10
ENDMDL
MODEL        6
REMARK 921   NORMALIZED FREE ENERGY PREDICTED BY IDOCK:   -5.61 KCAL/MOL
REMARK 922        TOTAL FREE ENERGY PREDICTED BY IDOCK:  -10.63 KCAL/MOL
REMARK 923 INTER-LIGAND FREE ENERGY PREDICTED BY IDOCK:   -8.72 KCAL/MOL
REMARK 924 INTRA-LIGAND FREE ENERGY PREDICTED BY IDOCK:   -1.91 KCAL/MOL
REMARK 927      BINDING AFFINITY PREDICTED BY RF-SCORE:    0.00 PKD
ROOT
HETATM    1  C   UNL     1     -11.563  11.911  63.738  1.00  0.00    -0.555 C  
HETATM    2  C   UNL     1     -12.377  12.905  64.542  1.00  0.00    -0.417 C  
ENDROOT
BRANCH   2   3
HETATM    3  O   UNL     1     -12.353  12.421  65.880  1.00  0.00    -0.638 OA 
BRANCH   3   4
HETATM    4  C   UNL     1     -11.279  12.681  66.661  1.00  0.00    -0.300 C  
HETATM    5  O   UNL     1     -10.504  13.613  66.527  1.00  0.00    -0.275 OA 
BRANCH   4   6
HETATM    6  C   UNL     1     -11.323  11.763  67.836  1.00  0.00    -0.362 C  
HETATM    7  C   UNL     1     -11.717  12.182  69.065  1.00  0.00    -0.322 C  
HETATM    8  C   UNL     1     -10.790   9.481  68.903  1.00  0.00    -0.177 C  
HETATM    9  N   UNL     1     -11.686  11.300  70.131  1.00  0.00    -0.333 NA 
HETATM   10  C   UNL     1     -11.174  10.018  70.088  1.00  0.00    -0.304 C  
HETATM   11  C   UNL     1     -10.891  10.305  67.602  1.00  0.00    -0.363 C  
HETATM   12  C   UNL     1     -11.080   9.323  71.424  1.00  0.00    -0.437 C  
BRANCH   7  13
HETATM   13  C   UNL     1     -12.281  13.564  69.387  1.00  0.00    -0.228 C  
BRANCH  13  14
HETATM   14  O   UNL     1     -12.183  13.878  70.778  1.00  0.00    -0.338 OA 
BRANCH  14  15
HETATM   15  C   UNL     1     -13.184  14.810  71.200  1.00  0.00    -0.393 C  
BRANCH  15  16
HETATM   16  C   UNL     1     -14.101  14.147  72.231  1.00  0.00    -0.533 C  
HETATM   17  N   UNL     1     -13.670  12.781  72.535  1.00  0.00    -0.659 NA 
HETATM   18  H2  UNL     1     -12.694  12.756  72.832  1.00  0.00     0.000 HD 
HETATM   19  H1  UNL     1     -14.280  12.340  73.222  1.00  0.00     0.000 HD 
ENDBRANCH  15  16
ENDBRANCH  14  15
ENDBRANCH  13  14
ENDBRANCH   7  13
BRANCH   8  20
HETATM   20  C   UNL     1     -10.213   8.109  68.876  1.00  0.00    -0.210 C  
HETATM   21  O   UNL     1      -9.047   7.841  69.134  1.00  0.00    -0.145 OA 
BRANCH  20  22
HETATM   22  O   UNL     1     -11.150   7.186  68.541  1.00  0.00    -0.081 OA 
HETATM   23  C   UNL     1     -10.726   6.306  67.494  1.00  0.00    -0.319 C  
ENDBRANCH  20  22
ENDBRANCH   8  20
BRANCH  11  24
HETATM   24  C   UNL     1      -9.636  10.184  66.715  1.00  0.00    -0.222 A  
HETATM   25  C   UNL     1      -9.767   9.486  65.491  1.00  0.00    -0.344 A  
HETATM   26  C   UNL     1      -8.673   9.297  64.644  1.00  0.00    -0.223 A  
HETATM   27  C   UNL     1      -7.430   9.804  64.998  1.00  0.00    -0.127 A  
HETATM   28  C   UNL     1      -7.284  10.516  66.188  1.00  0.00    -0.136 A  
HETATM   29  C   UNL     1      -8.378  10.713  67.039  1.00  0.00    -0.126 A  
HETATM   30 CL   UNL     1      -8.101  11.632  68.475  1.00  0.00    -0.148 Cl 
ENDBRANCH  11  24
ENDBRANCH   4   6
ENDBRANCH   3   4
ENDBRANCH   2   3
TORSDOF 10
ENDMDL
MODEL        7
REMARK 921   NORMALIZED FREE ENERGY PREDICTED BY IDOCK:   -5.58 KCAL/MOL
REMARK 922        TOTAL FREE ENERGY PREDICTED BY IDOCK:  -10.57 KCAL/MOL
REMARK 923 INTER-LIGAND FREE ENERGY PREDICTED BY IDOCK:   -9.06 KCAL/MOL
REMARK 924 INTRA-LIGAND FREE ENERGY PREDICTED BY IDOCK:   -1.52 KCAL/MOL
REMARK 927      BINDING AFFINITY PREDICTED BY RF-SCORE:    0.00 PKD
ROOT
HETATM    1  C   UNL     1     -10.626  11.539  63.418  1.00  0.00    -0.460 C  
HETATM    2  C   UNL     1     -10.102  10.587  64.474  1.00  0.00    -0.332 C  
ENDROOT
BRANCH   2   3
HETATM    3  O   UNL     1     -10.709  11.000  65.693  1.00  0.00    -0.231 OA 
BRANCH   3   4
HETATM    4  C   UNL     1      -9.929  11.428  66.711  1.00  0.00    -0.208 C  
HETATM    5  O   UNL     1      -8.768  11.793  66.622  1.00  0.00    -0.183 OA 
BRANCH   4   6
HETATM    6  C   UNL     1     -10.786  11.581  67.923  1.00  0.00    -0.241 C  
HETATM    7  C   UNL     1     -11.333  12.772  68.275  1.00  0.00    -0.296 C  
HETATM    8  C   UNL     1     -11.761  10.612  70.101  1.00  0.00    -0.417 C  
HETATM    9  N   UNL     1     -12.075  12.867  69.439  1.00  0.00    -0.245 NA 
HETATM   10  C   UNL     1     -12.229  11.856  70.368  1.00  0.00    -0.314 C  
HETATM   11  C   UNL     1     -11.023  10.323  68.776  1.00  0.00    -0.285 C  
HETATM   12  C   UNL     1     -12.925  12.263  71.644  1.00  0.00    -0.416 C  
BRANCH   7  13
HETATM   13  C   UNL     1     -11.269  14.052  67.445  1.00  0.00    -0.311 C  
BRANCH  13  14
HETATM   14  O   UNL     1     -12.477  14.287  66.717  1.00  0.00    -0.376 OA 
BRANCH  14  15
HETATM   15  C   UNL     1     -12.281  14.230  65.300  1.00  0.00    -0.414 C  
BRANCH  15  16
HETATM   16  C   UNL     1     -11.254  15.284  64.880  1.00  0.00    -0.415 C  
HETATM   17  N   UNL     1     -11.780  16.159  63.830  1.00  0.00    -1.452 NA 
HETATM   18  H2  UNL     1     -12.663  16.588  64.110  1.00  0.00     0.000 HD 
HETATM   19  H1  UNL     1     -11.096  16.861  63.550  1.00  0.00     0.000 HD 
ENDBRANCH  15  16
ENDBRANCH  14  15
ENDBRANCH  13  14
ENDBRANCH   7  13
BRANCH   8  20
HETATM   20  C   UNL     1     -11.910   9.540  71.123  1.00  0.00    -0.358 C  
HETATM   21  O   UNL     1     -11.090   9.297  71.998  1.00  0.00    -0.331 OA 
BRANCH  20  22
HETATM   22  O   UNL     1     -13.081   8.872  70.971  1.00  0.00    -0.150 OA 
HETATM   23  C   UNL     1     -13.872   8.839  72.163  1.00  0.00    -0.457 C  
ENDBRANCH  20  22
ENDBRANCH   8  20
BRANCH  11  24
HETATM   24  C   UNL     1      -9.749   9.478  68.970  1.00  0.00    -0.170 A  
HETATM   25  C   UNL     1      -8.728  10.016  69.789  1.00  0.00    -0.198 A  
HETATM   26  C   UNL     1      -7.525   9.336  69.990  1.00  0.00    -0.094 A  
HETATM   27  C   UNL     1      -7.319   8.104  69.383  1.00  0.00    -0.076 A  
HETATM   28  C   UNL     1      -8.322   7.543  68.591  1.00  0.00    -0.129 A  
HETATM   29  C   UNL     1      -9.531   8.219  68.390  1.00  0.00    -0.139 A  
HETATM   30 CL   UNL     1     -10.720   7.430  67.418  1.00  0.00    -0.358 Cl 
ENDBRANCH  11  24
ENDBRANCH   4   6
ENDBRANCH   3   4
ENDBRANCH   2   3
TORSDOF 10
ENDMDL
MODEL        8
REMARK 921   NORMALIZED FREE ENERGY PREDICTED BY IDOCK:   -5.55 KCAL/MOL
REMARK 922        TOTAL FREE ENERGY PREDICTED BY IDOCK:  -10.53 KCAL/MOL
REMARK 923 INTER-LIGAND FREE ENERGY PREDICTED BY IDOCK:   -8.54 KCAL/MOL
REMARK 924 INTRA-LIGAND FREE ENERGY PREDICTED BY IDOCK:   -1.99 KCAL/MOL
REMARK 927      BINDING AFFINITY PREDICTED BY RF-SCORE:    0.00 PKD
ROOT
HETATM    1  C   UNL     1      -6.707  11.581  68.462  1.00  0.00    -0.067 C  
HETATM    2  C   UNL     1      -6.410  13.045  68.714  1.00  0.00    -0.084 C  
ENDROOT
BRANCH   2   3
HETATM    3  O   UNL     1      -7.207  13.761  67.778  1.00  0.00    -0.129 OA 
BRANCH   3   4
HETATM    4  C   UNL     1      -8.219  14.540  68.226  1.00  0.00    -0.149 C  
HETATM    5  O   UNL     1      -8.294  15.053  69.330  1.00  0.00    -0.198 OA 
BRANCH   4   6
HETATM    6  C   UNL     1      -9.120  14.841  67.076  1.00  0.00    -0.257 C  
HETATM    7  C   UNL     1      -9.004  15.979  66.346  1.00  0.00    -0.319 C  
HETATM    8  C   UNL     1     -11.205  14.281  65.672  1.00  0.00    -0.314 C  
HETATM    9  N   UNL     1      -9.902  16.232  65.324  1.00  0.00    -0.426 NA 
HETATM   10  C   UNL     1     -11.012  15.463  65.034  1.00  0.00    -0.436 C  
HETATM   11  C   UNL     1     -10.208  13.804  66.749  1.00  0.00    -0.268 C  
HETATM   12  C   UNL     1     -11.941  16.048  63.998  1.00  0.00     0.357 C  
BRANCH   7  13
HETATM   13  C   UNL     1      -7.893  17.016  66.500  1.00  0.00    -0.296 C  
BRANCH  13  14
HETATM   14  O   UNL     1      -8.275  18.298  65.995  1.00  0.00    -0.479 OA 
BRANCH  14  15
HETATM   15  C   UNL     1      -8.707  19.187  67.030  1.00  0.00    -0.294 C  
BRANCH  15  16
HETATM   16  C   UNL     1      -9.989  19.901  66.593  1.00  0.00    -0.457 C  
HETATM   17  N   UNL     1     -10.682  19.163  65.535  1.00  0.00    -0.470 NA 
HETATM   18  H2  UNL     1     -10.869  18.199  65.814  1.00  0.00     0.000 HD 
HETATM   19  H1  UNL     1     -11.536  19.639  65.244  1.00  0.00     0.000 HD 
ENDBRANCH  15  16
ENDBRANCH  14  15
ENDBRANCH  13  14
ENDBRANCH   7  13
BRANCH   8  20
HETATM   20  C   UNL     1     -12.420  13.477  65.368  1.00  0.00    -0.497 C  
HETATM   21  O   UNL     1     -13.568  13.849  65.572  1.00  0.00    -0.579 OA 
BRANCH  20  22
HETATM   22  O   UNL     1     -12.094  12.278  64.820  1.00  0.00    -0.395 OA 
HETATM   23  C   UNL     1     -12.404  12.191  63.426  1.00  0.00    -0.538 C  
ENDBRANCH  20  22
ENDBRANCH   8  20
BRANCH  11  24
HETATM   24  C   UNL     1     -10.903  13.244  68.005  1.00  0.00    -0.261 A  
HETATM   25  C   UNL     1     -11.568  14.165  68.848  1.00  0.00    -0.345 A  
HETATM   26  C   UNL     1     -12.193  13.750  70.026  1.00  0.00    -0.407 A  
HETATM   27  C   UNL     1     -12.172  12.408  70.383  1.00  0.00    -0.370 A  
HETATM   28  C   UNL     1     -11.544  11.479  69.553  1.00  0.00    -0.400 A  
HETATM   29  C   UNL     1     -10.920  11.889  68.369  1.00  0.00    -0.232 A  
HETATM   30 CL   UNL     1     -10.196  10.659  67.397  1.00  0.00    -0.230 Cl 
ENDBRANCH  11  24
ENDBRANCH   4   6
ENDBRANCH   3   4
ENDBRANCH   2   3
TORSDOF 10
ENDMDL
MODEL        9
REMARK 921   NORMALIZED FREE ENERGY PREDICTED BY IDOCK:   -5.51 KCAL/MOL
REMARK 922        TOTAL FREE ENERGY PREDICTED BY IDOCK:  -10.47 KCAL/MOL
REMARK 923 INTER-LIGAND FREE ENERGY PREDICTED BY IDOCK:   -8.28 KCAL/MOL
REMARK 924 INTRA-LIGAND FREE ENERGY PREDICTED BY IDOCK:   -2.19 KCAL/MOL
REMARK 927      BINDING AFFINITY PREDICTED BY RF-SCORE:    0.00 PKD
ROOT
HETATM    1  C   UNL     1     -12.628  10.720  71.074  1.00  0.00    -0.520 C  
HETATM    2  C   UNL     1     -11.412   9.833  70.892  1.00  0.00    -0.369 C  
ENDROOT
BRANCH   2   3
HETATM    3  O   UNL     1     -11.174   9.797  69.490  1.00  0.00    -0.218 OA 
BRANCH   3   4
HETATM    4  C   UNL     1     -10.154  10.518  68.970  1.00  0.00    -0.217 C  
HETATM    5  O   UNL     1      -9.065  10.696  69.489  1.00  0.00    -0.111 OA 
BRANCH   4   6
HETATM    6  C   UNL     1     -10.506  10.881  67.567  1.00  0.00    -0.252 C  
HETATM    7  C   UNL     1     -10.075  10.156  66.504  1.00  0.00    -0.234 C  
HETATM    8  C   UNL     1     -11.539  12.534  65.884  1.00  0.00    -0.454 C  
HETATM    9  N   UNL     1     -10.387  10.570  65.221  1.00  0.00    -0.267 NA 
HETATM   10  C   UNL     1     -11.027  11.752  64.901  1.00  0.00    -0.300 C  
HETATM   11  C   UNL     1     -11.382  12.130  67.365  1.00  0.00    -0.393 C  
HETATM   12  C   UNL     1     -11.084  12.067  63.426  1.00  0.00    -0.476 C  
BRANCH   7  13
HETATM   13  C   UNL     1      -9.310   8.838  66.588  1.00  0.00    -0.189 C  
BRANCH  13  14
HETATM   14  O   UNL     1      -7.896   9.037  66.673  1.00  0.00    -0.098 OA 
BRANCH  14  15
HETATM   15  C   UNL     1      -7.236   8.817  65.422  1.00  0.00    -0.084 C  
BRANCH  15  16
HETATM   16  C   UNL     1      -6.708  10.148  64.880  1.00  0.00    -0.124 C  
HETATM   17  N   UNL     1      -7.578  10.685  63.832  1.00  0.00    -0.355 NA 
HETATM   18  H2  UNL     1      -8.542  10.771  64.155  1.00  0.00     0.000 HD 
HETATM   19  H1  UNL     1      -7.226  11.572  63.471  1.00  0.00     0.000 HD 
ENDBRANCH  15  16
ENDBRANCH  14  15
ENDBRANCH  13  14
ENDBRANCH   7  13
BRANCH   8  20
HETATM   20  C   UNL     1     -12.201  13.818  65.525  1.00  0.00    -0.442 C  
HETATM   21  O   UNL     1     -13.411  13.973  65.435  1.00  0.00    -0.679 OA 
BRANCH  20  22
HETATM   22  O   UNL     1     -11.290  14.803  65.321  1.00  0.00    -0.341 OA 
HETATM   23  C   UNL     1     -11.718  15.780  64.366  1.00  0.00    -0.201 C  
ENDBRANCH  20  22
ENDBRANCH   8  20
BRANCH  11  24
HETATM   24  C   UNL     1     -10.967  13.308  68.268  1.00  0.00    -0.280 A  
HETATM   25  C   UNL     1     -11.913  13.771  69.212  1.00  0.00    -0.399 A  
HETATM   26  C   UNL     1     -11.636  14.857  70.045  1.00  0.00    -0.331 A  
HETATM   27  C   UNL     1     -10.407  15.499  69.956  1.00  0.00    -0.315 A  
HETATM   28  C   UNL     1      -9.450  15.043  69.050  1.00  0.00    -0.210 A  
HETATM   29  C   UNL     1      -9.721  13.952  68.215  1.00  0.00    -0.223 A  
HETATM   30 CL   UNL     1      -8.462  13.447  67.148  1.00  0.00    -0.199 Cl 
ENDBRANCH  11  24
ENDBRANCH   4   6
ENDBRANCH   3   4
ENDBRANCH   2   3
TORSDOF 10
ENDMDL
MODEL       10
REMARK 921   NORMALIZED FREE ENERGY PREDICTED BY IDOCK:   -5.50 KCAL/MOL
REMARK 922        TOTAL FREE ENERGY PREDICTED BY IDOCK:  -10.45 KCAL/MOL
REMARK 923 INTER-LIGAND FREE ENERGY PREDICTED BY IDOCK:   -8.86 KCAL/MOL
REMARK 924 INTRA-LIGAND FREE ENERGY PREDICTED BY IDOCK:   -1.59 KCAL/MOL
REMARK 927      BINDING AFFINITY PREDICTED BY RF-SCORE:    0.00 PKD
ROOT
HETATM    1  C   UNL     1      -7.418  10.473  68.570  1.00  0.00    -0.091 C  
HETATM    2  C   UNL     1      -8.723  10.306  67.818  1.00  0.00    -0.121 C  
ENDROOT
BRANCH   2   3
HETATM    3  O   UNL     1      -9.747  10.528  68.780  1.00  0.00    -0.168 OA 
BRANCH   3   4
HETATM    4  C   UNL     1     -10.965  10.951  68.369  1.00  0.00    -0.237 C  
HETATM    5  O   UNL     1     -11.705  10.365  67.596  1.00  0.00    -0.309 OA 
BRANCH   4   6
HETATM    6  C   UNL     1     -11.341  12.146  69.178  1.00  0.00    -0.333 C  
HETATM    7  C   UNL     1     -12.123  12.052  70.284  1.00  0.00    -0.312 C  
HETATM    8  C   UNL     1     -11.397  14.702  69.488  1.00  0.00    -0.314 C  
HETATM    9  N   UNL     1     -12.486  13.201  70.966  1.00  0.00    -0.364 NA 
HETATM   10  C   UNL     1     -12.207  14.490  70.555  1.00  0.00    -0.332 C  
HETATM   11  C   UNL     1     -10.809  13.510  68.704  1.00  0.00    -0.281 C  
HETATM   12  C   UNL     1     -12.871  15.575  71.367  1.00  0.00    -0.531 C  
BRANCH   7  13
HETATM   13  C   UNL     1     -12.604  10.748  70.915  1.00  0.00    -0.401 C  
BRANCH  13  14
HETATM   14  O   UNL     1     -11.542  10.028  71.546  1.00  0.00    -0.353 OA 
BRANCH  14  15
HETATM   15  C   UNL     1     -11.983   8.792  72.117  1.00  0.00    -0.366 C  
BRANCH  15  16
HETATM   16  C   UNL     1     -13.494   8.645  71.921  1.00  0.00    -0.397 C  
HETATM   17  N   UNL     1     -14.224   8.880  73.169  1.00  0.00    -1.200 NA 
HETATM   18  H2  UNL     1     -13.986   9.785  73.575  1.00  0.00     0.000 HD 
HETATM   19  H1  UNL     1     -15.230   8.782  73.038  1.00  0.00     0.000 HD 
ENDBRANCH  15  16
ENDBRANCH  14  15
ENDBRANCH  13  14
ENDBRANCH   7  13
BRANCH   8  20
HETATM   20  C   UNL     1     -11.130  16.097  69.040  1.00  0.00    -0.336 C  
HETATM   21  O   UNL     1     -11.810  16.707  68.227  1.00  0.00     0.103 OA 
BRANCH  20  22
HETATM   22  O   UNL     1     -10.039  16.613  69.660  1.00  0.00    -0.190 OA 
HETATM   23  C   UNL     1      -9.137  17.270  68.764  1.00  0.00    -0.232 C  
ENDBRANCH  20  22
ENDBRANCH   8  20
BRANCH  11  24
HETATM   24  C   UNL     1     -10.899  13.692  67.176  1.00  0.00    -0.292 A  
HETATM   25  C   UNL     1     -12.188  13.701  66.595  1.00  0.00    -0.437 A  
HETATM   26  C   UNL     1     -12.361  13.824  65.214  1.00  0.00    -0.491 A  
HETATM   27  C   UNL     1     -11.252  13.946  64.388  1.00  0.00    -0.341 A  
HETATM   28  C   UNL     1      -9.972  13.964  64.943  1.00  0.00    -0.173 A  
HETATM   29  C   UNL     1      -9.793  13.846  66.326  1.00  0.00    -0.306 A  
HETATM   30 CL   UNL     1      -8.172  13.908  66.917  1.00  0.00    -0.058 Cl 
ENDBRANCH  11  24
ENDBRANCH   4   6
ENDBRANCH   3   4
ENDBRANCH   2   3
TORSDOF 10
ENDMDL
MODEL       11
REMARK 921   NORMALIZED FREE ENERGY PREDICTED BY IDOCK:   -5.47 KCAL/MOL
REMARK 922        TOTAL FREE ENERGY PREDICTED BY IDOCK:  -10.40 KCAL/MOL
REMARK 923 INTER-LIGAND FREE ENERGY PREDICTED BY IDOCK:   -8.38 KCAL/MOL
REMARK 924 INTRA-LIGAND FREE ENERGY PREDICTED BY IDOCK:   -2.03 KCAL/MOL
REMARK 927      BINDING AFFINITY PREDICTED BY RF-SCORE:    0.00 PKD
ROOT
HETATM    1  C   UNL     1     -10.503  11.173  64.251  1.00  0.00    -0.427 C  
HETATM    2  C   UNL     1     -10.030  10.131  65.245  1.00  0.00    -0.311 C  
ENDROOT
BRANCH   2   3
HETATM    3  O   UNL     1     -10.552  10.542  66.503  1.00  0.00    -0.231 OA 
BRANCH   3   4
HETATM    4  C   UNL     1      -9.705  10.993  67.457  1.00  0.00    -0.172 C  
HETATM    5  O   UNL     1      -8.503  11.154  67.331  1.00  0.00    -0.130 OA 
BRANCH   4   6
HETATM    6  C   UNL     1     -10.517  11.460  68.618  1.00  0.00    -0.224 C  
HETATM    7  C   UNL     1     -11.112  10.594  69.477  1.00  0.00    -0.274 C  
HETATM    8  C   UNL     1     -11.666  13.367  69.913  1.00  0.00    -0.337 C  
HETATM    9  N   UNL     1     -11.899  11.083  70.506  1.00  0.00    -0.353 NA 
HETATM   10  C   UNL     1     -12.237  12.410  70.686  1.00  0.00    -0.278 C  
HETATM   11  C   UNL     1     -10.663  12.980  68.805  1.00  0.00    -0.250 C  
HETATM   12  C   UNL     1     -13.259  12.667  71.767  1.00  0.00    -0.457 C  
BRANCH   7  13
HETATM   13  C   UNL     1     -10.937   9.078  69.464  1.00  0.00    -0.106 C  
BRANCH  13  14
HETATM   14  O   UNL     1     -10.358   8.589  70.676  1.00  0.00    -0.192 OA 
BRANCH  14  15
HETATM   15  C   UNL     1     -11.167   7.589  71.304  1.00  0.00    -0.251 C  
BRANCH  15  16
HETATM   16  C   UNL     1     -11.676   8.109  72.651  1.00  0.00    -0.355 C  
HETATM   17  N   UNL     1     -13.010   8.701  72.529  1.00  0.00    -0.577 NA 
HETATM   18  H2  UNL     1     -13.671   8.047  72.108  1.00  0.00     0.000 HD 
HETATM   19  H1  UNL     1     -13.349   9.048  73.426  1.00  0.00     0.000 HD 
ENDBRANCH  15  16
ENDBRANCH  14  15
ENDBRANCH  13  14
ENDBRANCH   7  13
BRANCH   8  20
HETATM   20  C   UNL     1     -12.061  14.790  70.101  1.00  0.00    -0.327 C  
HETATM   21  O   UNL     1     -13.010  15.326  69.544  1.00  0.00     0.172 OA 
BRANCH  20  22
HETATM   22  O   UNL     1     -11.241  15.418  70.981  1.00  0.00    -0.333 OA 
HETATM   23  C   UNL     1     -11.945  16.067  72.044  1.00  0.00    -0.537 C  
ENDBRANCH  20  22
ENDBRANCH   8  20
BRANCH  11  24
HETATM   24  C   UNL     1     -10.913  13.728  67.481  1.00  0.00    -0.285 A  
HETATM   25  C   UNL     1     -12.126  13.463  66.801  1.00  0.00    -0.419 A  
HETATM   26  C   UNL     1     -12.418  14.067  65.576  1.00  0.00    -0.533 A  
HETATM   27  C   UNL     1     -11.510  14.952  65.009  1.00  0.00    -0.379 A  
HETATM   28  C   UNL     1     -10.320  15.247  65.675  1.00  0.00    -0.389 A  
HETATM   29  C   UNL     1     -10.024  14.647  66.904  1.00  0.00    -0.253 A  
HETATM   30 CL   UNL     1      -8.539  15.099  67.662  1.00  0.00    -0.170 Cl 
ENDBRANCH  11  24
ENDBRANCH   4   6
ENDBRANCH   3   4
ENDBRANCH   2   3
TORSDOF 10
ENDMDL
MODEL       12
REMARK 921   NORMALIZED FREE ENERGY PREDICTED BY IDOCK:   -5.32 KCAL/MOL
REMARK 922        TOTAL FREE ENERGY PREDICTED BY IDOCK:  -10.17 KCAL/MOL
REMARK 923 INTER-LIGAND FREE ENERGY PREDICTED BY IDOCK:   -8.51 KCAL/MOL
REMARK 924 INTRA-LIGAND FREE ENERGY PREDICTED BY IDOCK:   -1.66 KCAL/MOL
REMARK 927      BINDING AFFINITY PREDICTED BY RF-SCORE:    0.00 PKD
ROOT
HETATM    1  C   UNL     1     -12.358  14.974  72.381  1.00  0.00    -0.435 C  
HETATM    2  C   UNL     1     -11.481  15.339  71.200  1.00  0.00    -0.369 C  
ENDROOT
BRANCH   2   3
HETATM    3  O   UNL     1     -11.339  14.140  70.447  1.00  0.00    -0.148 OA 
BRANCH   3   4
HETATM    4  C   UNL     1     -12.082  13.965  69.330  1.00  0.00    -0.337 C  
HETATM    5  O   UNL     1     -12.785  14.808  68.798  1.00  0.00     0.219 OA 
BRANCH   4   6
HETATM    6  C   UNL     1     -11.735  12.639  68.741  1.00  0.00    -0.364 C  
HETATM    7  C   UNL     1     -11.887  11.481  69.432  1.00  0.00    -0.350 C  
HETATM    8  C   UNL     1     -10.679  11.248  66.849  1.00  0.00    -0.319 C  
HETATM    9  N   UNL     1     -11.497  10.284  68.856  1.00  0.00    -0.177 NA 
HETATM   10  C   UNL     1     -10.846  10.161  67.644  1.00  0.00    -0.290 C  
HETATM   11  C   UNL     1     -11.183  12.634  67.306  1.00  0.00    -0.346 C  
HETATM   12  C   UNL     1     -10.357   8.770  67.321  1.00  0.00    -0.360 C  
BRANCH   7  13
HETATM   13  C   UNL     1     -12.536  11.353  70.808  1.00  0.00    -0.365 C  
BRANCH  13  14
HETATM   14  O   UNL     1     -13.374  10.198  70.906  1.00  0.00    -0.388 OA 
BRANCH  14  15
HETATM   15  C   UNL     1     -13.277   9.560  72.184  1.00  0.00    -0.451 C  
BRANCH  15  16
HETATM   16  C   UNL     1     -12.279   8.402  72.105  1.00  0.00    -0.374 C  
HETATM   17  N   UNL     1     -12.085   7.951  70.726  1.00  0.00    -0.490 NA 
HETATM   18  H2  UNL     1     -11.811   8.722  70.116  1.00  0.00     0.000 HD 
HETATM   19  H1  UNL     1     -11.420   7.180  70.673  1.00  0.00     0.000 HD 
ENDBRANCH  15  16
ENDBRANCH  14  15
ENDBRANCH  13  14
ENDBRANCH   7  13
BRANCH   8  20
HETATM   20  C   UNL     1      -9.950  11.104  65.559  1.00  0.00    -0.249 C  
HETATM   21  O   UNL     1      -8.738  10.968  65.458  1.00  0.00    -0.187 OA 
BRANCH  20  22
HETATM   22  O   UNL     1     -10.804  11.131  64.505  1.00  0.00    -0.326 OA 
HETATM   23  C   UNL     1     -10.273  11.815  63.365  1.00  0.00    -0.449 C  
ENDBRANCH  20  22
ENDBRANCH   8  20
BRANCH  11  24
HETATM   24  C   UNL     1     -10.161  13.759  67.049  1.00  0.00    -0.254 A  
HETATM   25  C   UNL     1      -8.965  13.738  67.804  1.00  0.00    -0.194 A  
HETATM   26  C   UNL     1      -8.000  14.738  67.663  1.00  0.00    -0.191 A  
HETATM   27  C   UNL     1      -8.208  15.775  66.763  1.00  0.00    -0.302 A  
HETATM   28  C   UNL     1      -9.369  15.802  65.990  1.00  0.00    -0.384 A  
HETATM   29  C   UNL     1     -10.337  14.799  66.125  1.00  0.00    -0.304 A  
HETATM   30 CL   UNL     1     -11.726  14.906  65.104  1.00  0.00    -0.329 Cl 
ENDBRANCH  11  24
ENDBRANCH   4   6
ENDBRANCH   3   4
ENDBRANCH   2   3
TORSDOF 10
ENDMDL
MODEL       13
REMARK 921   NORMALIZED FREE ENERGY PREDICTED BY IDOCK:   -5.31 KCAL/MOL
REMARK 922        TOTAL FREE ENERGY PREDICTED BY IDOCK:  -10.15 KCAL/MOL
REMARK 923 INTER-LIGAND FREE ENERGY PREDICTED BY IDOCK:   -8.04 KCAL/MOL
REMARK 924 INTRA-LIGAND FREE ENERGY PREDICTED BY IDOCK:   -2.11 KCAL/MOL
REMARK 927      BINDING AFFINITY PREDICTED BY RF-SCORE:    0.00 PKD
ROOT
HETATM    1  C   UNL     1     -11.250   6.218  70.314  1.00  0.00    -0.455 C  
HETATM    2  C   UNL     1     -11.929   7.081  71.359  1.00  0.00    -0.340 C  
ENDROOT
BRANCH   2   3
HETATM    3  O   UNL     1     -11.953   8.394  70.810  1.00  0.00    -0.236 OA 
BRANCH   3   4
HETATM    4  C   UNL     1     -11.001   9.283  71.174  1.00  0.00    -0.339 C  
HETATM    5  O   UNL     1     -10.112   9.090  71.987  1.00  0.00    -0.327 OA 
BRANCH   4   6
HETATM    6  C   UNL     1     -11.090  10.461  70.264  1.00  0.00    -0.379 C  
HETATM    7  C   UNL     1     -12.078  11.386  70.375  1.00  0.00    -0.384 C  
HETATM    8  C   UNL     1     -10.290  11.725  68.168  1.00  0.00    -0.213 C  
HETATM    9  N   UNL     1     -12.144  12.429  69.468  1.00  0.00    -0.236 NA 
HETATM   10  C   UNL     1     -11.336  12.568  68.356  1.00  0.00    -0.291 C  
HETATM   11  C   UNL     1     -10.013  10.588  69.173  1.00  0.00    -0.236 C  
HETATM   12  C   UNL     1     -11.727  13.685  67.419  1.00  0.00    -0.416 C  
BRANCH   7  13
HETATM   13  C   UNL     1     -13.123  11.431  71.487  1.00  0.00    -0.335 C  
BRANCH  13  14
HETATM   14  O   UNL     1     -12.916  12.528  72.380  1.00  0.00    -0.249 OA 
BRANCH  14  15
HETATM   15  C   UNL     1     -14.005  13.458  72.365  1.00  0.00    -0.504 C  
BRANCH  15  16
HETATM   16  C   UNL     1     -13.478  14.860  72.049  1.00  0.00    -0.388 C  
HETATM   17  N   UNL     1     -13.475  15.120  70.608  1.00  0.00    -0.700 NA 
HETATM   18  H2  UNL     1     -14.398  14.967  70.199  1.00  0.00     0.000 HD 
HETATM   19  H1  UNL     1     -13.125  16.055  70.397  1.00  0.00     0.000 HD 
ENDBRANCH  15  16
ENDBRANCH  14  15
ENDBRANCH  13  14
ENDBRANCH   7  13
BRANCH   8  20
HETATM   20  C   UNL     1      -9.446  11.870  66.950  1.00  0.00    -0.199 C  
HETATM   21  O   UNL     1      -9.791  11.539  65.823  1.00  0.00    -0.218 OA 
BRANCH  20  22
HETATM   22  O   UNL     1      -8.245  12.428  67.245  1.00  0.00    -0.169 OA 
HETATM   23  C   UNL     1      -7.133  11.604  66.878  1.00  0.00    -0.124 C  
ENDBRANCH  20  22
ENDBRANCH   8  20
BRANCH  11  24
HETATM   24  C   UNL     1      -9.690   9.246  68.488  1.00  0.00    -0.162 A  
HETATM   25  C   UNL     1     -10.587   8.789  67.494  1.00  0.00    -0.298 A  
HETATM   26  C   UNL     1     -10.392   7.566  66.847  1.00  0.00    -0.379 A  
HETATM   27  C   UNL     1      -9.297   6.779  67.176  1.00  0.00    -0.154 A  
HETATM   28  C   UNL     1      -8.386   7.221  68.135  1.00  0.00    -0.124 A  
HETATM   29  C   UNL     1      -8.574   8.448  68.783  1.00  0.00    -0.135 A  
HETATM   30 CL   UNL     1      -7.376   8.921  69.934  1.00  0.00    -0.051 Cl 
ENDBRANCH  11  24
ENDBRANCH   4   6
ENDBRANCH   3   4
ENDBRANCH   2   3
TORSDOF 10
ENDMDL
MODEL       14
REMARK 921   NORMALIZED FREE ENERGY PREDICTED BY IDOCK:   -5.27 KCAL/MOL
REMARK 922        TOTAL FREE ENERGY PREDICTED BY IDOCK:  -10.09 KCAL/MOL
REMARK 923 INTER-LIGAND FREE ENERGY PREDICTED BY IDOCK:   -8.38 KCAL/MOL
REMARK 924 INTRA-LIGAND FREE ENERGY PREDICTED BY IDOCK:   -1.72 KCAL/MOL
REMARK 927      BINDING AFFINITY PREDICTED BY RF-SCORE:    0.00 PKD
ROOT
HETATM    1  C   UNL     1     -12.353  12.078  63.582  1.00  0.00    -0.648 C  
HETATM    2  C   UNL     1     -12.241  13.590  63.594  1.00  0.00    -0.375 C  
ENDROOT
BRANCH   2   3
HETATM    3  O   UNL     1     -11.161  13.883  64.473  1.00  0.00    -0.377 OA 
BRANCH   3   4
HETATM    4  C   UNL     1     -11.389  13.950  65.805  1.00  0.00    -0.307 C  
HETATM    5  O   UNL     1     -12.470  14.132  66.339  1.00  0.00    -0.461 OA 
BRANCH   4   6
HETATM    6  C   UNL     1     -10.137  13.554  66.513  1.00  0.00    -0.282 C  
HETATM    7  C   UNL     1      -9.966  12.314  67.038  1.00  0.00    -0.211 C  
HETATM    8  C   UNL     1      -7.860  14.185  67.537  1.00  0.00    -0.207 C  
HETATM    9  N   UNL     1      -8.805  12.019  67.732  1.00  0.00    -0.158 NA 
HETATM   10  C   UNL     1      -7.814  12.929  68.045  1.00  0.00    -0.149 C  
HETATM   11  C   UNL     1      -9.034  14.620  66.634  1.00  0.00    -0.267 C  
HETATM   12  C   UNL     1      -6.741  12.408  68.971  1.00  0.00    -0.100 C  
BRANCH   7  13
HETATM   13  C   UNL     1     -10.934  11.146  66.873  1.00  0.00    -0.273 C  
BRANCH  13  14
HETATM   14  O   UNL     1     -12.038  11.226  67.777  1.00  0.00    -0.631 OA 
BRANCH  14  15
HETATM   15  C   UNL     1     -11.706  10.757  69.089  1.00  0.00    -0.296 C  
BRANCH  15  16
HETATM   16  C   UNL     1     -12.115  11.805  70.128  1.00  0.00    -0.317 C  
HETATM   17  N   UNL     1     -12.737  11.185  71.300  1.00  0.00    -0.422 NA 
HETATM   18  H2  UNL     1     -12.134  10.470  71.708  1.00  0.00     0.000 HD 
HETATM   19  H1  UNL     1     -13.009  11.883  71.992  1.00  0.00     0.000 HD 
ENDBRANCH  15  16
ENDBRANCH  14  15
ENDBRANCH  13  14
ENDBRANCH   7  13
BRANCH   8  20
HETATM   20  C   UNL     1      -6.799  15.162  67.906  1.00  0.00    -0.155 C  
HETATM   21  O   UNL     1      -5.837  15.441  67.204  1.00  0.00    -0.305 OA 
BRANCH  20  22
HETATM   22  O   UNL     1      -7.040  15.716  69.121  1.00  0.00    -0.142 OA 
HETATM   23  C   UNL     1      -6.740  17.114  69.174  1.00  0.00    -0.238 C  
ENDBRANCH  20  22
ENDBRANCH   8  20
BRANCH  11  24
HETATM   24  C   UNL     1      -9.581  16.015  66.991  1.00  0.00    -0.229 A  
HETATM   25  C   UNL     1      -9.414  17.046  66.037  1.00  0.00    -0.195 A  
HETATM   26  C   UNL     1      -9.846  18.349  66.292  1.00  0.00    -0.338 A  
HETATM   27  C   UNL     1     -10.459  18.648  67.502  1.00  0.00    -0.473 A  
HETATM   28  C   UNL     1     -10.657  17.641  68.448  1.00  0.00    -0.318 A  
HETATM   29  C   UNL     1     -10.229  16.332  68.195  1.00  0.00    -0.258 A  
HETATM   30 CL   UNL     1     -10.545  15.153  69.415  1.00  0.00    -0.245 Cl 
ENDBRANCH  11  24
ENDBRANCH   4   6
ENDBRANCH   3   4
ENDBRANCH   2   3
TORSDOF 10
ENDMDL
MODEL       15
REMARK 921   NORMALIZED FREE ENERGY PREDICTED BY IDOCK:   -5.27 KCAL/MOL
REMARK 922        TOTAL FREE ENERGY PREDICTED BY IDOCK:  -10.09 KCAL/MOL
REMARK 923 INTER-LIGAND FREE ENERGY PREDICTED BY IDOCK:   -8.68 KCAL/MOL
REMARK 924 INTRA-LIGAND FREE ENERGY PREDICTED BY IDOCK:   -1.41 KCAL/MOL
REMARK 927      BINDING AFFINITY PREDICTED BY RF-SCORE:    0.00 PKD
ROOT
HETATM    1  C   UNL     1     -10.339  11.235  63.224  1.00  0.00    -0.406 C  
HETATM    2  C   UNL     1      -9.435  10.250  63.939  1.00  0.00    -0.302 C  
ENDROOT
BRANCH   2   3
HETATM    3  O   UNL     1      -9.887  10.229  65.288  1.00  0.00    -0.264 OA 
BRANCH   3   4
HETATM    4  C   UNL     1      -9.055  10.638  66.273  1.00  0.00    -0.167 C  
HETATM    5  O   UNL     1      -7.897  10.992  66.133  1.00  0.00    -0.161 OA 
BRANCH   4   6
HETATM    6  C   UNL     1      -9.853  10.784  67.526  1.00  0.00    -0.197 C  
HETATM    7  C   UNL     1     -10.248   9.712  68.259  1.00  0.00    -0.186 C  
HETATM    8  C   UNL     1     -11.199  12.258  69.153  1.00  0.00    -0.300 C  
HETATM    9  N   UNL     1     -11.033   9.904  69.382  1.00  0.00    -0.236 NA 
HETATM   10  C   UNL     1     -11.561  11.115  69.786  1.00  0.00    -0.334 C  
HETATM   11  C   UNL     1     -10.222  12.213  67.958  1.00  0.00    -0.203 C  
HETATM   12  C   UNL     1     -12.538  11.034  70.933  1.00  0.00    -0.488 C  
BRANCH   7  13
HETATM   13  C   UNL     1      -9.839   8.265  67.996  1.00  0.00    -0.169 C  
BRANCH  13  14
HETATM   14  O   UNL     1     -10.661   7.641  67.006  1.00  0.00    -0.329 OA 
BRANCH  14  15
HETATM   15  C   UNL     1     -10.993   6.290  67.344  1.00  0.00    -0.356 C  
BRANCH  15  16
HETATM   16  C   UNL     1     -10.378   5.337  66.316  1.00  0.00    -0.239 C  
HETATM   17  N   UNL     1     -11.392   4.798  65.408  1.00  0.00    -1.000 NA 
HETATM   18  H2  UNL     1     -11.922   5.544  64.955  1.00  0.00     0.000 HD 
HETATM   19  H1  UNL     1     -10.982   4.163  64.722  1.00  0.00     0.000 HD 
ENDBRANCH  15  16
ENDBRANCH  14  15
ENDBRANCH  13  14
ENDBRANCH   7  13
BRANCH   8  20
HETATM   20  C   UNL     1     -11.798  13.552  69.581  1.00  0.00    -0.336 C  
HETATM   21  O   UNL     1     -12.996  13.741  69.744  1.00  0.00     0.131 OA 
BRANCH  20  22
HETATM   22  O   UNL     1     -10.844  14.496  69.780  1.00  0.00    -0.202 OA 
HETATM   23  C   UNL     1     -11.341  15.833  69.666  1.00  0.00    -0.334 C  
ENDBRANCH  20  22
ENDBRANCH   8  20
BRANCH  11  24
HETATM   24  C   UNL     1     -10.672  13.101  66.781  1.00  0.00    -0.274 A  
HETATM   25  C   UNL     1     -11.906  12.788  66.163  1.00  0.00    -0.484 A  
HETATM   26  C   UNL     1     -12.373  13.516  65.066  1.00  0.00    -0.468 A  
HETATM   27  C   UNL     1     -11.622  14.573  64.569  1.00  0.00    -0.385 A  
HETATM   28  C   UNL     1     -10.414  14.915  65.179  1.00  0.00    -0.442 A  
HETATM   29  C   UNL     1      -9.944  14.191  66.281  1.00  0.00    -0.303 A  
HETATM   30 CL   UNL     1      -8.454  14.709  66.983  1.00  0.00    -0.245 Cl 
ENDBRANCH  11  24
ENDBRANCH   4   6
ENDBRANCH   3   4
ENDBRANCH   2   3
TORSDOF 10
ENDMDL
MODEL       16
REMARK 921   NORMALIZED FREE ENERGY PREDICTED BY IDOCK:   -5.26 KCAL/MOL
REMARK 922        TOTAL FREE ENERGY PREDICTED BY IDOCK:  -10.07 KCAL/MOL
REMARK 923 INTER-LIGAND FREE ENERGY PREDICTED BY IDOCK:   -7.88 KCAL/MOL
REMARK 924 INTRA-LIGAND FREE ENERGY PREDICTED BY IDOCK:   -2.20 KCAL/MOL
REMARK 927      BINDING AFFINITY PREDICTED BY RF-SCORE:    0.00 PKD
ROOT
HETATM    1  C   UNL     1     -12.298  12.026  63.619  1.00  0.00    -0.648 C  
HETATM    2  C   UNL     1     -12.530  13.156  64.601  1.00  0.00    -0.373 C  
ENDROOT
BRANCH   2   3
HETATM    3  O   UNL     1     -12.437  12.563  65.892  1.00  0.00    -0.596 OA 
BRANCH   3   4
HETATM    4  C   UNL     1     -11.376  12.850  66.680  1.00  0.00    -0.317 C  
HETATM    5  O   UNL     1     -10.640  13.816  66.568  1.00  0.00    -0.276 OA 
BRANCH   4   6
HETATM    6  C   UNL     1     -11.383  11.905  67.834  1.00  0.00    -0.358 C  
HETATM    7  C   UNL     1     -11.752  12.293  69.082  1.00  0.00    -0.323 C  
HETATM    8  C   UNL     1     -10.803   9.605  68.837  1.00  0.00    -0.201 C  
HETATM    9  N   UNL     1     -11.688  11.388  70.127  1.00  0.00    -0.331 NA 
HETATM   10  C   UNL     1     -11.164  10.112  70.042  1.00  0.00    -0.299 C  
HETATM   11  C   UNL     1     -10.943  10.458  67.558  1.00  0.00    -0.358 C  
HETATM   12  C   UNL     1     -11.032   9.388  71.360  1.00  0.00    -0.443 C  
BRANCH   7  13
HETATM   13  C   UNL     1     -12.321  13.661  69.448  1.00  0.00    -0.153 C  
BRANCH  13  14
HETATM   14  O   UNL     1     -11.528  14.332  70.430  1.00  0.00    -0.229 OA 
BRANCH  14  15
HETATM   15  C   UNL     1     -10.588  15.241  69.846  1.00  0.00    -0.276 C  
BRANCH  15  16
HETATM   16  C   UNL     1     -11.335  16.297  69.028  1.00  0.00    -0.301 C  
HETATM   17  N   UNL     1     -10.663  16.566  67.755  1.00  0.00    -0.337 NA 
HETATM   18  H2  UNL     1     -10.523  15.709  67.219  1.00  0.00     0.000 HD 
HETATM   19  H1  UNL     1     -11.161  17.270  67.209  1.00  0.00     0.000 HD 
ENDBRANCH  15  16
ENDBRANCH  14  15
ENDBRANCH  13  14
ENDBRANCH   7  13
BRANCH   8  20
HETATM   20  C   UNL     1     -10.214   8.240  68.766  1.00  0.00    -0.210 C  
HETATM   21  O   UNL     1     -10.807   7.248  68.365  1.00  0.00    -0.159 OA 
BRANCH  20  22
HETATM   22  O   UNL     1      -8.925   8.236  69.191  1.00  0.00    -0.146 OA 
HETATM   23  C   UNL     1      -8.083   7.359  68.435  1.00  0.00    -0.125 C  
ENDBRANCH  20  22
ENDBRANCH   8  20
BRANCH  11  24
HETATM   24  C   UNL     1      -9.708  10.369  66.639  1.00  0.00    -0.236 A  
HETATM   25  C   UNL     1      -9.880   9.764  65.372  1.00  0.00    -0.365 A  
HETATM   26  C   UNL     1      -8.808   9.609  64.491  1.00  0.00    -0.257 A  
HETATM   27  C   UNL     1      -7.545  10.058  64.855  1.00  0.00    -0.139 A  
HETATM   28  C   UNL     1      -7.358  10.680  66.089  1.00  0.00    -0.138 A  
HETATM   29  C   UNL     1      -8.431  10.842  66.974  1.00  0.00    -0.134 A  
HETATM   30 CL   UNL     1      -8.104  11.649  68.465  1.00  0.00    -0.148 Cl 
ENDBRANCH  11  24
ENDBRANCH   4   6
ENDBRANCH   3   4
ENDBRANCH   2   3
TORSDOF 10
ENDMDL
MODEL       17
REMARK 921   NORMALIZED FREE ENERGY PREDICTED BY IDOCK:   -5.22 KCAL/MOL
REMARK 922        TOTAL FREE ENERGY PREDICTED BY IDOCK:  -10.01 KCAL/MOL
REMARK 923 INTER-LIGAND FREE ENERGY PREDICTED BY IDOCK:   -8.49 KCAL/MOL
REMARK 924 INTRA-LIGAND FREE ENERGY PREDICTED BY IDOCK:   -1.52 KCAL/MOL
REMARK 927      BINDING AFFINITY PREDICTED BY RF-SCORE:    0.00 PKD
ROOT
HETATM    1  C   UNL     1      -9.623  10.400  63.061  1.00  0.00    -0.341 C  
HETATM    2  C   UNL     1     -10.479  11.189  64.030  1.00  0.00    -0.383 C  
ENDROOT
BRANCH   2   3
HETATM    3  O   UNL     1     -10.416  10.478  65.261  1.00  0.00    -0.262 OA 
BRANCH   3   4
HETATM    4  C   UNL     1      -9.512  10.850  66.197  1.00  0.00    -0.200 C  
HETATM    5  O   UNL     1      -8.345  11.137  65.993  1.00  0.00    -0.167 OA 
BRANCH   4   6
HETATM    6  C   UNL     1     -10.234  11.054  67.486  1.00  0.00    -0.219 C  
HETATM    7  C   UNL     1     -10.700  10.015  68.226  1.00  0.00    -0.240 C  
HETATM    8  C   UNL     1     -11.354  12.628  69.189  1.00  0.00    -0.339 C  
HETATM    9  N   UNL     1     -11.410  10.266  69.386  1.00  0.00    -0.237 NA 
HETATM   10  C   UNL     1     -11.798  11.517  69.826  1.00  0.00    -0.357 C  
HETATM   11  C   UNL     1     -10.442  12.506  67.950  1.00  0.00    -0.226 C  
HETATM   12  C   UNL     1     -12.726  11.514  71.017  1.00  0.00    -0.426 C  
BRANCH   7  13
HETATM   13  C   UNL     1     -10.447   8.539  67.930  1.00  0.00    -0.201 C  
BRANCH  13  14
HETATM   14  O   UNL     1     -10.152   7.793  69.113  1.00  0.00    -0.185 OA 
BRANCH  14  15
HETATM   15  C   UNL     1     -10.970   6.625  69.241  1.00  0.00    -0.295 C  
BRANCH  15  16
HETATM   16  C   UNL     1     -11.613   6.598  70.630  1.00  0.00    -0.382 C  
HETATM   17  N   UNL     1     -12.819   7.427  70.680  1.00  0.00    -0.540 NA 
HETATM   18  H2  UNL     1     -13.485   7.161  69.954  1.00  0.00     0.000 HD 
HETATM   19  H1  UNL     1     -13.248   7.409  71.605  1.00  0.00     0.000 HD 
ENDBRANCH  15  16
ENDBRANCH  14  15
ENDBRANCH  13  14
ENDBRANCH   7  13
BRANCH   8  20
HETATM   20  C   UNL     1     -11.804  13.968  69.658  1.00  0.00    -0.330 C  
HETATM   21  O   UNL     1     -12.974  14.318  69.740  1.00  0.00     0.007 OA 
BRANCH  20  22
HETATM   22  O   UNL     1     -10.749  14.752  69.997  1.00  0.00    -0.184 OA 
HETATM   23  C   UNL     1     -10.977  16.143  69.748  1.00  0.00    -0.349 C  
ENDBRANCH  20  22
ENDBRANCH   8  20
BRANCH  11  24
HETATM   24  C   UNL     1     -10.855  13.451  66.804  1.00  0.00    -0.286 A  
HETATM   25  C   UNL     1     -12.158  13.301  66.273  1.00  0.00    -0.472 A  
HETATM   26  C   UNL     1     -12.602  14.089  65.210  1.00  0.00    -0.495 A  
HETATM   27  C   UNL     1     -11.759  15.045  64.659  1.00  0.00    -0.383 A  
HETATM   28  C   UNL     1     -10.479  15.227  65.184  1.00  0.00    -0.438 A  
HETATM   29  C   UNL     1     -10.030  14.442  66.252  1.00  0.00    -0.306 A  
HETATM   30 CL   UNL     1      -8.441  14.763  66.849  1.00  0.00    -0.250 Cl 
ENDBRANCH  11  24
ENDBRANCH   4   6
ENDBRANCH   3   4
ENDBRANCH   2   3
TORSDOF 10
ENDMDL
MODEL       18
REMARK 921   NORMALIZED FREE ENERGY PREDICTED BY IDOCK:   -5.19 KCAL/MOL
REMARK 922        TOTAL FREE ENERGY PREDICTED BY IDOCK:   -9.95 KCAL/MOL
REMARK 923 INTER-LIGAND FREE ENERGY PREDICTED BY IDOCK:   -8.63 KCAL/MOL
REMARK 924 INTRA-LIGAND FREE ENERGY PREDICTED BY IDOCK:   -1.32 KCAL/MOL
REMARK 927      BINDING AFFINITY PREDICTED BY RF-SCORE:    0.00 PKD
ROOT
HETATM    1  C   UNL     1     -13.063   9.667  71.456  1.00  0.00    -0.488 C  
HETATM    2  C   UNL     1     -12.573  10.840  70.632  1.00  0.00    -0.357 C  
ENDROOT
BRANCH   2   3
HETATM    3  O   UNL     1     -12.078  10.275  69.423  1.00  0.00    -0.084 OA 
BRANCH   3   4
HETATM    4  C   UNL     1     -10.757  10.359  69.143  1.00  0.00    -0.234 C  
HETATM    5  O   UNL     1      -9.845  10.262  69.948  1.00  0.00    -0.211 OA 
BRANCH   4   6
HETATM    6  C   UNL     1     -10.594  10.378  67.661  1.00  0.00    -0.304 C  
HETATM    7  C   UNL     1      -9.962   9.381  66.991  1.00  0.00    -0.221 C  
HETATM    8  C   UNL     1     -10.795  11.616  65.411  1.00  0.00    -0.336 C  
HETATM    9  N   UNL     1      -9.792   9.477  65.621  1.00  0.00    -0.306 NA 
HETATM   10  C   UNL     1     -10.121  10.579  64.855  1.00  0.00    -0.333 C  
HETATM   11  C   UNL     1     -11.170  11.590  66.908  1.00  0.00    -0.363 C  
HETATM   12  C   UNL     1      -9.665  10.515  63.417  1.00  0.00    -0.368 C  
BRANCH   7  13
HETATM   13  C   UNL     1      -9.462   8.079  67.613  1.00  0.00    -0.145 C  
BRANCH  13  14
HETATM   14  O   UNL     1     -10.530   7.280  68.127  1.00  0.00    -0.194 OA 
BRANCH  14  15
HETATM   15  C   UNL     1     -11.234   6.578  67.097  1.00  0.00    -0.235 C  
BRANCH  15  16
HETATM   16  C   UNL     1     -10.536   5.246  66.813  1.00  0.00    -0.273 C  
HETATM   17  N   UNL     1     -10.987   4.660  65.549  1.00  0.00    -0.893 NA 
HETATM   18  H2  UNL     1     -10.873   5.314  64.774  1.00  0.00     0.000 HD 
HETATM   19  H1  UNL     1     -10.522   3.773  65.360  1.00  0.00     0.000 HD 
ENDBRANCH  15  16
ENDBRANCH  14  15
ENDBRANCH  13  14
ENDBRANCH   7  13
BRANCH   8  20
HETATM   20  C   UNL     1     -11.116  12.809  64.580  1.00  0.00    -0.318 C  
HETATM   21  O   UNL     1     -10.288  13.604  64.158  1.00  0.00    -0.315 OA 
BRANCH  20  22
HETATM   22  O   UNL     1     -12.449  12.896  64.337  1.00  0.00    -0.530 OA 
HETATM   23  C   UNL     1     -12.903  11.975  63.340  1.00  0.00    -0.291 C  
ENDBRANCH  20  22
ENDBRANCH   8  20
BRANCH  11  24
HETATM   24  C   UNL     1     -10.892  12.928  67.621  1.00  0.00    -0.252 A  
HETATM   25  C   UNL     1     -12.005  13.645  68.120  1.00  0.00    -0.390 A  
HETATM   26  C   UNL     1     -11.849  14.884  68.746  1.00  0.00    -0.328 A  
HETATM   27  C   UNL     1     -10.580  15.428  68.891  1.00  0.00    -0.244 A  
HETATM   28  C   UNL     1      -9.466  14.727  68.429  1.00  0.00    -0.213 A  
HETATM   29  C   UNL     1      -9.617  13.483  67.804  1.00  0.00    -0.219 A  
HETATM   30 CL   UNL     1      -8.176  12.681  67.293  1.00  0.00    -0.184 Cl 
ENDBRANCH  11  24
ENDBRANCH   4   6
ENDBRANCH   3   4
ENDBRANCH   2   3
TORSDOF 10
ENDMDL
MODEL       19
REMARK 921   NORMALIZED FREE ENERGY PREDICTED BY IDOCK:   -5.17 KCAL/MOL
REMARK 922        TOTAL FREE ENERGY PREDICTED BY IDOCK:   -9.92 KCAL/MOL
REMARK 923 INTER-LIGAND FREE ENERGY PREDICTED BY IDOCK:   -8.17 KCAL/MOL
REMARK 924 INTRA-LIGAND FREE ENERGY PREDICTED BY IDOCK:   -1.75 KCAL/MOL
REMARK 927      BINDING AFFINITY PREDICTED BY RF-SCORE:    0.00 PKD
ROOT
HETATM    1  C   UNL     1      -6.446  11.370  67.943  1.00  0.00    -0.058 C  
HETATM    2  C   UNL     1      -5.861  12.768  67.905  1.00  0.00    -0.117 C  
ENDROOT
BRANCH   2   3
HETATM    3  O   UNL     1      -6.820  13.562  67.215  1.00  0.00    -0.166 OA 
BRANCH   3   4
HETATM    4  C   UNL     1      -7.934  13.971  67.864  1.00  0.00    -0.158 C  
HETATM    5  O   UNL     1      -8.057  14.094  69.071  1.00  0.00    -0.078 OA 
BRANCH   4   6
HETATM    6  C   UNL     1      -8.917  14.447  66.848  1.00  0.00    -0.263 C  
HETATM    7  C   UNL     1      -9.042  15.759  66.523  1.00  0.00    -0.293 C  
HETATM    8  C   UNL     1     -10.910  13.981  65.284  1.00  0.00    -0.352 C  
HETATM    9  N   UNL     1     -10.008  16.150  65.613  1.00  0.00    -0.466 NA 
HETATM   10  C   UNL     1     -10.964  15.318  65.063  1.00  0.00    -0.437 C  
HETATM   11  C   UNL     1      -9.803  13.382  66.177  1.00  0.00    -0.289 C  
HETATM   12  C   UNL     1     -12.023  16.017  64.245  1.00  0.00     0.104 C  
BRANCH   7  13
HETATM   13  C   UNL     1      -8.140  16.882  67.028  1.00  0.00    -0.198 C  
BRANCH  13  14
HETATM   14  O   UNL     1      -8.873  17.895  67.721  1.00  0.00    -0.244 OA 
BRANCH  14  15
HETATM   15  C   UNL     1      -8.384  19.211  67.442  1.00  0.00    -0.281 C  
BRANCH  15  16
HETATM   16  C   UNL     1      -9.499  20.052  66.815  1.00  0.00    -0.406 C  
HETATM   17  N   UNL     1     -10.623  19.218  66.383  1.00  0.00    -0.449 NA 
HETATM   18  H2  UNL     1     -10.975  18.642  67.148  1.00  0.00     0.000 HD 
HETATM   19  H1  UNL     1     -11.366  19.778  65.965  1.00  0.00     0.000 HD 
ENDBRANCH  15  16
ENDBRANCH  14  15
ENDBRANCH  13  14
ENDBRANCH   7  13
BRANCH   8  20
HETATM   20  C   UNL     1     -11.964  13.102  64.708  1.00  0.00    -0.388 C  
HETATM   21  O   UNL     1     -12.998  12.790  65.282  1.00  0.00    -0.690 OA 
BRANCH  20  22
HETATM   22  O   UNL     1     -11.637  12.697  63.454  1.00  0.00    -0.490 OA 
HETATM   23  C   UNL     1     -10.518  11.805  63.422  1.00  0.00    -0.434 C  
ENDBRANCH  20  22
ENDBRANCH   8  20
BRANCH  11  24
HETATM   24  C   UNL     1     -10.336  12.331  67.170  1.00  0.00    -0.234 A  
HETATM   25  C   UNL     1      -9.914  10.992  66.991  1.00  0.00    -0.223 A  
HETATM   26  C   UNL     1     -10.377   9.968  67.821  1.00  0.00    -0.261 A  
HETATM   27  C   UNL     1     -11.264  10.261  68.849  1.00  0.00    -0.259 A  
HETATM   28  C   UNL     1     -11.673  11.578  69.059  1.00  0.00    -0.400 A  
HETATM   29  C   UNL     1     -11.209  12.609  68.233  1.00  0.00    -0.272 A  
HETATM   30 CL   UNL     1     -11.751  14.208  68.592  1.00  0.00    -0.364 Cl 
ENDBRANCH  11  24
ENDBRANCH   4   6
ENDBRANCH   3   4
ENDBRANCH   2   3
TORSDOF 10
ENDMDL
MODEL       20
REMARK 921   NORMALIZED FREE ENERGY PREDICTED BY IDOCK:   -5.16 KCAL/MOL
REMARK 922        TOTAL FREE ENERGY PREDICTED BY IDOCK:   -9.91 KCAL/MOL
REMARK 923 INTER-LIGAND FREE ENERGY PREDICTED BY IDOCK:   -8.37 KCAL/MOL
REMARK 924 INTRA-LIGAND FREE ENERGY PREDICTED BY IDOCK:   -1.55 KCAL/MOL
REMARK 927      BINDING AFFINITY PREDICTED BY RF-SCORE:    0.00 PKD
ROOT
HETATM    1  C   UNL     1     -12.344  12.649  65.198  1.00  0.00    -0.547 C  
HETATM    2  C   UNL     1     -11.954  13.101  66.592  1.00  0.00    -0.389 C  
ENDROOT
BRANCH   2   3
HETATM    3  O   UNL     1     -11.116  12.071  67.104  1.00  0.00    -0.257 OA 
BRANCH   3   4
HETATM    4  C   UNL     1     -10.500  12.249  68.295  1.00  0.00    -0.226 C  
HETATM    5  O   UNL     1      -9.655  13.092  68.547  1.00  0.00    -0.197 OA 
BRANCH   4   6
HETATM    6  C   UNL     1     -11.176  11.382  69.304  1.00  0.00    -0.342 C  
HETATM    7  C   UNL     1     -11.995  11.891  70.260  1.00  0.00    -0.330 C  
HETATM    8  C   UNL     1     -11.488   9.080  70.415  1.00  0.00    -0.202 C  
HETATM    9  N   UNL     1     -12.552  11.047  71.204  1.00  0.00    -0.400 NA 
HETATM   10  C   UNL     1     -12.261   9.703  71.339  1.00  0.00    -0.385 C  
HETATM   11  C   UNL     1     -10.900   9.871  69.227  1.00  0.00    -0.255 C  
HETATM   12  C   UNL     1     -12.851   9.043  72.561  1.00  0.00    -0.408 C  
BRANCH   7  13
HETATM   13  C   UNL     1     -12.436  13.349  70.357  1.00  0.00    -0.252 C  
BRANCH  13  14
HETATM   14  O   UNL     1     -12.707  13.744  71.705  1.00  0.00    -0.340 OA 
BRANCH  14  15
HETATM   15  C   UNL     1     -12.087  14.989  72.044  1.00  0.00    -0.379 C  
BRANCH  15  16
HETATM   16  C   UNL     1     -12.340  15.304  73.521  1.00  0.00    -0.536 C  
HETATM   17  N   UNL     1     -13.500  16.181  73.693  1.00  0.00    -0.894 NA 
HETATM   18  H2  UNL     1     -14.331  15.793  73.246  1.00  0.00     0.000 HD 
HETATM   19  H1  UNL     1     -13.668  16.390  74.677  1.00  0.00     0.000 HD 
ENDBRANCH  15  16
ENDBRANCH  14  15
ENDBRANCH  13  14
ENDBRANCH   7  13
BRANCH   8  20
HETATM   20  C   UNL     1     -11.159   7.639  70.590  1.00  0.00    -0.257 C  
HETATM   21  O   UNL     1     -10.459   7.190  71.488  1.00  0.00    -0.204 OA 
BRANCH  20  22
HETATM   22  O   UNL     1     -11.748   6.879  69.632  1.00  0.00    -0.157 OA 
HETATM   23  C   UNL     1     -10.852   5.942  69.025  1.00  0.00    -0.313 C  
ENDBRANCH  20  22
ENDBRANCH   8  20
BRANCH  11  24
HETATM   24  C   UNL     1      -9.418   9.542  68.961  1.00  0.00    -0.158 A  
HETATM   25  C   UNL     1      -8.491   9.832  69.989  1.00  0.00    -0.229 A  
HETATM   26  C   UNL     1      -7.124   9.601  69.820  1.00  0.00    -0.084 A  
HETATM   27  C   UNL     1      -6.657   9.071  68.624  1.00  0.00    -0.054 A  
HETATM   28  C   UNL     1      -7.556   8.754  67.606  1.00  0.00    -0.097 A  
HETATM   29  C   UNL     1      -8.928   8.980  67.772  1.00  0.00    -0.127 A  
HETATM   30 CL   UNL     1      -9.963   8.528  66.466  1.00  0.00    -0.349 Cl 
ENDBRANCH  11  24
ENDBRANCH   4   6
ENDBRANCH   3   4
ENDBRANCH   2   3
TORSDOF 10
ENDMDL
MODEL       21
REMARK 921   NORMALIZED FREE ENERGY PREDICTED BY IDOCK:   -5.12 KCAL/MOL
REMARK 922        TOTAL FREE ENERGY PREDICTED BY IDOCK:   -9.85 KCAL/MOL
REMARK 923 INTER-LIGAND FREE ENERGY PREDICTED BY IDOCK:   -7.80 KCAL/MOL
REMARK 924 INTRA-LIGAND FREE ENERGY PREDICTED BY IDOCK:   -2.04 KCAL/MOL
REMARK 927      BINDING AFFINITY PREDICTED BY RF-SCORE:    0.00 PKD
ROOT
HETATM    1  C   UNL     1      -6.501   9.830  66.453  1.00  0.00    -0.071 C  
HETATM    2  C   UNL     1      -7.457  10.592  65.557  1.00  0.00    -0.111 C  
ENDROOT
BRANCH   2   3
HETATM    3  O   UNL     1      -8.499  11.047  66.413  1.00  0.00    -0.154 OA 
BRANCH   3   4
HETATM    4  C   UNL     1      -9.732  10.502  66.305  1.00  0.00    -0.205 C  
HETATM    5  O   UNL     1     -10.069   9.641  65.509  1.00  0.00    -0.290 OA 
BRANCH   4   6
HETATM    6  C   UNL     1     -10.554  10.976  67.456  1.00  0.00    -0.266 C  
HETATM    7  C   UNL     1     -11.005  12.253  67.544  1.00  0.00    -0.254 C  
HETATM    8  C   UNL     1     -11.560  10.574  69.793  1.00  0.00    -0.368 C  
HETATM    9  N   UNL     1     -11.717  12.653  68.661  1.00  0.00    -0.309 NA 
HETATM   10  C   UNL     1     -11.930  11.879  69.786  1.00  0.00    -0.307 C  
HETATM   11  C   UNL     1     -10.869   9.952  68.560  1.00  0.00    -0.257 C  
HETATM   12  C   UNL     1     -12.571  12.602  70.945  1.00  0.00    -0.338 C  
BRANCH   7  13
HETATM   13  C   UNL     1     -10.860  13.316  66.458  1.00  0.00    -0.281 C  
BRANCH  13  14
HETATM   14  O   UNL     1     -12.105  13.613  65.821  1.00  0.00    -0.377 OA 
BRANCH  14  15
HETATM   15  C   UNL     1     -12.396  12.715  64.744  1.00  0.00    -0.489 C  
BRANCH  15  16
HETATM   16  C   UNL     1     -11.219  12.685  63.767  1.00  0.00    -0.463 C  
HETATM   17  N   UNL     1     -11.116  11.391  63.089  1.00  0.00    -0.843 NA 
HETATM   18  H2  UNL     1     -11.991  11.141  62.627  1.00  0.00     0.000 HD 
HETATM   19  H1  UNL     1     -10.332  11.371  62.437  1.00  0.00     0.000 HD 
ENDBRANCH  15  16
ENDBRANCH  14  15
ENDBRANCH  13  14
ENDBRANCH   7  13
BRANCH   8  20
HETATM   20  C   UNL     1     -11.770   9.762  71.022  1.00  0.00    -0.370 C  
HETATM   21  O   UNL     1     -10.924   9.579  71.887  1.00  0.00    -0.261 OA 
BRANCH  20  22
HETATM   22  O   UNL     1     -13.029   9.256  71.070  1.00  0.00    -0.243 OA 
HETATM   23  C   UNL     1     -13.612   9.314  72.376  1.00  0.00    -0.463 C  
ENDBRANCH  20  22
ENDBRANCH   8  20
BRANCH  11  24
HETATM   24  C   UNL     1      -9.658   9.074  68.930  1.00  0.00    -0.156 A  
HETATM   25  C   UNL     1      -8.601   9.687  69.642  1.00  0.00    -0.196 A  
HETATM   26  C   UNL     1      -7.449   8.976  69.986  1.00  0.00    -0.062 A  
HETATM   27  C   UNL     1      -7.332   7.638  69.631  1.00  0.00    -0.089 A  
HETATM   28  C   UNL     1      -8.374   7.007  68.951  1.00  0.00    -0.125 A  
HETATM   29  C   UNL     1      -9.532   7.714  68.608  1.00  0.00    -0.151 A  
HETATM   30 CL   UNL     1     -10.776   6.837  67.792  1.00  0.00    -0.304 Cl 
ENDBRANCH  11  24
ENDBRANCH   4   6
ENDBRANCH   3   4
ENDBRANCH   2   3
TORSDOF 10
ENDMDL
MODEL       22
REMARK 921   NORMALIZED FREE ENERGY PREDICTED BY IDOCK:   -5.12 KCAL/MOL
REMARK 922        TOTAL FREE ENERGY PREDICTED BY IDOCK:   -9.85 KCAL/MOL
REMARK 923 INTER-LIGAND FREE ENERGY PREDICTED BY IDOCK:   -8.46 KCAL/MOL
REMARK 924 INTRA-LIGAND FREE ENERGY PREDICTED BY IDOCK:   -1.39 KCAL/MOL
REMARK 927      BINDING AFFINITY PREDICTED BY RF-SCORE:    0.00 PKD
ROOT
HETATM    1  C   UNL     1     -11.939   9.656  71.346  1.00  0.00    -0.480 C  
HETATM    2  C   UNL     1     -10.553   9.745  70.740  1.00  0.00    -0.301 C  
ENDROOT
BRANCH   2   3
HETATM    3  O   UNL     1     -10.692  10.579  69.596  1.00  0.00    -0.237 OA 
BRANCH   3   4
HETATM    4  C   UNL     1      -9.604  10.854  68.839  1.00  0.00    -0.181 C  
HETATM    5  O   UNL     1      -8.441  10.766  69.195  1.00  0.00    -0.152 OA 
BRANCH   4   6
HETATM    6  C   UNL     1     -10.058  11.079  67.436  1.00  0.00    -0.216 C  
HETATM    7  C   UNL     1      -9.755  10.216  66.432  1.00  0.00    -0.205 C  
HETATM    8  C   UNL     1     -11.151  12.590  65.660  1.00  0.00    -0.338 C  
HETATM    9  N   UNL     1     -10.156  10.502  65.139  1.00  0.00    -0.310 NA 
HETATM   10  C   UNL     1     -10.764  11.675  64.737  1.00  0.00    -0.309 C  
HETATM   11  C   UNL     1     -10.886  12.345  67.161  1.00  0.00    -0.280 C  
HETATM   12  C   UNL     1     -10.931  11.828  63.245  1.00  0.00    -0.387 C  
BRANCH   7  13
HETATM   13  C   UNL     1      -9.050   8.873  66.607  1.00  0.00    -0.156 C  
BRANCH  13  14
HETATM   14  O   UNL     1      -9.899   7.769  66.285  1.00  0.00    -0.164 OA 
BRANCH  14  15
HETATM   15  C   UNL     1     -10.473   7.163  67.448  1.00  0.00    -0.284 C  
BRANCH  15  16
HETATM   16  C   UNL     1     -10.615   5.655  67.225  1.00  0.00    -0.254 C  
HETATM   17  N   UNL     1     -11.110   5.355  65.880  1.00  0.00    -0.769 NA 
HETATM   18  H2  UNL     1     -10.524   5.785  65.163  1.00  0.00     0.000 HD 
HETATM   19  H1  UNL     1     -11.204   4.351  65.731  1.00  0.00     0.000 HD 
ENDBRANCH  15  16
ENDBRANCH  14  15
ENDBRANCH  13  14
ENDBRANCH   7  13
BRANCH   8  20
HETATM   20  C   UNL     1     -11.779  13.863  65.209  1.00  0.00    -0.340 C  
HETATM   21  O   UNL     1     -12.959  14.146  65.362  1.00  0.00    -0.706 OA 
BRANCH  20  22
HETATM   22  O   UNL     1     -10.871  14.677  64.615  1.00  0.00    -0.385 OA 
HETATM   23  C   UNL     1     -10.971  16.040  65.040  1.00  0.00    -0.380 C  
ENDBRANCH  20  22
ENDBRANCH   8  20
BRANCH  11  24
HETATM   24  C   UNL     1     -10.339  13.591  67.886  1.00  0.00    -0.249 A  
HETATM   25  C   UNL     1      -9.118  14.133  67.420  1.00  0.00    -0.199 A  
HETATM   26  C   UNL     1      -8.531  15.237  68.041  1.00  0.00    -0.147 A  
HETATM   27  C   UNL     1      -9.153  15.826  69.134  1.00  0.00    -0.262 A  
HETATM   28  C   UNL     1     -10.371  15.324  69.594  1.00  0.00    -0.271 A  
HETATM   29  C   UNL     1     -10.966  14.219  68.973  1.00  0.00    -0.260 A  
HETATM   30 CL   UNL     1     -12.486  13.691  69.598  1.00  0.00    -0.238 Cl 
ENDBRANCH  11  24
ENDBRANCH   4   6
ENDBRANCH   3   4
ENDBRANCH   2   3
TORSDOF 10
ENDMDL
MODEL       23
REMARK 921   NORMALIZED FREE ENERGY PREDICTED BY IDOCK:   -5.10 KCAL/MOL
REMARK 922        TOTAL FREE ENERGY PREDICTED BY IDOCK:   -9.82 KCAL/MOL
REMARK 923 INTER-LIGAND FREE ENERGY PREDICTED BY IDOCK:   -7.97 KCAL/MOL
REMARK 924 INTRA-LIGAND FREE ENERGY PREDICTED BY IDOCK:   -1.85 KCAL/MOL
REMARK 927      BINDING AFFINITY PREDICTED BY RF-SCORE:    0.00 PKD
ROOT
HETATM    1  C   UNL     1     -11.320  10.686  70.030  1.00  0.00    -0.400 C  
HETATM    2  C   UNL     1     -12.346  11.382  69.160  1.00  0.00    -0.031 C  
ENDROOT
BRANCH   2   3
HETATM    3  O   UNL     1     -11.862  11.260  67.828  1.00  0.00    -0.610 OA 
BRANCH   3   4
HETATM    4  C   UNL     1     -11.074  12.233  67.316  1.00  0.00    -0.275 C  
HETATM    5  O   UNL     1     -10.768  13.275  67.871  1.00  0.00    -0.231 OA 
BRANCH   4   6
HETATM    6  C   UNL     1     -10.471  11.727  66.049  1.00  0.00    -0.286 C  
HETATM    7  C   UNL     1     -11.170  11.680  64.886  1.00  0.00    -0.222 C  
HETATM    8  C   UNL     1      -8.534  10.569  64.808  1.00  0.00    -0.150 C  
HETATM    9  N   UNL     1     -10.577  11.149  63.753  1.00  0.00    -0.372 NA 
HETATM   10  C   UNL     1      -9.337  10.543  63.714  1.00  0.00    -0.281 C  
HETATM   11  C   UNL     1      -9.012  11.245  66.111  1.00  0.00    -0.210 C  
HETATM   12  C   UNL     1      -8.993   9.876  62.405  1.00  0.00    -0.289 C  
BRANCH   7  13
HETATM   13  C   UNL     1     -12.574  12.240  64.677  1.00  0.00    -0.289 C  
BRANCH  13  14
HETATM   14  O   UNL     1     -12.555  13.550  64.103  1.00  0.00    -0.647 OA 
BRANCH  14  15
HETATM   15  C   UNL     1     -12.523  14.581  65.096  1.00  0.00    -0.284 C  
BRANCH  15  16
HETATM   16  C   UNL     1     -11.298  15.472  64.873  1.00  0.00    -0.335 C  
HETATM   17  N   UNL     1     -11.583  16.550  63.924  1.00  0.00    -1.578 NA 
HETATM   18  H2  UNL     1     -12.394  17.097  64.214  1.00  0.00     0.000 HD 
HETATM   19  H1  UNL     1     -10.767  17.144  63.776  1.00  0.00     0.000 HD 
ENDBRANCH  15  16
ENDBRANCH  14  15
ENDBRANCH  13  14
ENDBRANCH   7  13
BRANCH   8  20
HETATM   20  C   UNL     1      -7.212   9.887  64.760  1.00  0.00    -0.136 C  
HETATM   21  O   UNL     1      -6.134  10.464  64.730  1.00  0.00    -0.130 OA 
BRANCH  20  22
HETATM   22  O   UNL     1      -7.353   8.537  64.765  1.00  0.00    -0.086 OA 
HETATM   23  C   UNL     1      -6.479   7.882  65.689  1.00  0.00    -0.042 C  
ENDBRANCH  20  22
ENDBRANCH   8  20
BRANCH  11  24
HETATM   24  C   UNL     1      -8.707  10.408  67.368  1.00  0.00    -0.125 A  
HETATM   25  C   UNL     1      -7.874  10.989  68.353  1.00  0.00    -0.127 A  
HETATM   26  C   UNL     1      -7.516  10.287  69.507  1.00  0.00    -0.142 A  
HETATM   27  C   UNL     1      -7.986   8.995  69.702  1.00  0.00    -0.093 A  
HETATM   28  C   UNL     1      -8.829   8.412  68.756  1.00  0.00    -0.140 A  
HETATM   29  C   UNL     1      -9.194   9.112  67.600  1.00  0.00    -0.128 A  
HETATM   30 CL   UNL     1     -10.263   8.315  66.503  1.00  0.00    -0.332 Cl 
ENDBRANCH  11  24
ENDBRANCH   4   6
ENDBRANCH   3   4
ENDBRANCH   2   3
TORSDOF 10
ENDMDL
MODEL       24
REMARK 921   NORMALIZED FREE ENERGY PREDICTED BY IDOCK:   -5.07 KCAL/MOL
REMARK 922        TOTAL FREE ENERGY PREDICTED BY IDOCK:   -9.76 KCAL/MOL
REMARK 923 INTER-LIGAND FREE ENERGY PREDICTED BY IDOCK:   -7.92 KCAL/MOL
REMARK 924 INTRA-LIGAND FREE ENERGY PREDICTED BY IDOCK:   -1.84 KCAL/MOL
REMARK 927      BINDING AFFINITY PREDICTED BY RF-SCORE:    0.00 PKD
ROOT
HETATM    1  C   UNL     1     -12.279  12.668  63.451  1.00  0.00    -0.610 C  
HETATM    2  C   UNL     1     -11.054  11.785  63.568  1.00  0.00    -0.422 C  
ENDROOT
BRANCH   2   3
HETATM    3  O   UNL     1     -11.147  11.175  64.851  1.00  0.00    -0.187 OA 
BRANCH   3   4
HETATM    4  C   UNL     1     -10.179  11.406  65.768  1.00  0.00    -0.248 C  
HETATM    5  O   UNL     1      -8.978  11.423  65.555  1.00  0.00    -0.183 OA 
BRANCH   4   6
HETATM    6  C   UNL     1     -10.832  11.846  67.035  1.00  0.00    -0.303 C  
HETATM    7  C   UNL     1     -11.029  13.156  67.329  1.00  0.00    -0.268 C  
HETATM    8  C   UNL     1     -11.767  11.292  69.370  1.00  0.00    -0.409 C  
HETATM    9  N   UNL     1     -11.590  13.508  68.544  1.00  0.00    -0.309 NA 
HETATM   10  C   UNL     1     -11.884  12.629  69.568  1.00  0.00    -0.312 C  
HETATM   11  C   UNL     1     -11.274  10.744  68.013  1.00  0.00    -0.372 C  
HETATM   12  C   UNL     1     -12.313  13.278  70.862  1.00  0.00    -0.413 C  
BRANCH   7  13
HETATM   13  C   UNL     1     -10.745  14.323  66.387  1.00  0.00    -0.297 C  
BRANCH  13  14
HETATM   14  O   UNL     1     -11.255  15.561  66.889  1.00  0.00    -0.276 OA 
BRANCH  14  15
HETATM   15  C   UNL     1     -10.236  16.557  67.027  1.00  0.00    -0.288 C  
BRANCH  15  16
HETATM   16  C   UNL     1     -10.372  17.247  68.387  1.00  0.00    -0.366 C  
HETATM   17  N   UNL     1     -11.375  16.588  69.226  1.00  0.00    -0.260 NA 
HETATM   18  H2  UNL     1     -11.177  15.592  69.331  1.00  0.00     0.000 HD 
HETATM   19  H1  UNL     1     -11.465  17.048  70.132  1.00  0.00     0.000 HD 
ENDBRANCH  15  16
ENDBRANCH  14  15
ENDBRANCH  13  14
ENDBRANCH   7  13
BRANCH   8  20
HETATM   20  C   UNL     1     -12.059  10.359  70.492  1.00  0.00    -0.332 C  
HETATM   21  O   UNL     1     -11.214   9.887  71.240  1.00  0.00    -0.361 OA 
BRANCH  20  22
HETATM   22  O   UNL     1     -13.389  10.107  70.590  1.00  0.00    -0.310 OA 
HETATM   23  C   UNL     1     -13.716   9.204  71.652  1.00  0.00    -0.373 C  
ENDBRANCH  20  22
ENDBRANCH   8  20
BRANCH  11  24
HETATM   24  C   UNL     1     -10.232   9.619  68.163  1.00  0.00    -0.225 A  
HETATM   25  C   UNL     1     -10.633   8.308  67.811  1.00  0.00    -0.236 A  
HETATM   26  C   UNL     1      -9.765   7.222  67.951  1.00  0.00    -0.161 A  
HETATM   27  C   UNL     1      -8.480   7.424  68.438  1.00  0.00    -0.125 A  
HETATM   28  C   UNL     1      -8.057   8.711  68.768  1.00  0.00    -0.116 A  
HETATM   29  C   UNL     1      -8.921   9.804  68.626  1.00  0.00    -0.130 A  
HETATM   30 CL   UNL     1      -8.293  11.360  69.033  1.00  0.00    -0.032 Cl 
ENDBRANCH  11  24
ENDBRANCH   4   6
ENDBRANCH   3   4
ENDBRANCH   2   3
TORSDOF 10
ENDMDL
MODEL       25
REMARK 921   NORMALIZED FREE ENERGY PREDICTED BY IDOCK:   -5.00 KCAL/MOL
REMARK 922        TOTAL FREE ENERGY PREDICTED BY IDOCK:   -9.66 KCAL/MOL
REMARK 923 INTER-LIGAND FREE ENERGY PREDICTED BY IDOCK:   -7.77 KCAL/MOL
REMARK 924 INTRA-LIGAND FREE ENERGY PREDICTED BY IDOCK:   -1.89 KCAL/MOL
REMARK 927      BINDING AFFINITY PREDICTED BY RF-SCORE:    0.00 PKD
ROOT
HETATM    1  C   UNL     1     -12.556  12.252  63.585  1.00  0.00    -0.599 C  
HETATM    2  C   UNL     1     -12.204  13.658  64.027  1.00  0.00    -0.390 C  
ENDROOT
BRANCH   2   3
HETATM    3  O   UNL     1     -11.087  13.514  64.897  1.00  0.00    -0.318 OA 
BRANCH   3   4
HETATM    4  C   UNL     1     -11.225  13.812  66.210  1.00  0.00    -0.306 C  
HETATM    5  O   UNL     1     -12.275  14.039  66.787  1.00  0.00    -0.439 OA 
BRANCH   4   6
HETATM    6  C   UNL     1      -9.905  13.610  66.875  1.00  0.00    -0.261 C  
HETATM    7  C   UNL     1      -9.588  12.454  67.513  1.00  0.00    -0.185 C  
HETATM    8  C   UNL     1      -7.650  14.551  67.687  1.00  0.00    -0.198 C  
HETATM    9  N   UNL     1      -8.370  12.342  68.161  1.00  0.00    -0.172 NA 
HETATM   10  C   UNL     1      -7.456  13.366  68.317  1.00  0.00    -0.129 C  
HETATM   11  C   UNL     1      -8.906  14.778  66.819  1.00  0.00    -0.281 C  
HETATM   12  C   UNL     1      -6.291  13.048  69.222  1.00  0.00    -0.107 C  
BRANCH   7  13
HETATM   13  C   UNL     1     -10.446  11.192  67.529  1.00  0.00    -0.204 C  
BRANCH  13  14
HETATM   14  O   UNL     1     -10.646  10.657  66.218  1.00  0.00    -0.229 OA 
BRANCH  14  15
HETATM   15  C   UNL     1      -9.768   9.562  65.935  1.00  0.00    -0.282 C  
BRANCH  15  16
HETATM   16  C   UNL     1      -9.067   9.797  64.595  1.00  0.00    -0.245 C  
HETATM   17  N   UNL     1      -9.183  11.193  64.166  1.00  0.00    -0.360 NA 
HETATM   18  H2  UNL     1      -8.842  11.833  64.883  1.00  0.00     0.000 HD 
HETATM   19  H1  UNL     1      -8.716  11.350  63.273  1.00  0.00     0.000 HD 
ENDBRANCH  15  16
ENDBRANCH  14  15
ENDBRANCH  13  14
ENDBRANCH   7  13
BRANCH   8  20
HETATM   20  C   UNL     1      -6.671  15.654  67.888  1.00  0.00    -0.150 C  
HETATM   21  O   UNL     1      -5.853  16.018  67.054  1.00  0.00    -0.341 OA 
BRANCH  20  22
HETATM   22  O   UNL     1      -6.808  16.217  69.116  1.00  0.00    -0.176 OA 
HETATM   23  C   UNL     1      -6.634  17.638  69.108  1.00  0.00    -0.251 C  
ENDBRANCH  20  22
ENDBRANCH   8  20
BRANCH  11  24
HETATM   24  C   UNL     1      -9.567  16.148  67.065  1.00  0.00    -0.233 A  
HETATM   25  C   UNL     1      -9.633  17.046  65.974  1.00  0.00    -0.215 A  
HETATM   26  C   UNL     1     -10.181  18.323  66.117  1.00  0.00    -0.393 A  
HETATM   27  C   UNL     1     -10.679  18.726  67.349  1.00  0.00    -0.487 A  
HETATM   28  C   UNL     1     -10.646  17.848  68.432  1.00  0.00    -0.275 A  
HETATM   29  C   UNL     1     -10.102  16.566  68.293  1.00  0.00    -0.259 A  
HETATM   30 CL   UNL     1     -10.133  15.543  69.684  1.00  0.00    -0.281 Cl 
ENDBRANCH  11  24
ENDBRANCH   4   6
ENDBRANCH   3   4
ENDBRANCH   2   3
TORSDOF 10
ENDMDL
MODEL       26
REMARK 921   NORMALIZED FREE ENERGY PREDICTED BY IDOCK:   -4.99 KCAL/MOL
REMARK 922        TOTAL FREE ENERGY PREDICTED BY IDOCK:   -9.65 KCAL/MOL
REMARK 923 INTER-LIGAND FREE ENERGY PREDICTED BY IDOCK:   -8.67 KCAL/MOL
REMARK 924 INTRA-LIGAND FREE ENERGY PREDICTED BY IDOCK:   -0.98 KCAL/MOL
REMARK 927      BINDING AFFINITY PREDICTED BY RF-SCORE:    0.00 PKD
ROOT
HETATM    1  C   UNL     1     -10.777   6.147  66.853  1.00  0.00    -0.413 C  
HETATM    2  C   UNL     1      -9.747   7.224  66.580  1.00  0.00    -0.140 C  
ENDROOT
BRANCH   2   3
HETATM    3  O   UNL     1     -10.386   8.453  66.908  1.00  0.00    -0.292 OA 
BRANCH   3   4
HETATM    4  C   UNL     1      -9.756   9.333  67.720  1.00  0.00    -0.150 C  
HETATM    5  O   UNL     1      -8.641   9.797  67.547  1.00  0.00    -0.125 OA 
BRANCH   4   6
HETATM    6  C   UNL     1     -10.732   9.802  68.746  1.00  0.00    -0.243 C  
HETATM    7  C   UNL     1     -11.293  11.037  68.697  1.00  0.00    -0.281 C  
HETATM    8  C   UNL     1     -11.943   9.458  70.993  1.00  0.00    -0.389 C  
HETATM    9  N   UNL     1     -12.151  11.439  69.706  1.00  0.00    -0.322 NA 
HETATM   10  C   UNL     1     -12.417  10.722  70.856  1.00  0.00    -0.402 C  
HETATM   11  C   UNL     1     -11.076   8.825  69.883  1.00  0.00    -0.129 C  
HETATM   12  C   UNL     1     -13.235  11.455  71.891  1.00  0.00    -0.485 C  
BRANCH   7  13
HETATM   13  C   UNL     1     -11.122  12.039  67.558  1.00  0.00    -0.275 C  
BRANCH  13  14
HETATM   14  O   UNL     1     -12.132  11.896  66.556  1.00  0.00    -0.568 OA 
BRANCH  14  15
HETATM   15  C   UNL     1     -11.723  12.425  65.289  1.00  0.00    -0.390 C  
BRANCH  15  16
HETATM   16  C   UNL     1     -12.763  13.432  64.793  1.00  0.00    -0.250 C  
HETATM   17  N   UNL     1     -12.384  14.003  63.499  1.00  0.00    -1.118 NA 
HETATM   18  H2  UNL     1     -12.210  13.274  62.806  1.00  0.00     0.000 HD 
HETATM   19  H1  UNL     1     -13.077  14.674  63.167  1.00  0.00     0.000 HD 
ENDBRANCH  15  16
ENDBRANCH  14  15
ENDBRANCH  13  14
ENDBRANCH   7  13
BRANCH   8  20
HETATM   20  C   UNL     1     -12.215   8.708  72.250  1.00  0.00    -0.378 C  
HETATM   21  O   UNL     1     -11.354   8.333  73.034  1.00  0.00    -0.262 OA 
BRANCH  20  22
HETATM   22  O   UNL     1     -13.545   8.503  72.424  1.00  0.00    -0.333 OA 
HETATM   23  C   UNL     1     -14.089   7.534  71.522  1.00  0.00    -0.427 C  
ENDBRANCH  20  22
ENDBRANCH   8  20
BRANCH  11  24
HETATM   24  C   UNL     1      -9.843   8.083  70.435  1.00  0.00    -0.183 A  
HETATM   25  C   UNL     1      -8.755   8.870  70.881  1.00  0.00    -0.256 A  
HETATM   26  C   UNL     1      -7.583   8.281  71.361  1.00  0.00    -0.095 A  
HETATM   27  C   UNL     1      -7.476   6.897  71.410  1.00  0.00    -0.082 A  
HETATM   28  C   UNL     1      -8.546   6.103  70.999  1.00  0.00    -0.132 A  
HETATM   29  C   UNL     1      -9.725   6.688  70.521  1.00  0.00    -0.176 A  
HETATM   30 CL   UNL     1     -11.002   5.620  70.062  1.00  0.00    -0.376 Cl 
ENDBRANCH  11  24
ENDBRANCH   4   6
ENDBRANCH   3   4
ENDBRANCH   2   3
TORSDOF 10
ENDMDL
MODEL       27
REMARK 921   NORMALIZED FREE ENERGY PREDICTED BY IDOCK:   -4.97 KCAL/MOL
REMARK 922        TOTAL FREE ENERGY PREDICTED BY IDOCK:   -9.60 KCAL/MOL
REMARK 923 INTER-LIGAND FREE ENERGY PREDICTED BY IDOCK:   -8.18 KCAL/MOL
REMARK 924 INTRA-LIGAND FREE ENERGY PREDICTED BY IDOCK:   -1.43 KCAL/MOL
REMARK 927      BINDING AFFINITY PREDICTED BY RF-SCORE:    0.00 PKD
ROOT
HETATM    1  C   UNL     1     -13.675  13.471  72.280  1.00  0.00    -0.700 C  
HETATM    2  C   UNL     1     -13.196  12.054  72.038  1.00  0.00    -0.375 C  
ENDROOT
BRANCH   2   3
HETATM    3  O   UNL     1     -12.409  12.116  70.854  1.00  0.00    -0.373 OA 
BRANCH   3   4
HETATM    4  C   UNL     1     -12.328  11.029  70.053  1.00  0.00    -0.305 C  
HETATM    5  O   UNL     1     -13.263  10.342  69.678  1.00  0.00     0.118 OA 
BRANCH   4   6
HETATM    6  C   UNL     1     -10.932  10.935  69.535  1.00  0.00    -0.306 C  
HETATM    7  C   UNL     1     -10.533  11.589  68.415  1.00  0.00    -0.207 C  
HETATM    8  C   UNL     1      -8.591   9.864  69.614  1.00  0.00    -0.207 C  
HETATM    9  N   UNL     1      -9.240  11.422  67.948  1.00  0.00    -0.159 NA 
HETATM   10  C   UNL     1      -8.315  10.539  68.470  1.00  0.00    -0.129 C  
HETATM   11  C   UNL     1      -9.950  10.050  70.322  1.00  0.00    -0.184 C  
HETATM   12  C   UNL     1      -7.041  10.404  67.672  1.00  0.00    -0.085 C  
BRANCH   7  13
HETATM   13  C   UNL     1     -11.379  12.586  67.626  1.00  0.00    -0.306 C  
BRANCH  13  14
HETATM   14  O   UNL     1     -12.114  11.958  66.573  1.00  0.00    -0.568 OA 
BRANCH  14  15
HETATM   15  C   UNL     1     -11.487  12.121  65.296  1.00  0.00    -0.336 C  
BRANCH  15  16
HETATM   16  C   UNL     1     -12.557  12.309  64.218  1.00  0.00    -0.372 C  
HETATM   17  N   UNL     1     -12.248  11.535  63.014  1.00  0.00    -0.941 NA 
HETATM   18  H2  UNL     1     -12.106  10.548  63.230  1.00  0.00     0.000 HD 
HETATM   19  H1  UNL     1     -12.962  11.660  62.295  1.00  0.00     0.000 HD 
ENDBRANCH  15  16
ENDBRANCH  14  15
ENDBRANCH  13  14
ENDBRANCH   7  13
BRANCH   8  20
HETATM   20  C   UNL     1      -7.596   8.895  70.148  1.00  0.00    -0.074 C  
HETATM   21  O   UNL     1      -7.232   7.882  69.566  1.00  0.00    -0.076 OA 
BRANCH  20  22
HETATM   22  O   UNL     1      -7.130   9.284  71.362  1.00  0.00    -0.273 OA 
HETATM   23  C   UNL     1      -7.021   8.206  72.298  1.00  0.00    -0.089 C  
ENDBRANCH  20  22
ENDBRANCH   8  20
BRANCH  11  24
HETATM   24  C   UNL     1     -10.575   8.718  70.781  1.00  0.00    -0.269 A  
HETATM   25  C   UNL     1     -10.822   8.556  72.165  1.00  0.00    -0.427 A  
HETATM   26  C   UNL     1     -11.351   7.368  72.673  1.00  0.00    -0.360 A  
HETATM   27  C   UNL     1     -11.650   6.321  71.811  1.00  0.00    -0.358 A  
HETATM   28  C   UNL     1     -11.439   6.469  70.440  1.00  0.00    -0.465 A  
HETATM   29  C   UNL     1     -10.912   7.659  69.924  1.00  0.00    -0.200 A  
HETATM   30 CL   UNL     1     -10.714   7.755  68.212  1.00  0.00    -0.150 Cl 
ENDBRANCH  11  24
ENDBRANCH   4   6
ENDBRANCH   3   4
ENDBRANCH   2   3
TORSDOF 10
ENDMDL
MODEL       28
REMARK 921   NORMALIZED FREE ENERGY PREDICTED BY IDOCK:   -4.95 KCAL/MOL
REMARK 922        TOTAL FREE ENERGY PREDICTED BY IDOCK:   -9.58 KCAL/MOL
REMARK 923 INTER-LIGAND FREE ENERGY PREDICTED BY IDOCK:   -8.53 KCAL/MOL
REMARK 924 INTRA-LIGAND FREE ENERGY PREDICTED BY IDOCK:   -1.05 KCAL/MOL
REMARK 927      BINDING AFFINITY PREDICTED BY RF-SCORE:    0.00 PKD
ROOT
HETATM    1  C   UNL     1     -11.695  12.272  68.947  1.00  0.00    -0.380 C  
HETATM    2  C   UNL     1     -11.559  13.670  68.377  1.00  0.00    -0.342 C  
ENDROOT
BRANCH   2   3
HETATM    3  O   UNL     1     -10.160  13.884  68.228  1.00  0.00    -0.228 OA 
BRANCH   3   4
HETATM    4  C   UNL     1      -9.666  14.230  67.016  1.00  0.00    -0.253 C  
HETATM    5  O   UNL     1      -9.224  13.464  66.177  1.00  0.00    -0.128 OA 
BRANCH   4   6
HETATM    6  C   UNL     1      -9.947  15.678  66.795  1.00  0.00    -0.258 C  
HETATM    7  C   UNL     1     -10.659  16.120  65.726  1.00  0.00    -0.334 C  
HETATM    8  C   UNL     1      -9.566  18.146  67.424  1.00  0.00    -0.275 C  
HETATM    9  N   UNL     1     -10.842  17.479  65.540  1.00  0.00    -0.414 NA 
HETATM   10  C   UNL     1     -10.262  18.471  66.307  1.00  0.00    -0.418 C  
HETATM   11  C   UNL     1      -9.388  16.667  67.831  1.00  0.00    -0.221 C  
HETATM   12  C   UNL     1     -10.463  19.875  65.790  1.00  0.00    -0.518 C  
BRANCH   7  13
HETATM   13  C   UNL     1     -11.363  15.229  64.706  1.00  0.00    -0.391 C  
BRANCH  13  14
HETATM   14  O   UNL     1     -12.503  14.567  65.261  1.00  0.00    -0.369 OA 
BRANCH  14  15
HETATM   15  C   UNL     1     -12.493  13.158  65.009  1.00  0.00    -0.460 C  
BRANCH  15  16
HETATM   16  C   UNL     1     -11.841  12.882  63.652  1.00  0.00    -0.532 C  
HETATM   17  N   UNL     1     -12.286  11.604  63.092  1.00  0.00    -0.966 NA 
HETATM   18  H2  UNL     1     -13.303  11.557  63.033  1.00  0.00     0.000 HD 
HETATM   19  H1  UNL     1     -11.852  11.420  62.187  1.00  0.00     0.000 HD 
ENDBRANCH  15  16
ENDBRANCH  14  15
ENDBRANCH  13  14
ENDBRANCH   7  13
BRANCH   8  20
HETATM   20  C   UNL     1      -8.922  19.224  68.223  1.00  0.00    -0.335 C  
HETATM   21  O   UNL     1      -9.322  19.616  69.311  1.00  0.00    -0.275 OA 
BRANCH  20  22
HETATM   22  O   UNL     1      -7.822  19.713  67.596  1.00  0.00    -0.267 OA 
HETATM   23  C   UNL     1      -6.733  19.974  68.488  1.00  0.00    -0.307 C  
ENDBRANCH  20  22
ENDBRANCH   8  20
BRANCH  11  24
HETATM   24  C   UNL     1      -7.947  16.333  68.265  1.00  0.00    -0.166 A  
HETATM   25  C   UNL     1      -7.767  15.772  69.551  1.00  0.00    -0.166 A  
HETATM   26  C   UNL     1      -6.494  15.473  70.041  1.00  0.00    -0.105 A  
HETATM   27  C   UNL     1      -5.376  15.722  69.255  1.00  0.00    -0.106 A  
HETATM   28  C   UNL     1      -5.532  16.251  67.973  1.00  0.00    -0.119 A  
HETATM   29  C   UNL     1      -6.807  16.549  67.477  1.00  0.00    -0.148 A  
HETATM   30 CL   UNL     1      -6.897  17.174  65.869  1.00  0.00    -0.047 Cl 
ENDBRANCH  11  24
ENDBRANCH   4   6
ENDBRANCH   3   4
ENDBRANCH   2   3
TORSDOF 10
ENDMDL
MODEL       29
REMARK 921   NORMALIZED FREE ENERGY PREDICTED BY IDOCK:   -4.95 KCAL/MOL
REMARK 922        TOTAL FREE ENERGY PREDICTED BY IDOCK:   -9.57 KCAL/MOL
REMARK 923 INTER-LIGAND FREE ENERGY PREDICTED BY IDOCK:   -7.97 KCAL/MOL
REMARK 924 INTRA-LIGAND FREE ENERGY PREDICTED BY IDOCK:   -1.60 KCAL/MOL
REMARK 927      BINDING AFFINITY PREDICTED BY RF-SCORE:    0.00 PKD
ROOT
HETATM    1  C   UNL     1      -5.961  14.131  68.000  1.00  0.00    -0.146 C  
HETATM    2  C   UNL     1      -6.869  14.302  69.201  1.00  0.00    -0.120 C  
ENDROOT
BRANCH   2   3
HETATM    3  O   UNL     1      -7.726  15.391  68.878  1.00  0.00    -0.138 OA 
BRANCH   3   4
HETATM    4  C   UNL     1      -9.058  15.272  69.087  1.00  0.00    -0.236 C  
HETATM    5  O   UNL     1      -9.624  15.347  70.164  1.00  0.00    -0.140 OA 
BRANCH   4   6
HETATM    6  C   UNL     1      -9.738  15.247  67.759  1.00  0.00    -0.215 C  
HETATM    7  C   UNL     1     -10.173  16.379  67.149  1.00  0.00    -0.282 C  
HETATM    8  C   UNL     1     -10.810  13.922  65.828  1.00  0.00    -0.289 C  
HETATM    9  N   UNL     1     -10.846  16.291  65.943  1.00  0.00    -0.202 NA 
HETATM   10  C   UNL     1     -11.226  15.113  65.330  1.00  0.00    -0.358 C  
HETATM   11  C   UNL     1      -9.938  13.871  67.101  1.00  0.00    -0.239 C  
HETATM   12  C   UNL     1     -12.114  15.282  64.121  1.00  0.00    -0.146 C  
BRANCH   7  13
HETATM   13  C   UNL     1      -9.922  17.800  67.645  1.00  0.00    -0.322 C  
BRANCH  13  14
HETATM   14  O   UNL     1     -10.868  18.733  67.118  1.00  0.00    -0.421 OA 
BRANCH  14  15
HETATM   15  C   UNL     1     -10.247  19.767  66.347  1.00  0.00    -0.503 C  
BRANCH  15  16
HETATM   16  C   UNL     1      -9.463  20.699  67.274  1.00  0.00    -0.379 C  
HETATM   17  N   UNL     1      -8.092  20.900  66.800  1.00  0.00    -0.550 NA 
HETATM   18  H2  UNL     1      -8.076  21.234  65.835  1.00  0.00     0.000 HD 
HETATM   19  H1  UNL     1      -7.569  21.522  67.417  1.00  0.00     0.000 HD 
ENDBRANCH  15  16
ENDBRANCH  14  15
ENDBRANCH  13  14
ENDBRANCH   7  13
BRANCH   8  20
HETATM   20  C   UNL     1     -11.251  12.661  65.172  1.00  0.00    -0.301 C  
HETATM   21  O   UNL     1     -12.240  12.018  65.499  1.00  0.00    -0.483 OA 
BRANCH  20  22
HETATM   22  O   UNL     1     -10.423  12.319  64.153  1.00  0.00    -0.320 OA 
HETATM   23  C   UNL     1     -10.315  10.904  63.964  1.00  0.00    -0.349 C  
ENDBRANCH  20  22
ENDBRANCH   8  20
BRANCH  11  24
HETATM   24  C   UNL     1     -10.394  12.788  68.098  1.00  0.00    -0.243 A  
HETATM   25  C   UNL     1     -11.602  13.013  68.799  1.00  0.00    -0.350 A  
HETATM   26  C   UNL     1     -12.072  12.102  69.748  1.00  0.00    -0.306 A  
HETATM   27  C   UNL     1     -11.348  10.947  70.012  1.00  0.00    -0.386 A  
HETATM   28  C   UNL     1     -10.167  10.692  69.314  1.00  0.00    -0.235 A  
HETATM   29  C   UNL     1      -9.694  11.600  68.359  1.00  0.00    -0.199 A  
HETATM   30 CL   UNL     1      -8.239  11.181  67.530  1.00  0.00    -0.117 Cl 
ENDBRANCH  11  24
ENDBRANCH   4   6
ENDBRANCH   3   4
ENDBRANCH   2   3
TORSDOF 10
ENDMDL
MODEL       30
REMARK 921   NORMALIZED FREE ENERGY PREDICTED BY IDOCK:   -4.94 KCAL/MOL
REMARK 922        TOTAL FREE ENERGY PREDICTED BY IDOCK:   -9.56 KCAL/MOL
REMARK 923 INTER-LIGAND FREE ENERGY PREDICTED BY IDOCK:   -8.12 KCAL/MOL
REMARK 924 INTRA-LIGAND FREE ENERGY PREDICTED BY IDOCK:   -1.44 KCAL/MOL
REMARK 927      BINDING AFFINITY PREDICTED BY RF-SCORE:    0.00 PKD
ROOT
HETATM    1  C   UNL     1     -12.340  14.293  70.705  1.00  0.00    -0.431 C  
HETATM    2  C   UNL     1     -11.941  15.374  69.721  1.00  0.00    -0.358 C  
ENDROOT
BRANCH   2   3
HETATM    3  O   UNL     1     -11.583  14.688  68.527  1.00  0.00    -0.287 OA 
BRANCH   3   4
HETATM    4  C   UNL     1     -10.276  14.522  68.223  1.00  0.00    -0.234 C  
HETATM    5  O   UNL     1      -9.332  14.761  68.958  1.00  0.00    -0.206 OA 
BRANCH   4   6
HETATM    6  C   UNL     1     -10.188  13.800  66.920  1.00  0.00    -0.261 C  
HETATM    7  C   UNL     1     -10.568  14.374  65.750  1.00  0.00    -0.318 C  
HETATM    8  C   UNL     1      -9.770  11.631  65.597  1.00  0.00    -0.262 C  
HETATM    9  N   UNL     1     -10.517  13.638  64.579  1.00  0.00    -0.435 NA 
HETATM   10  C   UNL     1     -10.205  12.295  64.497  1.00  0.00    -0.296 C  
HETATM   11  C   UNL     1      -9.651  12.359  66.952  1.00  0.00    -0.219 C  
HETATM   12  C   UNL     1     -10.402  11.677  63.134  1.00  0.00    -0.383 C  
BRANCH   7  13
HETATM   13  C   UNL     1     -10.998  15.829  65.580  1.00  0.00    -0.268 C  
BRANCH  13  14
HETATM   14  O   UNL     1      -9.881  16.710  65.436  1.00  0.00    -0.538 OA 
BRANCH  14  15
HETATM   15  C   UNL     1      -9.838  17.709  66.460  1.00  0.00    -0.319 C  
BRANCH  15  16
HETATM   16  C   UNL     1     -10.616  18.946  66.004  1.00  0.00    -0.403 C  
HETATM   17  N   UNL     1      -9.763  20.136  65.970  1.00  0.00    -0.611 NA 
HETATM   18  H2  UNL     1      -8.934  19.984  65.394  1.00  0.00     0.000 HD 
HETATM   19  H1  UNL     1     -10.281  20.960  65.666  1.00  0.00     0.000 HD 
ENDBRANCH  15  16
ENDBRANCH  14  15
ENDBRANCH  13  14
ENDBRANCH   7  13
BRANCH   8  20
HETATM   20  C   UNL     1      -9.466  10.177  65.499  1.00  0.00    -0.230 C  
HETATM   21  O   UNL     1     -10.272   9.283  65.716  1.00  0.00    -0.187 OA 
BRANCH  20  22
HETATM   22  O   UNL     1      -8.178   9.967  65.124  1.00  0.00    -0.131 OA 
HETATM   23  C   UNL     1      -7.675   8.688  65.524  1.00  0.00    -0.092 C  
ENDBRANCH  20  22
ENDBRANCH   8  20
BRANCH  11  24
HETATM   24  C   UNL     1     -10.210  11.535  68.128  1.00  0.00    -0.205 A  
HETATM   25  C   UNL     1     -11.615  11.500  68.290  1.00  0.00    -0.378 A  
HETATM   26  C   UNL     1     -12.206  10.808  69.350  1.00  0.00    -0.242 A  
HETATM   27  C   UNL     1     -11.407  10.133  70.264  1.00  0.00    -0.387 A  
HETATM   28  C   UNL     1     -10.021  10.133  70.109  1.00  0.00    -0.154 A  
HETATM   29  C   UNL     1      -9.424  10.822  69.046  1.00  0.00    -0.166 A  
HETATM   30 CL   UNL     1      -7.704  10.738  68.924  1.00  0.00    -0.120 Cl 
ENDBRANCH  11  24
ENDBRANCH   4   6
ENDBRANCH   3   4
ENDBRANCH   2   3
TORSDOF 10
ENDMDL
MODEL       31
REMARK 921   NORMALIZED FREE ENERGY PREDICTED BY IDOCK:   -4.94 KCAL/MOL
REMARK 922        TOTAL FREE ENERGY PREDICTED BY IDOCK:   -9.56 KCAL/MOL
REMARK 923 INTER-LIGAND FREE ENERGY PREDICTED BY IDOCK:   -7.63 KCAL/MOL
REMARK 924 INTRA-LIGAND FREE ENERGY PREDICTED BY IDOCK:   -1.93 KCAL/MOL
REMARK 927      BINDING AFFINITY PREDICTED BY RF-SCORE:    0.00 PKD
ROOT
HETATM    1  C   UNL     1     -11.011  16.312  69.772  1.00  0.00    -0.354 C  
HETATM    2  C   UNL     1     -10.733  17.205  68.579  1.00  0.00    -0.326 C  
ENDROOT
BRANCH   2   3
HETATM    3  O   UNL     1     -10.934  16.383  67.434  1.00  0.00    -0.263 OA 
BRANCH   3   4
HETATM    4  C   UNL     1     -10.008  16.380  66.448  1.00  0.00    -0.303 C  
HETATM    5  O   UNL     1      -9.977  17.134  65.490  1.00  0.00    -0.565 OA 
BRANCH   4   6
HETATM    6  C   UNL     1      -8.914  15.443  66.839  1.00  0.00    -0.273 C  
HETATM    7  C   UNL     1      -7.621  15.845  66.941  1.00  0.00    -0.219 C  
HETATM    8  C   UNL     1      -8.097  13.051  67.332  1.00  0.00    -0.180 C  
HETATM    9  N   UNL     1      -6.640  14.921  67.254  1.00  0.00    -0.282 NA 
HETATM   10  C   UNL     1      -6.840  13.559  67.373  1.00  0.00    -0.050 C  
HETATM   11  C   UNL     1      -9.309  13.983  67.119  1.00  0.00    -0.244 C  
HETATM   12  C   UNL     1      -5.581  12.741  67.532  1.00  0.00    -0.104 C  
BRANCH   7  13
HETATM   13  C   UNL     1      -7.133  17.285  66.808  1.00  0.00    -0.212 C  
BRANCH  13  14
HETATM   14  O   UNL     1      -7.513  18.091  67.926  1.00  0.00    -0.214 OA 
BRANCH  14  15
HETATM   15  C   UNL     1      -7.435  19.492  67.642  1.00  0.00    -0.256 C  
BRANCH  15  16
HETATM   16  C   UNL     1      -8.846  20.079  67.558  1.00  0.00    -0.345 C  
HETATM   17  N   UNL     1      -9.316  20.151  66.173  1.00  0.00    -0.590 NA 
HETATM   18  H2  UNL     1      -9.263  19.242  65.713  1.00  0.00     0.000 HD 
HETATM   19  H1  UNL     1     -10.257  20.542  66.117  1.00  0.00     0.000 HD 
ENDBRANCH  15  16
ENDBRANCH  14  15
ENDBRANCH  13  14
ENDBRANCH   7  13
BRANCH   8  20
HETATM   20  C   UNL     1      -8.294  11.579  67.433  1.00  0.00    -0.148 C  
HETATM   21  O   UNL     1      -8.073  10.786  66.528  1.00  0.00    -0.134 OA 
BRANCH  20  22
HETATM   22  O   UNL     1      -8.739  11.224  68.665  1.00  0.00    -0.154 OA 
HETATM   23  C   UNL     1      -7.843  10.351  69.359  1.00  0.00    -0.161 C  
ENDBRANCH  20  22
ENDBRANCH   8  20
BRANCH  11  24
HETATM   24  C   UNL     1     -10.322  13.427  66.098  1.00  0.00    -0.295 A  
HETATM   25  C   UNL     1      -9.884  13.275  64.762  1.00  0.00    -0.028 A  
HETATM   26  C   UNL     1     -10.746  12.814  63.764  1.00  0.00    -0.397 A  
HETATM   27  C   UNL     1     -12.058  12.490  64.082  1.00  0.00    -0.530 A  
HETATM   28  C   UNL     1     -12.504  12.609  65.398  1.00  0.00    -0.421 A  
HETATM   29  C   UNL     1     -11.643  13.067  66.403  1.00  0.00    -0.363 A  
HETATM   30 CL   UNL     1     -12.281  13.152  68.005  1.00  0.00    -0.213 Cl 
ENDBRANCH  11  24
ENDBRANCH   4   6
ENDBRANCH   3   4
ENDBRANCH   2   3
TORSDOF 10
ENDMDL
MODEL       32
REMARK 921   NORMALIZED FREE ENERGY PREDICTED BY IDOCK:   -4.92 KCAL/MOL
REMARK 922        TOTAL FREE ENERGY PREDICTED BY IDOCK:   -9.54 KCAL/MOL
REMARK 923 INTER-LIGAND FREE ENERGY PREDICTED BY IDOCK:   -8.13 KCAL/MOL
REMARK 924 INTRA-LIGAND FREE ENERGY PREDICTED BY IDOCK:   -1.40 KCAL/MOL
REMARK 927      BINDING AFFINITY PREDICTED BY RF-SCORE:    0.00 PKD
ROOT
HETATM    1  C   UNL     1      -9.756  10.616  63.040  1.00  0.00    -0.362 C  
HETATM    2  C   UNL     1      -8.924   9.737  63.952  1.00  0.00    -0.243 C  
ENDROOT
BRANCH   2   3
HETATM    3  O   UNL     1      -9.606   9.731  65.201  1.00  0.00    -0.273 OA 
BRANCH   3   4
HETATM    4  C   UNL     1      -9.189  10.557  66.188  1.00  0.00    -0.170 C  
HETATM    5  O   UNL     1      -8.259  11.342  66.122  1.00  0.00    -0.140 OA 
BRANCH   4   6
HETATM    6  C   UNL     1     -10.187  10.500  67.296  1.00  0.00    -0.260 C  
HETATM    7  C   UNL     1     -11.244  11.349  67.360  1.00  0.00    -0.305 C  
HETATM    8  C   UNL     1     -10.935   9.568  69.577  1.00  0.00    -0.217 C  
HETATM    9  N   UNL     1     -12.108  11.287  68.440  1.00  0.00    -0.609 NA 
HETATM   10  C   UNL     1     -11.933  10.486  69.552  1.00  0.00    -0.186 C  
HETATM   11  C   UNL     1      -9.968   9.433  68.382  1.00  0.00    -0.191 C  
HETATM   12  C   UNL     1     -12.908  10.736  70.677  1.00  0.00    -0.377 C  
BRANCH   7  13
HETATM   13  C   UNL     1     -11.630  12.360  66.283  1.00  0.00    -0.393 C  
BRANCH  13  14
HETATM   14  O   UNL     1     -10.643  13.381  66.120  1.00  0.00    -0.285 OA 
BRANCH  14  15
HETATM   15  C   UNL     1     -10.704  14.000  64.831  1.00  0.00    -0.418 C  
BRANCH  15  16
HETATM   16  C   UNL     1     -10.887  15.511  64.994  1.00  0.00    -0.450 C  
HETATM   17  N   UNL     1     -11.606  16.092  63.858  1.00  0.00    -1.469 NA 
HETATM   18  H2  UNL     1     -12.499  15.623  63.703  1.00  0.00     0.000 HD 
HETATM   19  H1  UNL     1     -11.728  17.099  63.967  1.00  0.00     0.000 HD 
ENDBRANCH  15  16
ENDBRANCH  14  15
ENDBRANCH  13  14
ENDBRANCH   7  13
BRANCH   8  20
HETATM   20  C   UNL     1     -10.742   8.733  70.795  1.00  0.00    -0.228 C  
HETATM   21  O   UNL     1     -10.078   9.066  71.767  1.00  0.00    -0.326 OA 
BRANCH  20  22
HETATM   22  O   UNL     1     -11.408   7.555  70.695  1.00  0.00    -0.279 OA 
HETATM   23  C   UNL     1     -10.591   6.417  70.990  1.00  0.00    -0.234 C  
ENDBRANCH  20  22
ENDBRANCH   8  20
BRANCH  11  24
HETATM   24  C   UNL     1      -8.493   9.309  68.814  1.00  0.00    -0.129 A  
HETATM   25  C   UNL     1      -7.906  10.423  69.458  1.00  0.00    -0.161 A  
HETATM   26  C   UNL     1      -6.565  10.411  69.850  1.00  0.00    -0.124 A  
HETATM   27  C   UNL     1      -5.787   9.286  69.612  1.00  0.00    -0.033 A  
HETATM   28  C   UNL     1      -6.352   8.167  69.001  1.00  0.00    -0.040 A  
HETATM   29  C   UNL     1      -7.696   8.172  68.610  1.00  0.00    -0.112 A  
HETATM   30 CL   UNL     1      -8.310   6.728  67.888  1.00  0.00    -0.120 Cl 
ENDBRANCH  11  24
ENDBRANCH   4   6
ENDBRANCH   3   4
ENDBRANCH   2   3
TORSDOF 10
ENDMDL
MODEL       33
REMARK 921   NORMALIZED FREE ENERGY PREDICTED BY IDOCK:   -4.90 KCAL/MOL
REMARK 922        TOTAL FREE ENERGY PREDICTED BY IDOCK:   -9.50 KCAL/MOL
REMARK 923 INTER-LIGAND FREE ENERGY PREDICTED BY IDOCK:   -8.05 KCAL/MOL
REMARK 924 INTRA-LIGAND FREE ENERGY PREDICTED BY IDOCK:   -1.46 KCAL/MOL
REMARK 927      BINDING AFFINITY PREDICTED BY RF-SCORE:    0.00 PKD
ROOT
HETATM    1  C   UNL     1     -13.198  12.626  71.892  1.00  0.00    -0.504 C  
HETATM    2  C   UNL     1     -12.370  12.863  70.645  1.00  0.00    -0.302 C  
ENDROOT
BRANCH   2   3
HETATM    3  O   UNL     1     -11.891  11.580  70.259  1.00  0.00    -0.336 OA 
BRANCH   3   4
HETATM    4  C   UNL     1     -11.603  11.342  68.958  1.00  0.00    -0.317 C  
HETATM    5  O   UNL     1     -12.410  11.278  68.046  1.00  0.00    -0.432 OA 
BRANCH   4   6
HETATM    6  C   UNL     1     -10.121  11.384  68.793  1.00  0.00    -0.199 C  
HETATM    7  C   UNL     1      -9.501  12.361  68.084  1.00  0.00    -0.214 C  
HETATM    8  C   UNL     1      -7.813  10.278  69.082  1.00  0.00    -0.127 C  
HETATM    9  N   UNL     1      -8.128  12.320  67.917  1.00  0.00    -0.144 NA 
HETATM   10  C   UNL     1      -7.308  11.286  68.328  1.00  0.00    -0.095 C  
HETATM   11  C   UNL     1      -9.310  10.259  69.459  1.00  0.00    -0.200 C  
HETATM   12  C   UNL     1      -5.876  11.386  67.864  1.00  0.00    -0.044 C  
BRANCH   7  13
HETATM   13  C   UNL     1     -10.186  13.588  67.487  1.00  0.00    -0.234 C  
BRANCH  13  14
HETATM   14  O   UNL     1     -10.132  13.597  66.058  1.00  0.00    -0.298 OA 
BRANCH  14  15
HETATM   15  C   UNL     1     -11.226  14.312  65.474  1.00  0.00    -0.320 C  
BRANCH  15  16
HETATM   16  C   UNL     1     -10.762  15.708  65.052  1.00  0.00    -0.436 C  
HETATM   17  N   UNL     1     -11.552  16.222  63.931  1.00  0.00    -1.573 NA 
HETATM   18  H2  UNL     1     -12.551  16.208  64.142  1.00  0.00     0.000 HD 
HETATM   19  H1  UNL     1     -11.243  17.152  63.651  1.00  0.00     0.000 HD 
ENDBRANCH  15  16
ENDBRANCH  14  15
ENDBRANCH  13  14
ENDBRANCH   7  13
BRANCH   8  20
HETATM   20  C   UNL     1      -6.924   9.157  69.492  1.00  0.00    -0.051 C  
HETATM   21  O   UNL     1      -6.593   8.232  68.763  1.00  0.00    -0.051 OA 
BRANCH  20  22
HETATM   22  O   UNL     1      -6.515   9.297  70.778  1.00  0.00    -0.062 OA 
HETATM   23  C   UNL     1      -5.279   8.630  71.054  1.00  0.00    -0.028 C  
ENDBRANCH  20  22
ENDBRANCH   8  20
BRANCH  11  24
HETATM   24  C   UNL     1      -9.955   8.870  69.288  1.00  0.00    -0.192 A  
HETATM   25  C   UNL     1      -9.992   8.324  67.983  1.00  0.00    -0.224 A  
HETATM   26  C   UNL     1     -10.590   7.088  67.730  1.00  0.00    -0.298 A  
HETATM   27  C   UNL     1     -11.158   6.370  68.775  1.00  0.00    -0.404 A  
HETATM   28  C   UNL     1     -11.111   6.877  70.073  1.00  0.00    -0.344 A  
HETATM   29  C   UNL     1     -10.508   8.114  70.332  1.00  0.00    -0.215 A  
HETATM   30 CL   UNL     1     -10.475   8.643  71.976  1.00  0.00    -0.405 Cl 
ENDBRANCH  11  24
ENDBRANCH   4   6
ENDBRANCH   3   4
ENDBRANCH   2   3
TORSDOF 10
ENDMDL
MODEL       34
REMARK 921   NORMALIZED FREE ENERGY PREDICTED BY IDOCK:   -4.89 KCAL/MOL
REMARK 922        TOTAL FREE ENERGY PREDICTED BY IDOCK:   -9.48 KCAL/MOL
REMARK 923 INTER-LIGAND FREE ENERGY PREDICTED BY IDOCK:   -7.96 KCAL/MOL
REMARK 924 INTRA-LIGAND FREE ENERGY PREDICTED BY IDOCK:   -1.52 KCAL/MOL
REMARK 927      BINDING AFFINITY PREDICTED BY RF-SCORE:    0.00 PKD
ROOT
HETATM    1  C   UNL     1      -8.998  14.374  67.550  1.00  0.00    -0.192 C  
HETATM    2  C   UNL     1      -9.499  12.969  67.283  1.00  0.00    -0.224 C  
ENDROOT
BRANCH   2   3
HETATM    3  O   UNL     1     -10.446  12.702  68.311  1.00  0.00    -0.226 OA 
BRANCH   3   4
HETATM    4  C   UNL     1     -11.510  11.910  68.045  1.00  0.00    -0.323 C  
HETATM    5  O   UNL     1     -12.155  11.899  67.010  1.00  0.00    -0.600 OA 
BRANCH   4   6
HETATM    6  C   UNL     1     -11.629  10.906  69.142  1.00  0.00    -0.389 C  
HETATM    7  C   UNL     1     -12.031  11.249  70.393  1.00  0.00    -0.380 C  
HETATM    8  C   UNL     1     -11.242   8.522  70.036  1.00  0.00    -0.086 C  
HETATM    9  N   UNL     1     -12.071  10.286  71.387  1.00  0.00    -0.377 NA 
HETATM   10  C   UNL     1     -11.625   8.985  71.251  1.00  0.00    -0.317 C  
HETATM   11  C   UNL     1     -11.269   9.450  68.802  1.00  0.00     0.112 C  
HETATM   12  C   UNL     1     -11.600   8.184  72.530  1.00  0.00    -0.468 C  
BRANCH   7  13
HETATM   13  C   UNL     1     -12.529  12.629  70.812  1.00  0.00    -0.270 C  
BRANCH  13  14
HETATM   14  O   UNL     1     -13.339  12.578  71.990  1.00  0.00    -0.502 OA 
BRANCH  14  15
HETATM   15  C   UNL     1     -13.777  13.876  72.409  1.00  0.00    -0.576 C  
BRANCH  15  16
HETATM   16  C   UNL     1     -13.499  14.895  71.301  1.00  0.00    -0.430 C  
HETATM   17  N   UNL     1     -12.744  16.044  71.804  1.00  0.00    -0.514 NA 
HETATM   18  H2  UNL     1     -11.882  15.751  72.266  1.00  0.00     0.000 HD 
HETATM   19  H1  UNL     1     -12.558  16.723  71.066  1.00  0.00     0.000 HD 
ENDBRANCH  15  16
ENDBRANCH  14  15
ENDBRANCH  13  14
ENDBRANCH   7  13
BRANCH   8  20
HETATM   20  C   UNL     1     -10.736   7.127  69.912  1.00  0.00    -0.239 C  
HETATM   21  O   UNL     1     -11.357   6.208  69.395  1.00  0.00    -0.420 OA 
BRANCH  20  22
HETATM   22  O   UNL     1      -9.490   7.006  70.435  1.00  0.00    -0.162 OA 
HETATM   23  C   UNL     1      -8.614   6.212  69.629  1.00  0.00    -0.128 C  
ENDBRANCH  20  22
ENDBRANCH   8  20
BRANCH  11  24
HETATM   24  C   UNL     1     -10.001   9.331  67.934  1.00  0.00    -0.228 A  
HETATM   25  C   UNL     1     -10.160   8.867  66.607  1.00  0.00    -0.357 A  
HETATM   26  C   UNL     1      -9.062   8.693  65.762  1.00  0.00    -0.242 A  
HETATM   27  C   UNL     1      -7.785   8.985  66.222  1.00  0.00    -0.095 A  
HETATM   28  C   UNL     1      -7.607   9.468  67.519  1.00  0.00    -0.095 A  
HETATM   29  C   UNL     1      -8.705   9.648  68.368  1.00  0.00    -0.120 A  
HETATM   30 CL   UNL     1      -8.384  10.277  69.944  1.00  0.00    -0.110 Cl 
ENDBRANCH  11  24
ENDBRANCH   4   6
ENDBRANCH   3   4
ENDBRANCH   2   3
TORSDOF 10
ENDMDL
MODEL       35
REMARK 921   NORMALIZED FREE ENERGY PREDICTED BY IDOCK:   -4.88 KCAL/MOL
REMARK 922        TOTAL FREE ENERGY PREDICTED BY IDOCK:   -9.48 KCAL/MOL
REMARK 923 INTER-LIGAND FREE ENERGY PREDICTED BY IDOCK:   -8.24 KCAL/MOL
REMARK 924 INTRA-LIGAND FREE ENERGY PREDICTED BY IDOCK:   -1.23 KCAL/MOL
REMARK 927      BINDING AFFINITY PREDICTED BY RF-SCORE:    0.00 PKD
ROOT
HETATM    1  C   UNL     1      -9.069   7.004  69.815  1.00  0.00    -0.144 C  
HETATM    2  C   UNL     1      -8.629   7.765  68.582  1.00  0.00    -0.129 C  
ENDROOT
BRANCH   2   3
HETATM    3  O   UNL     1      -9.162   9.075  68.733  1.00  0.00    -0.133 OA 
BRANCH   3   4
HETATM    4  C   UNL     1     -10.294   9.412  68.072  1.00  0.00    -0.220 C  
HETATM    5  O   UNL     1     -11.030   8.645  67.473  1.00  0.00    -0.111 OA 
BRANCH   4   6
HETATM    6  C   UNL     1     -10.604  10.839  68.375  1.00  0.00    -0.228 C  
HETATM    7  C   UNL     1     -11.455  11.197  69.370  1.00  0.00    -0.298 C  
HETATM    8  C   UNL     1     -10.440  13.335  67.763  1.00  0.00    -0.242 C  
HETATM    9  N   UNL     1     -11.749  12.535  69.571  1.00  0.00    -0.306 NA 
HETATM   10  C   UNL     1     -11.327  13.571  68.761  1.00  0.00    -0.290 C  
HETATM   11  C   UNL     1      -9.920  11.905  67.502  1.00  0.00    -0.197 C  
HETATM   12  C   UNL     1     -11.934  14.916  69.079  1.00  0.00    -0.307 C  
BRANCH   7  13
HETATM   13  C   UNL     1     -12.092  10.239  70.373  1.00  0.00    -0.286 C  
BRANCH  13  14
HETATM   14  O   UNL     1     -11.137   9.706  71.294  1.00  0.00    -0.346 OA 
BRANCH  14  15
HETATM   15  C   UNL     1     -11.718   8.758  72.196  1.00  0.00    -0.363 C  
BRANCH  15  16
HETATM   16  C   UNL     1     -13.222   8.652  71.933  1.00  0.00    -0.375 C  
HETATM   17  N   UNL     1     -14.002   9.004  73.121  1.00  0.00    -1.215 NA 
HETATM   18  H2  UNL     1     -13.749   9.928  73.473  1.00  0.00     0.000 HD 
HETATM   19  H1  UNL     1     -15.004   8.933  72.946  1.00  0.00     0.000 HD 
ENDBRANCH  15  16
ENDBRANCH  14  15
ENDBRANCH  13  14
ENDBRANCH   7  13
BRANCH   8  20
HETATM   20  C   UNL     1     -10.017  14.457  66.880  1.00  0.00    -0.261 C  
HETATM   21  O   UNL     1     -10.753  15.036  66.092  1.00  0.00    -0.310 OA 
BRANCH  20  22
HETATM   22  O   UNL     1      -8.710  14.768  67.070  1.00  0.00    -0.210 OA 
HETATM   23  C   UNL     1      -8.328  16.002  66.452  1.00  0.00    -0.309 C  
ENDBRANCH  20  22
ENDBRANCH   8  20
BRANCH  11  24
HETATM   24  C   UNL     1      -9.902  11.537  66.005  1.00  0.00    -0.255 A  
HETATM   25  C   UNL     1     -11.058  11.835  65.246  1.00  0.00    -0.333 A  
HETATM   26  C   UNL     1     -11.143  11.502  63.892  1.00  0.00    -0.458 A  
HETATM   27  C   UNL     1     -10.074  10.871  63.269  1.00  0.00    -0.368 A  
HETATM   28  C   UNL     1      -8.915  10.590  63.992  1.00  0.00    -0.235 A  
HETATM   29  C   UNL     1      -8.823  10.925  65.349  1.00  0.00    -0.180 A  
HETATM   30 CL   UNL     1      -7.337  10.562  66.149  1.00  0.00    -0.131 Cl 
ENDBRANCH  11  24
ENDBRANCH   4   6
ENDBRANCH   3   4
ENDBRANCH   2   3
TORSDOF 10
ENDMDL
MODEL       36
REMARK 921   NORMALIZED FREE ENERGY PREDICTED BY IDOCK:   -4.81 KCAL/MOL
REMARK 922        TOTAL FREE ENERGY PREDICTED BY IDOCK:   -9.35 KCAL/MOL
REMARK 923 INTER-LIGAND FREE ENERGY PREDICTED BY IDOCK:   -7.45 KCAL/MOL
REMARK 924 INTRA-LIGAND FREE ENERGY PREDICTED BY IDOCK:   -1.90 KCAL/MOL
REMARK 927      BINDING AFFINITY PREDICTED BY RF-SCORE:    0.00 PKD
ROOT
HETATM    1  C   UNL     1     -10.639  19.477  65.832  1.00  0.00    -0.572 C  
HETATM    2  C   UNL     1     -10.350  19.313  67.310  1.00  0.00    -0.436 C  
ENDROOT
BRANCH   2   3
HETATM    3  O   UNL     1      -9.669  18.069  67.428  1.00  0.00    -0.283 OA 
BRANCH   3   4
HETATM    4  C   UNL     1      -9.907  17.281  68.502  1.00  0.00    -0.307 C  
HETATM    5  O   UNL     1     -10.907  17.303  69.200  1.00  0.00    -0.207 OA 
BRANCH   4   6
HETATM    6  C   UNL     1      -8.841  16.239  68.561  1.00  0.00    -0.219 C  
HETATM    7  C   UNL     1      -7.538  16.551  68.777  1.00  0.00    -0.219 C  
HETATM    8  C   UNL     1      -8.092  13.795  68.250  1.00  0.00    -0.150 C  
HETATM    9  N   UNL     1      -6.583  15.549  68.767  1.00  0.00    -0.105 NA 
HETATM   10  C   UNL     1      -6.821  14.228  68.443  1.00  0.00    -0.104 C  
HETATM   11  C   UNL     1      -9.277  14.778  68.358  1.00  0.00    -0.189 C  
HETATM   12  C   UNL     1      -5.586  13.369  68.320  1.00  0.00    -0.098 C  
BRANCH   7  13
HETATM   13  C   UNL     1      -7.008  17.944  69.112  1.00  0.00    -0.207 C  
BRANCH  13  14
HETATM   14  O   UNL     1      -6.203  18.484  68.061  1.00  0.00    -0.189 OA 
BRANCH  14  15
HETATM   15  C   UNL     1      -6.771  19.668  67.491  1.00  0.00    -0.214 C  
BRANCH  15  16
HETATM   16  C   UNL     1      -6.773  19.554  65.964  1.00  0.00    -0.236 C  
HETATM   17  N   UNL     1      -7.265  18.247  65.523  1.00  0.00    -0.546 NA 
HETATM   18  H2  UNL     1      -8.186  18.045  65.914  1.00  0.00     0.000 HD 
HETATM   19  H1  UNL     1      -7.267  18.171  64.506  1.00  0.00     0.000 HD 
ENDBRANCH  15  16
ENDBRANCH  14  15
ENDBRANCH  13  14
ENDBRANCH   7  13
BRANCH   8  20
HETATM   20  C   UNL     1      -8.330  12.374  67.873  1.00  0.00    -0.165 C  
HETATM   21  O   UNL     1      -8.194  11.924  66.743  1.00  0.00    -0.170 OA 
BRANCH  20  22
HETATM   22  O   UNL     1      -8.706  11.635  68.947  1.00  0.00    -0.059 OA 
HETATM   23  C   UNL     1      -9.293  10.379  68.591  1.00  0.00    -0.167 C  
ENDBRANCH  20  22
ENDBRANCH   8  20
BRANCH  11  24
HETATM   24  C   UNL     1     -10.303  14.608  67.221  1.00  0.00    -0.256 A  
HETATM   25  C   UNL     1      -9.930  15.059  65.933  1.00  0.00    -0.353 A  
HETATM   26  C   UNL     1     -10.812  14.979  64.853  1.00  0.00    -0.430 A  
HETATM   27  C   UNL     1     -12.080  14.442  65.035  1.00  0.00    -0.417 A  
HETATM   28  C   UNL     1     -12.459  13.968  66.291  1.00  0.00    -0.439 A  
HETATM   29  C   UNL     1     -11.578  14.043  67.376  1.00  0.00    -0.368 A  
HETATM   30 CL   UNL     1     -12.131  13.404  68.882  1.00  0.00    -0.344 Cl 
ENDBRANCH  11  24
ENDBRANCH   4   6
ENDBRANCH   3   4
ENDBRANCH   2   3
TORSDOF 10
ENDMDL
MODEL       37
REMARK 921   NORMALIZED FREE ENERGY PREDICTED BY IDOCK:   -4.80 KCAL/MOL
REMARK 922        TOTAL FREE ENERGY PREDICTED BY IDOCK:   -9.34 KCAL/MOL
REMARK 923 INTER-LIGAND FREE ENERGY PREDICTED BY IDOCK:   -7.90 KCAL/MOL
REMARK 924 INTRA-LIGAND FREE ENERGY PREDICTED BY IDOCK:   -1.44 KCAL/MOL
REMARK 927      BINDING AFFINITY PREDICTED BY RF-SCORE:    0.00 PKD
ROOT
HETATM    1  C   UNL     1     -10.353  11.900  63.344  1.00  0.00    -0.481 C  
HETATM    2  C   UNL     1     -10.032  10.553  63.959  1.00  0.00    -0.297 C  
ENDROOT
BRANCH   2   3
HETATM    3  O   UNL     1     -10.428  10.655  65.322  1.00  0.00    -0.269 OA 
BRANCH   3   4
HETATM    4  C   UNL     1      -9.495  10.922  66.266  1.00  0.00    -0.194 C  
HETATM    5  O   UNL     1      -8.309  11.123  66.066  1.00  0.00    -0.167 OA 
BRANCH   4   6
HETATM    6  C   UNL     1     -10.196  11.139  67.565  1.00  0.00    -0.216 C  
HETATM    7  C   UNL     1     -10.631  10.107  68.332  1.00  0.00    -0.217 C  
HETATM    8  C   UNL     1     -11.309  12.727  69.260  1.00  0.00    -0.307 C  
HETATM    9  N   UNL     1     -11.324  10.367  69.501  1.00  0.00    -0.256 NA 
HETATM   10  C   UNL     1     -11.723  11.620  69.926  1.00  0.00    -0.337 C  
HETATM   11  C   UNL     1     -10.418  12.596  68.006  1.00  0.00    -0.232 C  
HETATM   12  C   UNL     1     -12.628  11.625  71.134  1.00  0.00    -0.439 C  
BRANCH   7  13
HETATM   13  C   UNL     1     -10.360   8.630  68.058  1.00  0.00    -0.223 C  
BRANCH  13  14
HETATM   14  O   UNL     1      -9.398   8.079  68.961  1.00  0.00    -0.148 OA 
BRANCH  14  15
HETATM   15  C   UNL     1      -8.246   8.916  69.110  1.00  0.00    -0.118 C  
BRANCH  15  16
HETATM   16  C   UNL     1      -7.960   9.136  70.597  1.00  0.00    -0.154 C  
HETATM   17  N   UNL     1      -6.759   9.950  70.799  1.00  0.00    -0.277 NA 
HETATM   18  H2  UNL     1      -6.820  10.836  70.296  1.00  0.00     0.000 HD 
HETATM   19  H1  UNL     1      -6.568  10.096  71.790  1.00  0.00     0.000 HD 
ENDBRANCH  15  16
ENDBRANCH  14  15
ENDBRANCH  13  14
ENDBRANCH   7  13
BRANCH   8  20
HETATM   20  C   UNL     1     -11.771  14.067  69.713  1.00  0.00    -0.313 C  
HETATM   21  O   UNL     1     -12.938  14.361  69.934  1.00  0.00    -0.077 OA 
BRANCH  20  22
HETATM   22  O   UNL     1     -10.729  14.923  69.864  1.00  0.00    -0.239 OA 
HETATM   23  C   UNL     1     -11.117  16.300  69.809  1.00  0.00    -0.337 C  
ENDBRANCH  20  22
ENDBRANCH   8  20
BRANCH  11  24
HETATM   24  C   UNL     1     -10.868  13.513  66.852  1.00  0.00    -0.286 A  
HETATM   25  C   UNL     1     -12.163  13.306  66.322  1.00  0.00    -0.440 A  
HETATM   26  C   UNL     1     -12.638  14.066  65.251  1.00  0.00    -0.495 A  
HETATM   27  C   UNL     1     -11.834  15.050  64.692  1.00  0.00    -0.378 A  
HETATM   28  C   UNL     1     -10.563  15.288  65.216  1.00  0.00    -0.438 A  
HETATM   29  C   UNL     1     -10.083  14.532  66.292  1.00  0.00    -0.295 A  
HETATM   30 CL   UNL     1      -8.509  14.921  66.886  1.00  0.00    -0.264 Cl 
ENDBRANCH  11  24
ENDBRANCH   4   6
ENDBRANCH   3   4
ENDBRANCH   2   3
TORSDOF 10
ENDMDL
MODEL       38
REMARK 921   NORMALIZED FREE ENERGY PREDICTED BY IDOCK:   -4.80 KCAL/MOL
REMARK 922        TOTAL FREE ENERGY PREDICTED BY IDOCK:   -9.34 KCAL/MOL
REMARK 923 INTER-LIGAND FREE ENERGY PREDICTED BY IDOCK:   -7.21 KCAL/MOL
REMARK 924 INTRA-LIGAND FREE ENERGY PREDICTED BY IDOCK:   -2.13 KCAL/MOL
REMARK 927      BINDING AFFINITY PREDICTED BY RF-SCORE:    0.00 PKD
ROOT
HETATM    1  C   UNL     1     -12.119  14.890  64.205  1.00  0.00    -0.373 C  
HETATM    2  C   UNL     1     -12.360  13.450  63.799  1.00  0.00    -0.349 C  
ENDROOT
BRANCH   2   3
HETATM    3  O   UNL     1     -11.256  12.718  64.321  1.00  0.00    -0.324 OA 
BRANCH   3   4
HETATM    4  C   UNL     1     -11.258  12.353  65.623  1.00  0.00    -0.322 C  
HETATM    5  O   UNL     1     -12.237  12.036  66.278  1.00  0.00    -0.548 OA 
BRANCH   4   6
HETATM    6  C   UNL     1      -9.842  12.199  66.066  1.00  0.00    -0.260 C  
HETATM    7  C   UNL     1      -9.180  11.018  65.968  1.00  0.00    -0.193 C  
HETATM    8  C   UNL     1      -7.762  13.144  67.254  1.00  0.00    -0.107 C  
HETATM    9  N   UNL     1      -7.884  10.918  66.445  1.00  0.00    -0.151 NA 
HETATM   10  C   UNL     1      -7.212  11.910  67.133  1.00  0.00    -0.144 C  
HETATM   11  C   UNL     1      -9.152  13.442  66.654  1.00  0.00    -0.180 C  
HETATM   12  C   UNL     1      -5.883  11.494  67.714  1.00  0.00    -0.049 C  
BRANCH   7  13
HETATM   13  C   UNL     1      -9.717   9.759  65.293  1.00  0.00    -0.300 C  
BRANCH  13  14
HETATM   14  O   UNL     1      -8.915   9.356  64.181  1.00  0.00    -0.214 OA 
BRANCH  14  15
HETATM   15  C   UNL     1      -9.197  10.113  63.000  1.00  0.00    -0.293 C  
BRANCH  15  16
HETATM   16  C   UNL     1      -7.886  10.585  62.366  1.00  0.00    -0.170 C  
HETATM   17  N   UNL     1      -6.801  10.634  63.349  1.00  0.00    -0.351 NA 
HETATM   18  H2  UNL     1      -6.685   9.736  63.821  1.00  0.00     0.000 HD 
HETATM   19  H1  UNL     1      -5.927  10.948  62.926  1.00  0.00     0.000 HD 
ENDBRANCH  15  16
ENDBRANCH  14  15
ENDBRANCH  13  14
ENDBRANCH   7  13
BRANCH   8  20
HETATM   20  C   UNL     1      -7.038  14.194  68.023  1.00  0.00    -0.144 C  
HETATM   21  O   UNL     1      -7.114  14.342  69.235  1.00  0.00    -0.127 OA 
BRANCH  20  22
HETATM   22  O   UNL     1      -6.270  14.961  67.208  1.00  0.00    -0.311 OA 
HETATM   23  C   UNL     1      -6.449  16.365  67.421  1.00  0.00    -0.174 C  
ENDBRANCH  20  22
ENDBRANCH   8  20
BRANCH  11  24
HETATM   24  C   UNL     1     -10.061  14.238  67.611  1.00  0.00    -0.229 A  
HETATM   25  C   UNL     1     -10.597  13.550  68.725  1.00  0.00    -0.237 A  
HETATM   26  C   UNL     1     -11.460  14.183  69.623  1.00  0.00    -0.329 A  
HETATM   27  C   UNL     1     -11.799  15.516  69.430  1.00  0.00    -0.392 A  
HETATM   28  C   UNL     1     -11.262  16.221  68.353  1.00  0.00    -0.349 A  
HETATM   29  C   UNL     1     -10.394  15.592  67.452  1.00  0.00    -0.266 A  
HETATM   30 CL   UNL     1      -9.759  16.557  66.168  1.00  0.00    -0.328 Cl 
ENDBRANCH  11  24
ENDBRANCH   4   6
ENDBRANCH   3   4
ENDBRANCH   2   3
TORSDOF 10
ENDMDL
MODEL       39
REMARK 921   NORMALIZED FREE ENERGY PREDICTED BY IDOCK:   -4.78 KCAL/MOL
REMARK 922        TOTAL FREE ENERGY PREDICTED BY IDOCK:   -9.31 KCAL/MOL
REMARK 923 INTER-LIGAND FREE ENERGY PREDICTED BY IDOCK:   -7.51 KCAL/MOL
REMARK 924 INTRA-LIGAND FREE ENERGY PREDICTED BY IDOCK:   -1.81 KCAL/MOL
REMARK 927      BINDING AFFINITY PREDICTED BY RF-SCORE:    0.00 PKD
ROOT
HETATM    1  C   UNL     1     -12.283  14.668  64.277  1.00  0.00    -0.432 C  
HETATM    2  C   UNL     1     -12.268  13.225  63.816  1.00  0.00    -0.439 C  
ENDROOT
BRANCH   2   3
HETATM    3  O   UNL     1     -11.090  12.658  64.378  1.00  0.00    -0.308 OA 
BRANCH   3   4
HETATM    4  C   UNL     1     -11.094  12.268  65.674  1.00  0.00    -0.317 C  
HETATM    5  O   UNL     1     -12.061  11.865  66.299  1.00  0.00    -0.535 OA 
BRANCH   4   6
HETATM    6  C   UNL     1      -9.681  12.211  66.148  1.00  0.00    -0.254 C  
HETATM    7  C   UNL     1      -8.952  11.066  66.107  1.00  0.00    -0.191 C  
HETATM    8  C   UNL     1      -7.681  13.316  67.335  1.00  0.00    -0.148 C  
HETATM    9  N   UNL     1      -7.663  11.058  66.611  1.00  0.00    -0.148 NA 
HETATM   10  C   UNL     1      -7.062  12.111  67.273  1.00  0.00    -0.144 C  
HETATM   11  C   UNL     1      -9.074  13.512  66.700  1.00  0.00    -0.182 C  
HETATM   12  C   UNL     1      -5.723  11.794  67.893  1.00  0.00    -0.050 C  
BRANCH   7  13
HETATM   13  C   UNL     1      -9.404   9.754  65.471  1.00  0.00    -0.240 C  
BRANCH  13  14
HETATM   14  O   UNL     1      -9.327   8.656  66.383  1.00  0.00    -0.178 OA 
BRANCH  14  15
HETATM   15  C   UNL     1     -10.605   8.304  66.925  1.00  0.00    -0.232 C  
BRANCH  15  16
HETATM   16  C   UNL     1     -10.607   6.824  67.317  1.00  0.00    -0.320 C  
HETATM   17  N   UNL     1     -11.480   6.574  68.466  1.00  0.00    -0.547 NA 
HETATM   18  H2  UNL     1     -12.427   6.917  68.296  1.00  0.00     0.000 HD 
HETATM   19  H1  UNL     1     -11.483   5.588  68.726  1.00  0.00     0.000 HD 
ENDBRANCH  15  16
ENDBRANCH  14  15
ENDBRANCH  13  14
ENDBRANCH   7  13
BRANCH   8  20
HETATM   20  C   UNL     1      -7.034  14.433  68.077  1.00  0.00    -0.143 C  
HETATM   21  O   UNL     1      -7.085  14.583  69.290  1.00  0.00    -0.130 OA 
BRANCH  20  22
HETATM   22  O   UNL     1      -6.365  15.261  67.235  1.00  0.00    -0.310 OA 
HETATM   23  C   UNL     1      -6.496  16.644  67.580  1.00  0.00    -0.151 C  
ENDBRANCH  20  22
ENDBRANCH   8  20
BRANCH  11  24
HETATM   24  C   UNL     1     -10.045  14.290  67.609  1.00  0.00    -0.229 A  
HETATM   25  C   UNL     1     -10.571  13.612  68.734  1.00  0.00    -0.247 A  
HETATM   26  C   UNL     1     -11.486  14.229  69.591  1.00  0.00    -0.334 A  
HETATM   27  C   UNL     1     -11.889  15.534  69.345  1.00  0.00    -0.392 A  
HETATM   28  C   UNL     1     -11.365  16.230  68.256  1.00  0.00    -0.280 A  
HETATM   29  C   UNL     1     -10.444  15.618  67.396  1.00  0.00    -0.291 A  
HETATM   30 CL   UNL     1      -9.832  16.572  66.094  1.00  0.00    -0.335 Cl 
ENDBRANCH  11  24
ENDBRANCH   4   6
ENDBRANCH   3   4
ENDBRANCH   2   3
TORSDOF 10
ENDMDL
MODEL       40
REMARK 921   NORMALIZED FREE ENERGY PREDICTED BY IDOCK:   -4.76 KCAL/MOL
REMARK 922        TOTAL FREE ENERGY PREDICTED BY IDOCK:   -9.28 KCAL/MOL
REMARK 923 INTER-LIGAND FREE ENERGY PREDICTED BY IDOCK:   -7.84 KCAL/MOL
REMARK 924 INTRA-LIGAND FREE ENERGY PREDICTED BY IDOCK:   -1.44 KCAL/MOL
REMARK 927      BINDING AFFINITY PREDICTED BY RF-SCORE:    0.00 PKD
ROOT
HETATM    1  C   UNL     1      -5.370  11.251  66.634  1.00  0.00    -0.122 C  
HETATM    2  C   UNL     1      -5.798  12.472  67.423  1.00  0.00    -0.137 C  
ENDROOT
BRANCH   2   3
HETATM    3  O   UNL     1      -7.202  12.583  67.219  1.00  0.00    -0.147 OA 
BRANCH   3   4
HETATM    4  C   UNL     1      -7.889  13.564  67.848  1.00  0.00    -0.159 C  
HETATM    5  O   UNL     1      -7.708  13.946  68.992  1.00  0.00    -0.085 OA 
BRANCH   4   6
HETATM    6  C   UNL     1      -8.758  14.243  66.844  1.00  0.00    -0.202 C  
HETATM    7  C   UNL     1      -8.590  15.547  66.508  1.00  0.00    -0.285 C  
HETATM    8  C   UNL     1     -10.833  14.228  65.318  1.00  0.00    -0.363 C  
HETATM    9  N   UNL     1      -9.460  16.140  65.610  1.00  0.00    -0.443 NA 
HETATM   10  C   UNL     1     -10.589  15.542  65.084  1.00  0.00    -0.431 C  
HETATM   11  C   UNL     1      -9.873  13.401  66.199  1.00  0.00    -0.289 C  
HETATM   12  C   UNL     1     -11.478  16.457  64.276  1.00  0.00     0.120 C  
BRANCH   7  13
HETATM   13  C   UNL     1      -7.449  16.441  66.987  1.00  0.00    -0.215 C  
BRANCH  13  14
HETATM   14  O   UNL     1      -7.924  17.634  67.616  1.00  0.00    -0.203 OA 
BRANCH  14  15
HETATM   15  C   UNL     1      -7.426  18.820  66.987  1.00  0.00    -0.219 C  
BRANCH  15  16
HETATM   16  C   UNL     1      -6.568  19.608  67.980  1.00  0.00    -0.248 C  
HETATM   17  N   UNL     1      -6.717  19.094  69.344  1.00  0.00    -0.301 NA 
HETATM   18  H2  UNL     1      -6.518  18.095  69.390  1.00  0.00     0.000 HD 
HETATM   19  H1  UNL     1      -6.145  19.619  70.006  1.00  0.00     0.000 HD 
ENDBRANCH  15  16
ENDBRANCH  14  15
ENDBRANCH  13  14
ENDBRANCH   7  13
BRANCH   8  20
HETATM   20  C   UNL     1     -12.068  13.606  64.768  1.00  0.00    -0.402 C  
HETATM   21  O   UNL     1     -13.167  13.654  65.303  1.00  0.00    -0.724 OA 
BRANCH  20  22
HETATM   22  O   UNL     1     -11.823  12.985  63.586  1.00  0.00    -0.469 OA 
HETATM   23  C   UNL     1     -12.556  11.766  63.426  1.00  0.00    -0.336 C  
ENDBRANCH  20  22
ENDBRANCH   8  20
BRANCH  11  24
HETATM   24  C   UNL     1     -10.610  12.503  67.211  1.00  0.00    -0.246 A  
HETATM   25  C   UNL     1     -11.215  13.133  68.323  1.00  0.00    -0.307 A  
HETATM   26  C   UNL     1     -11.872  12.393  69.309  1.00  0.00    -0.361 A  
HETATM   27  C   UNL     1     -11.943  11.010  69.200  1.00  0.00    -0.394 A  
HETATM   28  C   UNL     1     -11.376  10.370  68.098  1.00  0.00    -0.284 A  
HETATM   29  C   UNL     1     -10.720  11.108  67.106  1.00  0.00    -0.259 A  
HETATM   30 CL   UNL     1     -10.075  10.226  65.768  1.00  0.00    -0.329 Cl 
ENDBRANCH  11  24
ENDBRANCH   4   6
ENDBRANCH   3   4
ENDBRANCH   2   3
TORSDOF 10
ENDMDL
MODEL       41
REMARK 921   NORMALIZED FREE ENERGY PREDICTED BY IDOCK:   -4.71 KCAL/MOL
REMARK 922        TOTAL FREE ENERGY PREDICTED BY IDOCK:   -9.20 KCAL/MOL
REMARK 923 INTER-LIGAND FREE ENERGY PREDICTED BY IDOCK:   -7.65 KCAL/MOL
REMARK 924 INTRA-LIGAND FREE ENERGY PREDICTED BY IDOCK:   -1.55 KCAL/MOL
REMARK 927      BINDING AFFINITY PREDICTED BY RF-SCORE:    0.00 PKD
ROOT
HETATM    1  C   UNL     1      -8.031  15.233  67.903  1.00  0.00    -0.145 C  
HETATM    2  C   UNL     1      -9.016  14.372  67.139  1.00  0.00    -0.232 C  
ENDROOT
BRANCH   2   3
HETATM    3  O   UNL     1      -9.997  13.979  68.092  1.00  0.00    -0.228 OA 
BRANCH   3   4
HETATM    4  C   UNL     1     -11.068  13.259  67.685  1.00  0.00    -0.269 C  
HETATM    5  O   UNL     1     -11.637  13.366  66.612  1.00  0.00    -0.329 OA 
BRANCH   4   6
HETATM    6  C   UNL     1     -11.303  12.171  68.678  1.00  0.00    -0.330 C  
HETATM    7  C   UNL     1     -11.978  12.385  69.836  1.00  0.00    -0.299 C  
HETATM    8  C   UNL     1     -10.865   9.771  69.501  1.00  0.00    -0.264 C  
HETATM    9  N   UNL     1     -12.119  11.352  70.747  1.00  0.00    -0.361 NA 
HETATM   10  C   UNL     1     -11.527  10.109  70.636  1.00  0.00    -0.349 C  
HETATM   11  C   UNL     1     -10.738  10.781  68.341  1.00  0.00    -0.255 C  
HETATM   12  C   UNL     1     -11.677   9.221  71.847  1.00  0.00    -0.420 C  
BRANCH   7  13
HETATM   13  C   UNL     1     -12.685  13.683  70.218  1.00  0.00    -0.098 C  
BRANCH  13  14
HETATM   14  O   UNL     1     -12.265  14.173  71.494  1.00  0.00    -0.334 OA 
BRANCH  14  15
HETATM   15  C   UNL     1     -13.365  14.410  72.378  1.00  0.00    -0.455 C  
BRANCH  15  16
HETATM   16  C   UNL     1     -13.004  15.525  73.363  1.00  0.00    -0.551 C  
HETATM   17  N   UNL     1     -12.278  15.003  74.523  1.00  0.00    -0.751 NA 
HETATM   18  H2  UNL     1     -11.453  14.473  74.239  1.00  0.00     0.000 HD 
HETATM   19  H1  UNL     1     -12.036  15.746  75.179  1.00  0.00     0.000 HD 
ENDBRANCH  15  16
ENDBRANCH  14  15
ENDBRANCH  13  14
ENDBRANCH   7  13
BRANCH   8  20
HETATM   20  C   UNL     1     -10.208   8.438  69.408  1.00  0.00    -0.208 C  
HETATM   21  O   UNL     1      -9.215   8.108  70.042  1.00  0.00    -0.153 OA 
BRANCH  20  22
HETATM   22  O   UNL     1     -10.861   7.627  68.538  1.00  0.00    -0.102 OA 
HETATM   23  C   UNL     1     -11.000   6.284  69.013  1.00  0.00    -0.372 C  
ENDBRANCH  20  22
ENDBRANCH   8  20
BRANCH  11  24
HETATM   24  C   UNL     1      -9.317  10.837  67.746  1.00  0.00    -0.158 A  
HETATM   25  C   UNL     1      -8.256  11.164  68.622  1.00  0.00    -0.152 A  
HETATM   26  C   UNL     1      -6.942  11.273  68.161  1.00  0.00    -0.069 A  
HETATM   27  C   UNL     1      -6.661  11.052  66.819  1.00  0.00    -0.124 A  
HETATM   28  C   UNL     1      -7.689  10.703  65.943  1.00  0.00    -0.146 A  
HETATM   29  C   UNL     1      -9.007  10.589  66.400  1.00  0.00    -0.159 A  
HETATM   30 CL   UNL     1     -10.202  10.124  65.244  1.00  0.00    -0.337 Cl 
ENDBRANCH  11  24
ENDBRANCH   4   6
ENDBRANCH   3   4
ENDBRANCH   2   3
TORSDOF 10
ENDMDL
MODEL       42
REMARK 921   NORMALIZED FREE ENERGY PREDICTED BY IDOCK:   -4.71 KCAL/MOL
REMARK 922        TOTAL FREE ENERGY PREDICTED BY IDOCK:   -9.20 KCAL/MOL
REMARK 923 INTER-LIGAND FREE ENERGY PREDICTED BY IDOCK:   -7.05 KCAL/MOL
REMARK 924 INTRA-LIGAND FREE ENERGY PREDICTED BY IDOCK:   -2.14 KCAL/MOL
REMARK 927      BINDING AFFINITY PREDICTED BY RF-SCORE:    0.00 PKD
ROOT
HETATM    1  C   UNL     1      -7.908  12.926  68.000  1.00  0.00    -0.149 C  
HETATM    2  C   UNL     1      -9.412  13.006  67.840  1.00  0.00    -0.219 C  
ENDROOT
BRANCH   2   3
HETATM    3  O   UNL     1      -9.932  11.905  68.577  1.00  0.00    -0.207 OA 
BRANCH   3   4
HETATM    4  C   UNL     1     -11.063  11.297  68.153  1.00  0.00    -0.259 C  
HETATM    5  O   UNL     1     -11.907  11.783  67.417  1.00  0.00    -0.590 OA 
BRANCH   4   6
HETATM    6  C   UNL     1     -11.003   9.863  68.561  1.00  0.00    -0.226 C  
HETATM    7  C   UNL     1     -11.244   9.466  69.837  1.00  0.00    -0.155 C  
HETATM    8  C   UNL     1     -10.425   7.413  68.020  1.00  0.00    -0.253 C  
HETATM    9  N   UNL     1     -11.120   8.128  70.171  1.00  0.00    -0.228 NA 
HETATM   10  C   UNL     1     -10.656   7.138  69.328  1.00  0.00    -0.221 C  
HETATM   11  C   UNL     1     -10.646   8.839  67.471  1.00  0.00    -0.298 C  
HETATM   12  C   UNL     1     -10.434   5.796  69.982  1.00  0.00    -0.353 C  
BRANCH   7  13
HETATM   13  C   UNL     1     -11.724  10.372  70.967  1.00  0.00    -0.337 C  
BRANCH  13  14
HETATM   14  O   UNL     1     -13.147  10.356  71.106  1.00  0.00    -0.379 OA 
BRANCH  14  15
HETATM   15  C   UNL     1     -13.578   9.588  72.234  1.00  0.00    -0.418 C  
BRANCH  15  16
HETATM   16  C   UNL     1     -14.345   8.353  71.753  1.00  0.00    -0.472 C  
HETATM   17  N   UNL     1     -13.554   7.132  71.917  1.00  0.00    -0.549 NA 
HETATM   18  H2  UNL     1     -13.235   7.020  72.880  1.00  0.00     0.000 HD 
HETATM   19  H1  UNL     1     -14.065   6.309  71.596  1.00  0.00     0.000 HD 
ENDBRANCH  15  16
ENDBRANCH  14  15
ENDBRANCH  13  14
ENDBRANCH   7  13
BRANCH   8  20
HETATM   20  C   UNL     1      -9.897   6.342  67.130  1.00  0.00    -0.146 C  
HETATM   21  O   UNL     1     -10.565   5.734  66.305  1.00  0.00    -0.168 OA 
BRANCH  20  22
HETATM   22  O   UNL     1      -8.573   6.133  67.342  1.00  0.00    -0.108 OA 
HETATM   23  C   UNL     1      -7.846   5.859  66.140  1.00  0.00    -0.104 C  
ENDBRANCH  20  22
ENDBRANCH   8  20
BRANCH  11  24
HETATM   24  C   UNL     1      -9.504   9.312  66.551  1.00  0.00    -0.259 A  
HETATM   25  C   UNL     1      -9.832   9.627  65.212  1.00  0.00    -0.269 A  
HETATM   26  C   UNL     1      -8.854  10.028  64.299  1.00  0.00    -0.245 A  
HETATM   27  C   UNL     1      -7.530  10.128  64.707  1.00  0.00    -0.136 A  
HETATM   28  C   UNL     1      -7.187   9.847  66.030  1.00  0.00    -0.106 A  
HETATM   29  C   UNL     1      -8.165   9.449  66.949  1.00  0.00    -0.116 A  
HETATM   30 CL   UNL     1      -7.646   9.151  68.569  1.00  0.00    -0.085 Cl 
ENDBRANCH  11  24
ENDBRANCH   4   6
ENDBRANCH   3   4
ENDBRANCH   2   3
TORSDOF 10
ENDMDL
MODEL       43
REMARK 921   NORMALIZED FREE ENERGY PREDICTED BY IDOCK:   -4.70 KCAL/MOL
REMARK 922        TOTAL FREE ENERGY PREDICTED BY IDOCK:   -9.19 KCAL/MOL
REMARK 923 INTER-LIGAND FREE ENERGY PREDICTED BY IDOCK:   -7.86 KCAL/MOL
REMARK 924 INTRA-LIGAND FREE ENERGY PREDICTED BY IDOCK:   -1.33 KCAL/MOL
REMARK 927      BINDING AFFINITY PREDICTED BY RF-SCORE:    0.00 PKD
ROOT
HETATM    1  C   UNL     1     -10.711  19.667  66.012  1.00  0.00    -0.527 C  
HETATM    2  C   UNL     1      -9.614  19.368  67.013  1.00  0.00    -0.329 C  
ENDROOT
BRANCH   2   3
HETATM    3  O   UNL     1      -9.500  17.950  67.039  1.00  0.00    -0.259 OA 
BRANCH   3   4
HETATM    4  C   UNL     1      -9.661  17.292  68.210  1.00  0.00    -0.288 C  
HETATM    5  O   UNL     1     -10.584  17.438  68.994  1.00  0.00    -0.323 OA 
BRANCH   4   6
HETATM    6  C   UNL     1      -8.637  16.208  68.281  1.00  0.00    -0.182 C  
HETATM    7  C   UNL     1      -7.314  16.475  68.423  1.00  0.00    -0.179 C  
HETATM    8  C   UNL     1      -8.005  13.721  68.073  1.00  0.00    -0.156 C  
HETATM    9  N   UNL     1      -6.403  15.433  68.427  1.00  0.00    -0.104 NA 
HETATM   10  C   UNL     1      -6.710  14.107  68.187  1.00  0.00    -0.124 C  
HETATM   11  C   UNL     1      -9.142  14.759  68.178  1.00  0.00    -0.180 C  
HETATM   12  C   UNL     1      -5.519  13.190  68.059  1.00  0.00    -0.108 C  
BRANCH   7  13
HETATM   13  C   UNL     1      -6.712  17.858  68.657  1.00  0.00    -0.239 C  
BRANCH  13  14
HETATM   14  O   UNL     1      -5.996  17.935  69.892  1.00  0.00    -0.242 OA 
BRANCH  14  15
HETATM   15  C   UNL     1      -5.417  19.227  70.108  1.00  0.00    -0.224 C  
BRANCH  15  16
HETATM   16  C   UNL     1      -5.285  19.486  71.611  1.00  0.00    -0.398 C  
HETATM   17  N   UNL     1      -6.075  20.647  72.026  1.00  0.00    -0.744 NA 
HETATM   18  H2  UNL     1      -7.052  20.553  71.748  1.00  0.00     0.000 HD 
HETATM   19  H1  UNL     1      -5.988  20.820  73.028  1.00  0.00     0.000 HD 
ENDBRANCH  15  16
ENDBRANCH  14  15
ENDBRANCH  13  14
ENDBRANCH   7  13
BRANCH   8  20
HETATM   20  C   UNL     1      -8.319  12.294  67.786  1.00  0.00    -0.162 C  
HETATM   21  O   UNL     1      -8.729  11.493  68.614  1.00  0.00    -0.158 OA 
BRANCH  20  22
HETATM   22  O   UNL     1      -8.103  11.996  66.480  1.00  0.00    -0.084 OA 
HETATM   23  C   UNL     1      -9.139  11.192  65.905  1.00  0.00    -0.203 C  
ENDBRANCH  20  22
ENDBRANCH   8  20
BRANCH  11  24
HETATM   24  C   UNL     1     -10.226  14.575  67.097  1.00  0.00    -0.260 A  
HETATM   25  C   UNL     1      -9.865  14.853  65.758  1.00  0.00    -0.380 A  
HETATM   26  C   UNL     1     -10.793  14.749  64.720  1.00  0.00    -0.395 A  
HETATM   27  C   UNL     1     -12.097  14.359  64.997  1.00  0.00    -0.417 A  
HETATM   28  C   UNL     1     -12.468  14.054  66.307  1.00  0.00    -0.439 A  
HETATM   29  C   UNL     1     -11.540  14.154  67.350  1.00  0.00    -0.372 A  
HETATM   30 CL   UNL     1     -12.088  13.729  68.932  1.00  0.00    -0.386 Cl 
ENDBRANCH  11  24
ENDBRANCH   4   6
ENDBRANCH   3   4
ENDBRANCH   2   3
TORSDOF 10
ENDMDL
MODEL       44
REMARK 921   NORMALIZED FREE ENERGY PREDICTED BY IDOCK:   -4.67 KCAL/MOL
REMARK 922        TOTAL FREE ENERGY PREDICTED BY IDOCK:   -9.13 KCAL/MOL
REMARK 923 INTER-LIGAND FREE ENERGY PREDICTED BY IDOCK:   -7.54 KCAL/MOL
REMARK 924 INTRA-LIGAND FREE ENERGY PREDICTED BY IDOCK:   -1.59 KCAL/MOL
REMARK 927      BINDING AFFINITY PREDICTED BY RF-SCORE:    0.00 PKD
ROOT
HETATM    1  C   UNL     1      -5.972  10.210  69.683  1.00  0.00    -0.044 C  
HETATM    2  C   UNL     1      -7.401  10.022  70.151  1.00  0.00    -0.163 C  
ENDROOT
BRANCH   2   3
HETATM    3  O   UNL     1      -8.211  10.644  69.159  1.00  0.00    -0.146 OA 
BRANCH   3   4
HETATM    4  C   UNL     1      -9.400  10.089  68.829  1.00  0.00    -0.162 C  
HETATM    5  O   UNL     1     -10.226   9.646  69.609  1.00  0.00    -0.193 OA 
BRANCH   4   6
HETATM    6  C   UNL     1      -9.625  10.302  67.369  1.00  0.00    -0.183 C  
HETATM    7  C   UNL     1      -8.867   9.689  66.425  1.00  0.00    -0.150 C  
HETATM    8  C   UNL     1     -10.796  11.565  65.455  1.00  0.00    -0.313 C  
HETATM    9  N   UNL     1      -9.084   9.966  65.087  1.00  0.00    -0.193 NA 
HETATM   10  C   UNL     1      -9.958  10.921  64.605  1.00  0.00    -0.310 C  
HETATM   11  C   UNL     1     -10.758  11.262  66.968  1.00  0.00    -0.305 C  
HETATM   12  C   UNL     1      -9.878  11.166  63.118  1.00  0.00    -0.403 C  
BRANCH   7  13
HETATM   13  C   UNL     1      -7.803   8.629  66.700  1.00  0.00    -0.097 C  
BRANCH  13  14
HETATM   14  O   UNL     1      -8.246   7.314  66.354  1.00  0.00    -0.110 OA 
BRANCH  14  15
HETATM   15  C   UNL     1      -9.036   6.714  67.386  1.00  0.00    -0.120 C  
BRANCH  15  16
HETATM   16  C   UNL     1     -10.273   6.055  66.769  1.00  0.00    -0.214 C  
HETATM   17  N   UNL     1     -11.498   6.459  67.462  1.00  0.00    -0.675 NA 
HETATM   18  H2  UNL     1     -11.593   7.474  67.493  1.00  0.00     0.000 HD 
HETATM   19  H1  UNL     1     -12.323   6.020  67.051  1.00  0.00     0.000 HD 
ENDBRANCH  15  16
ENDBRANCH  14  15
ENDBRANCH  13  14
ENDBRANCH   7  13
BRANCH   8  20
HETATM   20  C   UNL     1     -11.712  12.612  64.924  1.00  0.00    -0.353 C  
HETATM   21  O   UNL     1     -12.930  12.507  64.873  1.00  0.00    -0.821 OA 
BRANCH  20  22
HETATM   22  O   UNL     1     -11.024  13.707  64.514  1.00  0.00    -0.375 OA 
HETATM   23  C   UNL     1     -11.649  14.939  64.887  1.00  0.00    -0.395 C  
ENDBRANCH  20  22
ENDBRANCH   8  20
BRANCH  11  24
HETATM   24  C   UNL     1     -10.804  12.535  67.836  1.00  0.00    -0.251 A  
HETATM   25  C   UNL     1     -11.944  12.727  68.652  1.00  0.00    -0.272 A  
HETATM   26  C   UNL     1     -12.087  13.869  69.442  1.00  0.00    -0.384 A  
HETATM   27  C   UNL     1     -11.093  14.839  69.439  1.00  0.00    -0.302 A  
HETATM   28  C   UNL     1      -9.949  14.658  68.662  1.00  0.00    -0.234 A  
HETATM   29  C   UNL     1      -9.799  13.513  67.871  1.00  0.00    -0.235 A  
HETATM   30 CL   UNL     1      -8.335  13.368  66.967  1.00  0.00    -0.139 Cl 
ENDBRANCH  11  24
ENDBRANCH   4   6
ENDBRANCH   3   4
ENDBRANCH   2   3
TORSDOF 10
ENDMDL
MODEL       45
REMARK 921   NORMALIZED FREE ENERGY PREDICTED BY IDOCK:   -4.66 KCAL/MOL
REMARK 922        TOTAL FREE ENERGY PREDICTED BY IDOCK:   -9.12 KCAL/MOL
REMARK 923 INTER-LIGAND FREE ENERGY PREDICTED BY IDOCK:   -7.55 KCAL/MOL
REMARK 924 INTRA-LIGAND FREE ENERGY PREDICTED BY IDOCK:   -1.57 KCAL/MOL
REMARK 927      BINDING AFFINITY PREDICTED BY RF-SCORE:    0.00 PKD
ROOT
HETATM    1  C   UNL     1     -11.393   6.040  69.985  1.00  0.00    -0.354 C  
HETATM    2  C   UNL     1     -10.438   7.040  70.603  1.00  0.00    -0.210 C  
ENDROOT
BRANCH   2   3
HETATM    3  O   UNL     1     -10.952   8.321  70.255  1.00  0.00    -0.241 OA 
BRANCH   3   4
HETATM    4  C   UNL     1     -10.143   9.403  70.327  1.00  0.00    -0.240 C  
HETATM    5  O   UNL     1      -9.182   9.532  71.067  1.00  0.00    -0.209 OA 
BRANCH   4   6
HETATM    6  C   UNL     1     -10.492  10.322  69.205  1.00  0.00    -0.246 C  
HETATM    7  C   UNL     1     -11.559  11.159  69.263  1.00  0.00    -0.318 C  
HETATM    8  C   UNL     1     -10.132  11.122  66.784  1.00  0.00    -0.255 C  
HETATM    9  N   UNL     1     -11.868  11.951  68.171  1.00  0.00    -0.497 NA 
HETATM   10  C   UNL     1     -11.237  11.892  66.943  1.00  0.00    -0.325 C  
HETATM   11  C   UNL     1      -9.591  10.281  67.959  1.00  0.00    -0.159 C  
HETATM   12  C   UNL     1     -11.879  12.721  65.857  1.00  0.00    -0.490 C  
BRANCH   7  13
HETATM   13  C   UNL     1     -12.446  11.374  70.487  1.00  0.00    -0.293 C  
BRANCH  13  14
HETATM   14  O   UNL     1     -13.264  10.236  70.770  1.00  0.00    -0.385 OA 
BRANCH  14  15
HETATM   15  C   UNL     1     -13.409  10.003  72.175  1.00  0.00    -0.368 C  
BRANCH  15  16
HETATM   16  C   UNL     1     -14.109   8.661  72.404  1.00  0.00    -0.377 C  
HETATM   17  N   UNL     1     -14.163   7.866  71.175  1.00  0.00    -0.664 NA 
HETATM   18  H2  UNL     1     -13.234   7.739  70.772  1.00  0.00     0.000 HD 
HETATM   19  H1  UNL     1     -14.628   6.972  71.327  1.00  0.00     0.000 HD 
ENDBRANCH  15  16
ENDBRANCH  14  15
ENDBRANCH  13  14
ENDBRANCH   7  13
BRANCH   8  20
HETATM   20  C   UNL     1      -9.480  11.048  65.447  1.00  0.00    -0.222 C  
HETATM   21  O   UNL     1      -8.311  11.333  65.229  1.00  0.00     0.051 OA 
BRANCH  20  22
HETATM   22  O   UNL     1     -10.348  10.610  64.499  1.00  0.00    -0.355 OA 
HETATM   23  C   UNL     1      -9.805  10.652  63.176  1.00  0.00    -0.302 C  
ENDBRANCH  20  22
ENDBRANCH   8  20
BRANCH  11  24
HETATM   24  C   UNL     1      -9.204   8.848  67.543  1.00  0.00    -0.153 A  
HETATM   25  C   UNL     1     -10.202   8.055  66.928  1.00  0.00    -0.385 A  
HETATM   26  C   UNL     1      -9.950   6.734  66.553  1.00  0.00    -0.146 A  
HETATM   27  C   UNL     1      -8.697   6.179  66.779  1.00  0.00    -0.116 A  
HETATM   28  C   UNL     1      -7.691   6.951  67.360  1.00  0.00    -0.110 A  
HETATM   29  C   UNL     1      -7.937   8.277  67.735  1.00  0.00    -0.122 A  
HETATM   30 CL   UNL     1      -6.619   9.157  68.421  1.00  0.00    -0.058 Cl 
ENDBRANCH  11  24
ENDBRANCH   4   6
ENDBRANCH   3   4
ENDBRANCH   2   3
TORSDOF 10
ENDMDL
MODEL       46
REMARK 921   NORMALIZED FREE ENERGY PREDICTED BY IDOCK:   -4.62 KCAL/MOL
REMARK 922        TOTAL FREE ENERGY PREDICTED BY IDOCK:   -9.06 KCAL/MOL
REMARK 923 INTER-LIGAND FREE ENERGY PREDICTED BY IDOCK:   -7.90 KCAL/MOL
REMARK 924 INTRA-LIGAND FREE ENERGY PREDICTED BY IDOCK:   -1.16 KCAL/MOL
REMARK 927      BINDING AFFINITY PREDICTED BY RF-SCORE:    0.00 PKD
ROOT
HETATM    1  C   UNL     1     -12.122  15.876  71.776  1.00  0.00    -0.567 C  
HETATM    2  C   UNL     1     -11.045  15.090  71.056  1.00  0.00    -0.169 C  
ENDROOT
BRANCH   2   3
HETATM    3  O   UNL     1     -10.443  16.009  70.153  1.00  0.00    -0.280 OA 
BRANCH   3   4
HETATM    4  C   UNL     1      -9.412  15.600  69.377  1.00  0.00    -0.279 C  
HETATM    5  O   UNL     1      -8.369  15.106  69.772  1.00  0.00    -0.163 OA 
BRANCH   4   6
HETATM    6  C   UNL     1      -9.849  15.660  67.952  1.00  0.00    -0.217 C  
HETATM    7  C   UNL     1     -10.296  16.807  67.381  1.00  0.00    -0.302 C  
HETATM    8  C   UNL     1     -10.422  14.465  65.744  1.00  0.00    -0.329 C  
HETATM    9  N   UNL     1     -10.740  16.792  66.071  1.00  0.00    -0.205 NA 
HETATM   10  C   UNL     1     -10.877  15.659  65.291  1.00  0.00    -0.406 C  
HETATM   11  C   UNL     1      -9.780  14.353  67.143  1.00  0.00    -0.248 C  
HETATM   12  C   UNL     1     -11.559  15.878  63.963  1.00  0.00     0.120 C  
BRANCH   7  13
HETATM   13  C   UNL     1     -10.293  18.182  68.045  1.00  0.00    -0.391 C  
BRANCH  13  14
HETATM   14  O   UNL     1      -9.524  19.137  67.309  1.00  0.00    -0.304 OA 
BRANCH  14  15
HETATM   15  C   UNL     1      -8.119  19.010  67.550  1.00  0.00    -0.267 C  
BRANCH  15  16
HETATM   16  C   UNL     1      -7.391  20.242  67.008  1.00  0.00    -0.284 C  
HETATM   17  N   UNL     1      -7.593  20.395  65.566  1.00  0.00    -0.514 NA 
HETATM   18  H2  UNL     1      -8.586  20.413  65.328  1.00  0.00     0.000 HD 
HETATM   19  H1  UNL     1      -7.109  21.216  65.204  1.00  0.00     0.000 HD 
ENDBRANCH  15  16
ENDBRANCH  14  15
ENDBRANCH  13  14
ENDBRANCH   7  13
BRANCH   8  20
HETATM   20  C   UNL     1     -10.602  13.249  64.904  1.00  0.00    -0.366 C  
HETATM   21  O   UNL     1      -9.704  12.691  64.288  1.00  0.00    -0.089 OA 
BRANCH  20  22
HETATM   22  O   UNL     1     -11.892  12.827  64.918  1.00  0.00    -0.339 OA 
HETATM   23  C   UNL     1     -12.324  12.289  63.664  1.00  0.00    -0.562 C  
ENDBRANCH  20  22
ENDBRANCH   8  20
BRANCH  11  24
HETATM   24  C   UNL     1     -10.276  13.128  67.936  1.00  0.00    -0.233 A  
HETATM   25  C   UNL     1     -11.620  13.138  68.378  1.00  0.00    -0.372 A  
HETATM   26  C   UNL     1     -12.142  12.086  69.134  1.00  0.00    -0.241 A  
HETATM   27  C   UNL     1     -11.337  11.002  69.458  1.00  0.00    -0.356 A  
HETATM   28  C   UNL     1     -10.016  10.960  69.011  1.00  0.00    -0.206 A  
HETATM   29  C   UNL     1      -9.488  12.010  68.250  1.00  0.00    -0.199 A  
HETATM   30 CL   UNL     1      -7.852  11.851  67.720  1.00  0.00    -0.129 Cl 
ENDBRANCH  11  24
ENDBRANCH   4   6
ENDBRANCH   3   4
ENDBRANCH   2   3
TORSDOF 10
ENDMDL
MODEL       47
REMARK 921   NORMALIZED FREE ENERGY PREDICTED BY IDOCK:   -4.61 KCAL/MOL
REMARK 922        TOTAL FREE ENERGY PREDICTED BY IDOCK:   -9.05 KCAL/MOL
REMARK 923 INTER-LIGAND FREE ENERGY PREDICTED BY IDOCK:   -7.07 KCAL/MOL
REMARK 924 INTRA-LIGAND FREE ENERGY PREDICTED BY IDOCK:   -1.98 KCAL/MOL
REMARK 927      BINDING AFFINITY PREDICTED BY RF-SCORE:    0.00 PKD
ROOT
HETATM    1  C   UNL     1      -6.836  10.125  66.893  1.00  0.00    -0.084 C  
HETATM    2  C   UNL     1      -7.802  11.118  66.278  1.00  0.00    -0.109 C  
ENDROOT
BRANCH   2   3
HETATM    3  O   UNL     1      -8.856  11.257  67.223  1.00  0.00    -0.146 OA 
BRANCH   3   4
HETATM    4  C   UNL     1     -10.057  10.687  66.967  1.00  0.00    -0.211 C  
HETATM    5  O   UNL     1     -10.339  10.018  65.987  1.00  0.00    -0.231 OA 
BRANCH   4   6
HETATM    6  C   UNL     1     -10.912  10.836  68.180  1.00  0.00    -0.308 C  
HETATM    7  C   UNL     1     -11.524  12.007  68.493  1.00  0.00    -0.293 C  
HETATM    8  C   UNL     1     -11.813   9.895  70.402  1.00  0.00    -0.310 C  
HETATM    9  N   UNL     1     -12.261  12.103  69.661  1.00  0.00    -0.178 NA 
HETATM   10  C   UNL     1     -12.350  11.120  70.627  1.00  0.00    -0.388 C  
HETATM   11  C   UNL     1     -11.070   9.599  69.081  1.00  0.00    -0.123 C  
HETATM   12  C   UNL     1     -13.059  11.534  71.894  1.00  0.00    -0.492 C  
BRANCH   7  13
HETATM   13  C   UNL     1     -11.538  13.256  67.616  1.00  0.00    -0.346 C  
BRANCH  13  14
HETATM   14  O   UNL     1     -11.926  14.424  68.344  1.00  0.00    -0.331 OA 
BRANCH  14  15
HETATM   15  C   UNL     1     -10.809  15.253  68.683  1.00  0.00    -0.253 C  
BRANCH  15  16
HETATM   16  C   UNL     1     -10.932  15.711  70.138  1.00  0.00    -0.339 C  
HETATM   17  N   UNL     1     -11.300  14.603  71.022  1.00  0.00    -0.529 NA 
HETATM   18  H2  UNL     1     -10.650  13.821  70.931  1.00  0.00     0.000 HD 
HETATM   19  H1  UNL     1     -11.382  14.908  71.992  1.00  0.00     0.000 HD 
ENDBRANCH  15  16
ENDBRANCH  14  15
ENDBRANCH  13  14
ENDBRANCH   7  13
BRANCH   8  20
HETATM   20  C   UNL     1     -11.893   8.856  71.464  1.00  0.00    -0.332 C  
HETATM   21  O   UNL     1     -12.782   8.019  71.552  1.00  0.00    -0.308 OA 
BRANCH  20  22
HETATM   22  O   UNL     1     -10.844   8.945  72.321  1.00  0.00    -0.332 OA 
HETATM   23  C   UNL     1     -10.353   7.670  72.748  1.00  0.00    -0.295 C  
ENDBRANCH  20  22
ENDBRANCH   8  20
BRANCH  11  24
HETATM   24  C   UNL     1      -9.749   8.836  69.294  1.00  0.00    -0.172 A  
HETATM   25  C   UNL     1      -8.720   9.499  70.004  1.00  0.00    -0.242 A  
HETATM   26  C   UNL     1      -7.476   8.896  70.210  1.00  0.00    -0.074 A  
HETATM   27  C   UNL     1      -7.238   7.620  69.718  1.00  0.00    -0.079 A  
HETATM   28  C   UNL     1      -8.247   6.938  69.037  1.00  0.00    -0.125 A  
HETATM   29  C   UNL     1      -9.496   7.536  68.831  1.00  0.00    -0.145 A  
HETATM   30 CL   UNL     1     -10.687   6.600  68.002  1.00  0.00    -0.294 Cl 
ENDBRANCH  11  24
ENDBRANCH   4   6
ENDBRANCH   3   4
ENDBRANCH   2   3
TORSDOF 10
ENDMDL
MODEL       48
REMARK 921   NORMALIZED FREE ENERGY PREDICTED BY IDOCK:   -4.60 KCAL/MOL
REMARK 922        TOTAL FREE ENERGY PREDICTED BY IDOCK:   -9.02 KCAL/MOL
REMARK 923 INTER-LIGAND FREE ENERGY PREDICTED BY IDOCK:   -7.49 KCAL/MOL
REMARK 924 INTRA-LIGAND FREE ENERGY PREDICTED BY IDOCK:   -1.54 KCAL/MOL
REMARK 927      BINDING AFFINITY PREDICTED BY RF-SCORE:    0.00 PKD
ROOT
HETATM    1  C   UNL     1      -8.684   8.617  65.023  1.00  0.00    -0.154 C  
HETATM    2  C   UNL     1      -9.404   8.265  66.309  1.00  0.00    -0.204 C  
ENDROOT
BRANCH   2   3
HETATM    3  O   UNL     1      -9.928   9.493  66.801  1.00  0.00    -0.201 OA 
BRANCH   3   4
HETATM    4  C   UNL     1      -9.356  10.074  67.880  1.00  0.00    -0.140 C  
HETATM    5  O   UNL     1      -8.178  10.371  67.995  1.00  0.00    -0.112 OA 
BRANCH   4   6
HETATM    6  C   UNL     1     -10.440  10.484  68.819  1.00  0.00    -0.216 C  
HETATM    7  C   UNL     1     -10.851  11.773  68.929  1.00  0.00    -0.223 C  
HETATM    8  C   UNL     1     -12.053   9.917  70.745  1.00  0.00    -0.396 C  
HETATM    9  N   UNL     1     -11.824  12.104  69.856  1.00  0.00    -0.333 NA 
HETATM   10  C   UNL     1     -12.360  11.238  70.789  1.00  0.00    -0.398 C  
HETATM   11  C   UNL     1     -11.079   9.378  69.676  1.00  0.00    -0.163 C  
HETATM   12  C   UNL     1     -13.264  11.882  71.812  1.00  0.00    -0.426 C  
BRANCH   7  13
HETATM   13  C   UNL     1     -10.380  12.927  68.048  1.00  0.00    -0.227 C  
BRANCH  13  14
HETATM   14  O   UNL     1     -11.435  13.843  67.746  1.00  0.00    -0.289 OA 
BRANCH  14  15
HETATM   15  C   UNL     1     -11.002  15.208  67.785  1.00  0.00    -0.306 C  
BRANCH  15  16
HETATM   16  C   UNL     1     -11.777  15.963  68.868  1.00  0.00    -0.370 C  
HETATM   17  N   UNL     1     -11.427  15.488  70.208  1.00  0.00    -0.301 NA 
HETATM   18  H2  UNL     1     -10.421  15.534  70.370  1.00  0.00     0.000 HD 
HETATM   19  H1  UNL     1     -11.944  15.992  70.930  1.00  0.00     0.000 HD 
ENDBRANCH  15  16
ENDBRANCH  14  15
ENDBRANCH  13  14
ENDBRANCH   7  13
BRANCH   8  20
HETATM   20  C   UNL     1     -12.617   9.001  71.774  1.00  0.00    -0.367 C  
HETATM   21  O   UNL     1     -11.995   8.571  72.736  1.00  0.00    -0.335 OA 
BRANCH  20  22
HETATM   22  O   UNL     1     -13.918   8.712  71.517  1.00  0.00    -0.385 OA 
HETATM   23  C   UNL     1     -14.188   7.306  71.486  1.00  0.00    -0.390 C  
ENDBRANCH  20  22
ENDBRANCH   8  20
BRANCH  11  24
HETATM   24  C   UNL     1     -10.045   8.389  70.251  1.00  0.00    -0.196 A  
HETATM   25  C   UNL     1      -9.049   8.912  71.108  1.00  0.00    -0.315 A  
HETATM   26  C   UNL     1      -8.050   8.096  71.644  1.00  0.00    -0.150 A  
HETATM   27  C   UNL     1      -8.031   6.741  71.340  1.00  0.00    -0.109 A  
HETATM   28  C   UNL     1      -9.018   6.199  70.517  1.00  0.00    -0.148 A  
HETATM   29  C   UNL     1     -10.023   7.013  69.981  1.00  0.00    -0.181 A  
HETATM   30 CL   UNL     1     -11.216   6.243  68.998  1.00  0.00    -0.452 Cl 
ENDBRANCH  11  24
ENDBRANCH   4   6
ENDBRANCH   3   4
ENDBRANCH   2   3
TORSDOF 10
ENDMDL
MODEL       49
REMARK 921   NORMALIZED FREE ENERGY PREDICTED BY IDOCK:   -4.58 KCAL/MOL
REMARK 922        TOTAL FREE ENERGY PREDICTED BY IDOCK:   -8.99 KCAL/MOL
REMARK 923 INTER-LIGAND FREE ENERGY PREDICTED BY IDOCK:   -7.35 KCAL/MOL
REMARK 924 INTRA-LIGAND FREE ENERGY PREDICTED BY IDOCK:   -1.64 KCAL/MOL
REMARK 927      BINDING AFFINITY PREDICTED BY RF-SCORE:    0.00 PKD
ROOT
HETATM    1  C   UNL     1     -11.850  11.981  69.647  1.00  0.00    -0.401 C  
HETATM    2  C   UNL     1     -11.826  12.924  68.461  1.00  0.00    -0.313 C  
ENDROOT
BRANCH   2   3
HETATM    3  O   UNL     1     -11.171  12.208  67.420  1.00  0.00    -0.264 OA 
BRANCH   3   4
HETATM    4  C   UNL     1      -9.916  12.561  67.060  1.00  0.00    -0.214 C  
HETATM    5  O   UNL     1      -9.229  13.415  67.595  1.00  0.00    -0.194 OA 
BRANCH   4   6
HETATM    6  C   UNL     1      -9.433  11.586  66.039  1.00  0.00    -0.249 C  
HETATM    7  C   UNL     1      -9.747  11.704  64.723  1.00  0.00    -0.191 C  
HETATM    8  C   UNL     1      -8.264   9.368  65.450  1.00  0.00    -0.126 C  
HETATM    9  N   UNL     1      -9.317  10.741  63.828  1.00  0.00    -0.244 NA 
HETATM   10  C   UNL     1      -8.666   9.572  64.171  1.00  0.00    -0.215 C  
HETATM   11  C   UNL     1      -8.560  10.422  66.538  1.00  0.00    -0.134 C  
HETATM   12  C   UNL     1      -8.470   8.595  63.037  1.00  0.00    -0.113 C  
BRANCH   7  13
HETATM   13  C   UNL     1     -10.498  12.877  64.098  1.00  0.00    -0.406 C  
BRANCH  13  14
HETATM   14  O   UNL     1     -11.901  12.828  64.367  1.00  0.00    -0.342 OA 
BRANCH  14  15
HETATM   15  C   UNL     1     -12.503  14.127  64.370  1.00  0.00    -0.293 C  
BRANCH  15  16
HETATM   16  C   UNL     1     -11.464  15.175  64.775  1.00  0.00    -0.383 C  
HETATM   17  N   UNL     1     -11.556  16.374  63.940  1.00  0.00    -1.602 NA 
HETATM   18  H2  UNL     1     -12.500  16.762  63.947  1.00  0.00     0.000 HD 
HETATM   19  H1  UNL     1     -10.864  17.073  64.210  1.00  0.00     0.000 HD 
ENDBRANCH  15  16
ENDBRANCH  14  15
ENDBRANCH  13  14
ENDBRANCH   7  13
BRANCH   8  20
HETATM   20  C   UNL     1      -7.589   8.091  65.809  1.00  0.00    -0.083 C  
HETATM   21  O   UNL     1      -6.435   8.004  66.206  1.00  0.00    -0.046 OA 
BRANCH  20  22
HETATM   22  O   UNL     1      -8.423   7.031  65.653  1.00  0.00    -0.146 OA 
HETATM   23  C   UNL     1      -7.813   5.780  65.985  1.00  0.00    -0.101 C  
ENDBRANCH  20  22
ENDBRANCH   8  20
BRANCH  11  24
HETATM   24  C   UNL     1      -9.079   9.801  67.850  1.00  0.00    -0.126 A  
HETATM   25  C   UNL     1     -10.183   8.922  67.764  1.00  0.00    -0.283 A  
HETATM   26  C   UNL     1     -10.741   8.343  68.906  1.00  0.00    -0.095 A  
HETATM   27  C   UNL     1     -10.205   8.626  70.155  1.00  0.00    -0.204 A  
HETATM   28  C   UNL     1      -9.100   9.471  70.261  1.00  0.00    -0.296 A  
HETATM   29  C   UNL     1      -8.534  10.051  69.119  1.00  0.00    -0.156 A  
HETATM   30 CL   UNL     1      -7.152  11.059  69.352  1.00  0.00    -0.128 Cl 
ENDBRANCH  11  24
ENDBRANCH   4   6
ENDBRANCH   3   4
ENDBRANCH   2   3
TORSDOF 10
ENDMDL
MODEL       50
REMARK 921   NORMALIZED FREE ENERGY PREDICTED BY IDOCK:   -4.57 KCAL/MOL
REMARK 922        TOTAL FREE ENERGY PREDICTED BY IDOCK:   -8.97 KCAL/MOL
REMARK 923 INTER-LIGAND FREE ENERGY PREDICTED BY IDOCK:   -7.57 KCAL/MOL
REMARK 924 INTRA-LIGAND FREE ENERGY PREDICTED BY IDOCK:   -1.39 KCAL/MOL
REMARK 927      BINDING AFFINITY PREDICTED BY RF-SCORE:    0.00 PKD
ROOT
HETATM    1  C   UNL     1     -12.102  14.737  69.664  1.00  0.00    -0.346 C  
HETATM    2  C   UNL     1     -12.181  13.286  70.095  1.00  0.00    -0.306 C  
ENDROOT
BRANCH   2   3
HETATM    3  O   UNL     1     -11.153  12.619  69.372  1.00  0.00    -0.178 OA 
BRANCH   3   4
HETATM    4  C   UNL     1     -11.430  11.448  68.752  1.00  0.00    -0.290 C  
HETATM    5  O   UNL     1     -12.456  10.800  68.870  1.00  0.00    -0.377 OA 
BRANCH   4   6
HETATM    6  C   UNL     1     -10.362  11.191  67.743  1.00  0.00    -0.215 C  
HETATM    7  C   UNL     1     -10.508  11.529  66.436  1.00  0.00    -0.250 C  
HETATM    8  C   UNL     1      -8.110  10.119  67.103  1.00  0.00    -0.120 C  
HETATM    9  N   UNL     1      -9.507  11.217  65.532  1.00  0.00    -0.225 NA 
HETATM   10  C   UNL     1      -8.379  10.474  65.821  1.00  0.00    -0.166 C  
HETATM   11  C   UNL     1      -9.075  10.512  68.241  1.00  0.00    -0.146 C  
HETATM   12  C   UNL     1      -7.533  10.109  64.626  1.00  0.00    -0.132 C  
BRANCH   7  13
HETATM   13  C   UNL     1     -11.682  12.313  65.854  1.00  0.00    -0.389 C  
BRANCH  13  14
HETATM   14  O   UNL     1     -11.765  13.637  66.385  1.00  0.00    -0.338 OA 
BRANCH  14  15
HETATM   15  C   UNL     1     -12.260  14.580  65.428  1.00  0.00    -0.294 C  
BRANCH  15  16
HETATM   16  C   UNL     1     -11.090  15.358  64.820  1.00  0.00    -0.403 C  
HETATM   17  N   UNL     1     -11.553  16.530  64.075  1.00  0.00    -1.544 NA 
HETATM   18  H2  UNL     1     -12.141  17.132  64.654  1.00  0.00     0.000 HD 
HETATM   19  H1  UNL     1     -10.774  17.049  63.670  1.00  0.00     0.000 HD 
ENDBRANCH  15  16
ENDBRANCH  14  15
ENDBRANCH  13  14
ENDBRANCH   7  13
BRANCH   8  20
HETATM   20  C   UNL     1      -6.906   9.293  67.394  1.00  0.00    -0.077 C  
HETATM   21  O   UNL     1      -5.892   9.711  67.936  1.00  0.00    -0.041 OA 
BRANCH  20  22
HETATM   22  O   UNL     1      -7.080   8.008  66.992  1.00  0.00    -0.078 OA 
HETATM   23  C   UNL     1      -5.855   7.272  66.909  1.00  0.00    -0.030 C  
ENDBRANCH  20  22
ENDBRANCH   8  20
BRANCH  11  24
HETATM   24  C   UNL     1      -9.346   9.357  69.225  1.00  0.00    -0.167 A  
HETATM   25  C   UNL     1      -8.884   9.509  70.553  1.00  0.00    -0.253 A  
HETATM   26  C   UNL     1      -9.053   8.497  71.501  1.00  0.00    -0.281 A  
HETATM   27  C   UNL     1      -9.692   7.317  71.143  1.00  0.00    -0.171 A  
HETATM   28  C   UNL     1     -10.178   7.155  69.845  1.00  0.00    -0.215 A  
HETATM   29  C   UNL     1     -10.014   8.168  68.893  1.00  0.00    -0.192 A  
HETATM   30 CL   UNL     1     -10.675   7.885  67.323  1.00  0.00    -0.354 Cl 
ENDBRANCH  11  24
ENDBRANCH   4   6
ENDBRANCH   3   4
ENDBRANCH   2   3
TORSDOF 10
ENDMDL
MODEL       51
REMARK 921   NORMALIZED FREE ENERGY PREDICTED BY IDOCK:   -4.56 KCAL/MOL
REMARK 922        TOTAL FREE ENERGY PREDICTED BY IDOCK:   -8.97 KCAL/MOL
REMARK 923 INTER-LIGAND FREE ENERGY PREDICTED BY IDOCK:   -7.33 KCAL/MOL
REMARK 924 INTRA-LIGAND FREE ENERGY PREDICTED BY IDOCK:   -1.63 KCAL/MOL
REMARK 927      BINDING AFFINITY PREDICTED BY RF-SCORE:    0.00 PKD
ROOT
HETATM    1  C   UNL     1      -8.921  13.819  68.181  1.00  0.00    -0.190 C  
HETATM    2  C   UNL     1     -10.413  13.558  68.136  1.00  0.00    -0.244 C  
ENDROOT
BRANCH   2   3
HETATM    3  O   UNL     1     -10.637  12.479  69.037  1.00  0.00    -0.165 OA 
BRANCH   3   4
HETATM    4  C   UNL     1     -11.560  11.539  68.730  1.00  0.00    -0.316 C  
HETATM    5  O   UNL     1     -12.238  11.503  67.717  1.00  0.00    -0.560 OA 
BRANCH   4   6
HETATM    6  C   UNL     1     -11.460  10.442  69.736  1.00  0.00    -0.348 C  
HETATM    7  C   UNL     1     -12.117  10.488  70.923  1.00  0.00    -0.383 C  
HETATM    8  C   UNL     1     -10.375   8.251  70.545  1.00  0.00    -0.217 C  
HETATM    9  N   UNL     1     -11.945   9.467  71.841  1.00  0.00    -0.358 NA 
HETATM   10  C   UNL     1     -11.053   8.420  71.707  1.00  0.00    -0.290 C  
HETATM   11  C   UNL     1     -10.566   9.242  69.377  1.00  0.00    -0.234 C  
HETATM   12  C   UNL     1     -10.914   7.541  72.926  1.00  0.00    -0.434 C  
BRANCH   7  13
HETATM   13  C   UNL     1     -13.122  11.561  71.333  1.00  0.00    -0.258 C  
BRANCH  13  14
HETATM   14  O   UNL     1     -12.497  12.824  71.575  1.00  0.00    -0.210 OA 
BRANCH  14  15
HETATM   15  C   UNL     1     -13.358  13.738  72.263  1.00  0.00    -0.521 C  
BRANCH  15  16
HETATM   16  C   UNL     1     -13.140  15.154  71.727  1.00  0.00    -0.378 C  
HETATM   17  N   UNL     1     -13.182  15.187  70.263  1.00  0.00    -0.660 NA 
HETATM   18  H2  UNL     1     -14.048  14.782  69.906  1.00  0.00     0.000 HD 
HETATM   19  H1  UNL     1     -13.037  16.131  69.905  1.00  0.00     0.000 HD 
ENDBRANCH  15  16
ENDBRANCH  14  15
ENDBRANCH  13  14
ENDBRANCH   7  13
BRANCH   8  20
HETATM   20  C   UNL     1      -9.397   7.135  70.426  1.00  0.00    -0.159 C  
HETATM   21  O   UNL     1      -8.297   7.115  70.962  1.00  0.00    -0.121 OA 
BRANCH  20  22
HETATM   22  O   UNL     1      -9.886   6.130  69.655  1.00  0.00    -0.155 OA 
HETATM   23  C   UNL     1      -9.093   5.874  68.492  1.00  0.00    -0.111 C  
ENDBRANCH  20  22
ENDBRANCH   8  20
BRANCH  11  24
HETATM   24  C   UNL     1      -9.236   9.659  68.719  1.00  0.00    -0.141 A  
HETATM   25  C   UNL     1      -8.248  10.235  69.552  1.00  0.00    -0.165 A  
HETATM   26  C   UNL     1      -7.028  10.675  69.034  1.00  0.00    -0.080 A  
HETATM   27  C   UNL     1      -6.768  10.543  67.676  1.00  0.00    -0.073 A  
HETATM   28  C   UNL     1      -7.718   9.955  66.841  1.00  0.00    -0.098 A  
HETATM   29  C   UNL     1      -8.941   9.509  67.356  1.00  0.00    -0.131 A  
HETATM   30 CL   UNL     1     -10.038   8.770  66.246  1.00  0.00    -0.331 Cl 
ENDBRANCH  11  24
ENDBRANCH   4   6
ENDBRANCH   3   4
ENDBRANCH   2   3
TORSDOF 10
ENDMDL
MODEL       52
REMARK 921   NORMALIZED FREE ENERGY PREDICTED BY IDOCK:   -4.55 KCAL/MOL
REMARK 922        TOTAL FREE ENERGY PREDICTED BY IDOCK:   -8.94 KCAL/MOL
REMARK 923 INTER-LIGAND FREE ENERGY PREDICTED BY IDOCK:   -7.06 KCAL/MOL
REMARK 924 INTRA-LIGAND FREE ENERGY PREDICTED BY IDOCK:   -1.88 KCAL/MOL
REMARK 927      BINDING AFFINITY PREDICTED BY RF-SCORE:    0.00 PKD
ROOT
HETATM    1  C   UNL     1     -11.228  11.647  66.756  1.00  0.00    -0.371 C  
HETATM    2  C   UNL     1     -11.289  10.735  67.965  1.00  0.00    -0.307 C  
ENDROOT
BRANCH   2   3
HETATM    3  O   UNL     1     -10.106   9.945  67.905  1.00  0.00    -0.158 OA 
BRANCH   3   4
HETATM    4  C   UNL     1     -10.208   8.596  67.911  1.00  0.00    -0.219 C  
HETATM    5  O   UNL     1     -10.898   7.926  67.162  1.00  0.00    -0.296 OA 
BRANCH   4   6
HETATM    6  C   UNL     1      -9.177   8.055  68.843  1.00  0.00    -0.147 C  
HETATM    7  C   UNL     1      -8.139   7.295  68.409  1.00  0.00    -0.125 C  
HETATM    8  C   UNL     1      -8.340   7.636  71.242  1.00  0.00    -0.108 C  
HETATM    9  N   UNL     1      -7.242   6.773  69.325  1.00  0.00    -0.087 NA 
HETATM   10  C   UNL     1      -7.365   6.866  70.698  1.00  0.00    -0.074 C  
HETATM   11  C   UNL     1      -9.338   8.387  70.336  1.00  0.00    -0.170 C  
HETATM   12  C   UNL     1      -6.363   6.055  71.483  1.00  0.00    -0.048 C  
BRANCH   7  13
HETATM   13  C   UNL     1      -7.809   7.005  66.947  1.00  0.00    -0.107 C  
BRANCH  13  14
HETATM   14  O   UNL     1      -7.734   5.603  66.676  1.00  0.00    -0.097 OA 
BRANCH  14  15
HETATM   15  C   UNL     1      -8.951   4.919  66.995  1.00  0.00    -0.109 C  
BRANCH  15  16
HETATM   16  C   UNL     1      -9.724   4.619  65.708  1.00  0.00    -0.197 C  
HETATM   17  N   UNL     1     -11.105   5.101  65.787  1.00  0.00    -0.808 NA 
HETATM   18  H2  UNL     1     -11.141   6.093  66.021  1.00  0.00     0.000 HD 
HETATM   19  H1  UNL     1     -11.621   4.902  64.929  1.00  0.00     0.000 HD 
ENDBRANCH  15  16
ENDBRANCH  14  15
ENDBRANCH  13  14
ENDBRANCH   7  13
BRANCH   8  20
HETATM   20  C   UNL     1      -8.476   7.703  72.723  1.00  0.00    -0.129 C  
HETATM   21  O   UNL     1      -8.169   8.670  73.406  1.00  0.00    -0.408 OA 
BRANCH  20  22
HETATM   22  O   UNL     1      -8.999   6.554  73.222  1.00  0.00    -0.128 OA 
HETATM   23  C   UNL     1     -10.093   6.774  74.118  1.00  0.00    -0.350 C  
ENDBRANCH  20  22
ENDBRANCH   8  20
BRANCH  11  24
HETATM   24  C   UNL     1     -10.796   8.271  70.824  1.00  0.00    -0.252 A  
HETATM   25  C   UNL     1     -11.401   9.435  71.355  1.00  0.00    -0.451 A  
HETATM   26  C   UNL     1     -12.705   9.411  71.854  1.00  0.00    -0.484 A  
HETATM   27  C   UNL     1     -13.432   8.229  71.828  1.00  0.00    -0.377 A  
HETATM   28  C   UNL     1     -12.865   7.076  71.286  1.00  0.00    -0.376 A  
HETATM   29  C   UNL     1     -11.559   7.095  70.781  1.00  0.00    -0.318 A  
HETATM   30 CL   UNL     1     -10.957   5.624  70.105  1.00  0.00    -0.360 Cl 
ENDBRANCH  11  24
ENDBRANCH   4   6
ENDBRANCH   3   4
ENDBRANCH   2   3
TORSDOF 10
ENDMDL
MODEL       53
REMARK 921   NORMALIZED FREE ENERGY PREDICTED BY IDOCK:   -4.52 KCAL/MOL
REMARK 922        TOTAL FREE ENERGY PREDICTED BY IDOCK:   -8.90 KCAL/MOL
REMARK 923 INTER-LIGAND FREE ENERGY PREDICTED BY IDOCK:   -7.12 KCAL/MOL
REMARK 924 INTRA-LIGAND FREE ENERGY PREDICTED BY IDOCK:   -1.78 KCAL/MOL
REMARK 927      BINDING AFFINITY PREDICTED BY RF-SCORE:    0.00 PKD
ROOT
HETATM    1  C   UNL     1     -12.933  13.350  71.545  1.00  0.00    -0.429 C  
HETATM    2  C   UNL     1     -12.555  14.230  70.370  1.00  0.00    -0.343 C  
ENDROOT
BRANCH   2   3
HETATM    3  O   UNL     1     -12.145  13.335  69.342  1.00  0.00    -0.300 OA 
BRANCH   3   4
HETATM    4  C   UNL     1     -11.760  13.832  68.144  1.00  0.00    -0.357 C  
HETATM    5  O   UNL     1     -12.488  14.050  67.191  1.00  0.00    -0.293 OA 
BRANCH   4   6
HETATM    6  C   UNL     1     -10.337  14.267  68.255  1.00  0.00    -0.242 C  
HETATM    7  C   UNL     1      -9.981  15.577  68.259  1.00  0.00    -0.213 C  
HETATM    8  C   UNL     1      -7.826  13.696  68.281  1.00  0.00    -0.141 C  
HETATM    9  N   UNL     1      -8.642  15.923  68.309  1.00  0.00    -0.172 NA 
HETATM   10  C   UNL     1      -7.589  15.031  68.246  1.00  0.00    -0.111 C  
HETATM   11  C   UNL     1      -9.272  13.162  68.359  1.00  0.00    -0.141 C  
HETATM   12  C   UNL     1      -6.224  15.664  68.128  1.00  0.00    -0.135 C  
BRANCH   7  13
HETATM   13  C   UNL     1     -10.952  16.755  68.286  1.00  0.00    -0.327 C  
BRANCH  13  14
HETATM   14  O   UNL     1     -10.279  18.010  68.413  1.00  0.00    -0.362 OA 
BRANCH  14  15
HETATM   15  C   UNL     1     -10.767  18.988  67.489  1.00  0.00    -0.446 C  
BRANCH  15  16
HETATM   16  C   UNL     1     -10.245  18.674  66.084  1.00  0.00    -0.416 C  
HETATM   17  N   UNL     1      -8.826  18.314  66.106  1.00  0.00    -0.494 NA 
HETATM   18  H2  UNL     1      -8.646  17.545  66.751  1.00  0.00     0.000 HD 
HETATM   19  H1  UNL     1      -8.478  18.105  65.170  1.00  0.00     0.000 HD 
ENDBRANCH  15  16
ENDBRANCH  14  15
ENDBRANCH  13  14
ENDBRANCH   7  13
BRANCH   8  20
HETATM   20  C   UNL     1      -6.683  12.748  68.183  1.00  0.00    -0.092 C  
HETATM   21  O   UNL     1      -6.192  12.152  69.133  1.00  0.00    -0.074 OA 
BRANCH  20  22
HETATM   22  O   UNL     1      -6.259  12.617  66.901  1.00  0.00    -0.203 OA 
HETATM   23  C   UNL     1      -5.860  11.283  66.571  1.00  0.00    -0.146 C  
ENDBRANCH  20  22
ENDBRANCH   8  20
BRANCH  11  24
HETATM   24  C   UNL     1      -9.530  11.986  67.396  1.00  0.00    -0.177 A  
HETATM   25  C   UNL     1      -9.532  12.267  66.009  1.00  0.00    -0.194 A  
HETATM   26  C   UNL     1      -9.794  11.269  65.068  1.00  0.00    -0.307 A  
HETATM   27  C   UNL     1     -10.053   9.972  65.491  1.00  0.00    -0.325 A  
HETATM   28  C   UNL     1     -10.032   9.668  66.852  1.00  0.00    -0.272 A  
HETATM   29  C   UNL     1      -9.766  10.663  67.800  1.00  0.00    -0.161 A  
HETATM   30 CL   UNL     1      -9.733  10.181  69.457  1.00  0.00    -0.246 Cl 
ENDBRANCH  11  24
ENDBRANCH   4   6
ENDBRANCH   3   4
ENDBRANCH   2   3
TORSDOF 10
ENDMDL
MODEL       54
REMARK 921   NORMALIZED FREE ENERGY PREDICTED BY IDOCK:   -4.52 KCAL/MOL
REMARK 922        TOTAL FREE ENERGY PREDICTED BY IDOCK:   -8.89 KCAL/MOL
REMARK 923 INTER-LIGAND FREE ENERGY PREDICTED BY IDOCK:   -7.34 KCAL/MOL
REMARK 924 INTRA-LIGAND FREE ENERGY PREDICTED BY IDOCK:   -1.55 KCAL/MOL
REMARK 927      BINDING AFFINITY PREDICTED BY RF-SCORE:    0.00 PKD
ROOT
HETATM    1  C   UNL     1     -12.138  12.538  63.547  1.00  0.00    -0.653 C  
HETATM    2  C   UNL     1     -12.602  12.742  64.975  1.00  0.00    -0.468 C  
ENDROOT
BRANCH   2   3
HETATM    3  O   UNL     1     -11.741  13.738  65.516  1.00  0.00    -0.326 OA 
BRANCH   3   4
HETATM    4  C   UNL     1     -11.577  13.818  66.856  1.00  0.00    -0.370 C  
HETATM    5  O   UNL     1     -12.392  13.485  67.700  1.00  0.00    -0.248 OA 
BRANCH   4   6
HETATM    6  C   UNL     1     -10.156  14.180  67.131  1.00  0.00    -0.258 C  
HETATM    7  C   UNL     1      -9.651  15.403  66.825  1.00  0.00    -0.241 C  
HETATM    8  C   UNL     1      -7.780  13.497  67.850  1.00  0.00    -0.153 C  
HETATM    9  N   UNL     1      -8.312  15.666  67.052  1.00  0.00    -0.207 NA 
HETATM   10  C   UNL     1      -7.380  14.738  67.476  1.00  0.00    -0.201 C  
HETATM   11  C   UNL     1      -9.270  13.101  67.775  1.00  0.00    -0.203 C  
HETATM   12  C   UNL     1      -5.950  15.221  67.467  1.00  0.00    -0.042 C  
BRANCH   7  13
HETATM   13  C   UNL     1     -10.461  16.586  66.301  1.00  0.00    -0.281 C  
BRANCH  13  14
HETATM   14  O   UNL     1      -9.917  17.841  66.716  1.00  0.00    -0.302 OA 
BRANCH  14  15
HETATM   15  C   UNL     1     -10.432  18.939  65.954  1.00  0.00    -0.391 C  
BRANCH  15  16
HETATM   16  C   UNL     1      -9.420  20.087  65.959  1.00  0.00    -0.292 C  
HETATM   17  N   UNL     1      -9.558  20.920  67.155  1.00  0.00    -0.689 NA 
HETATM   18  H2  UNL     1      -9.493  20.362  68.007  1.00  0.00     0.000 HD 
HETATM   19  H1  UNL     1      -8.883  21.685  67.159  1.00  0.00     0.000 HD 
ENDBRANCH  15  16
ENDBRANCH  14  15
ENDBRANCH  13  14
ENDBRANCH   7  13
BRANCH   8  20
HETATM   20  C   UNL     1      -6.760  12.500  68.277  1.00  0.00    -0.079 C  
HETATM   21  O   UNL     1      -5.892  12.040  67.549  1.00  0.00    -0.079 OA 
BRANCH  20  22
HETATM   22  O   UNL     1      -6.909  12.172  69.586  1.00  0.00    -0.031 OA 
HETATM   23  C   UNL     1      -5.891  12.727  70.426  1.00  0.00    -0.153 C  
ENDBRANCH  20  22
ENDBRANCH   8  20
BRANCH  11  24
HETATM   24  C   UNL     1      -9.488  11.702  67.168  1.00  0.00    -0.183 A  
HETATM   25  C   UNL     1      -9.156  11.523  65.804  1.00  0.00    -0.164 A  
HETATM   26  C   UNL     1      -9.357  10.298  65.163  1.00  0.00    -0.279 A  
HETATM   27  C   UNL     1      -9.887   9.228  65.871  1.00  0.00    -0.335 A  
HETATM   28  C   UNL     1     -10.199   9.374  67.222  1.00  0.00    -0.308 A  
HETATM   29  C   UNL     1      -9.996  10.598  67.871  1.00  0.00    -0.166 A  
HETATM   30 CL   UNL     1     -10.386  10.671  69.552  1.00  0.00    -0.238 Cl 
ENDBRANCH  11  24
ENDBRANCH   4   6
ENDBRANCH   3   4
ENDBRANCH   2   3
TORSDOF 10
ENDMDL
MODEL       55
REMARK 921   NORMALIZED FREE ENERGY PREDICTED BY IDOCK:   -4.52 KCAL/MOL
REMARK 922        TOTAL FREE ENERGY PREDICTED BY IDOCK:   -8.89 KCAL/MOL
REMARK 923 INTER-LIGAND FREE ENERGY PREDICTED BY IDOCK:   -7.13 KCAL/MOL
REMARK 924 INTRA-LIGAND FREE ENERGY PREDICTED BY IDOCK:   -1.76 KCAL/MOL
REMARK 927      BINDING AFFINITY PREDICTED BY RF-SCORE:    0.00 PKD
ROOT
HETATM    1  C   UNL     1      -8.809   6.795  69.235  1.00  0.00    -0.137 C  
HETATM    2  C   UNL     1      -8.451   8.091  68.536  1.00  0.00    -0.128 C  
ENDROOT
BRANCH   2   3
HETATM    3  O   UNL     1      -9.458   9.021  68.921  1.00  0.00    -0.149 OA 
BRANCH   3   4
HETATM    4  C   UNL     1     -10.356   9.444  68.002  1.00  0.00    -0.220 C  
HETATM    5  O   UNL     1     -11.026   8.732  67.273  1.00  0.00    -0.115 OA 
BRANCH   4   6
HETATM    6  C   UNL     1     -10.545  10.914  68.177  1.00  0.00    -0.233 C  
HETATM    7  C   UNL     1     -11.440  11.426  69.060  1.00  0.00    -0.300 C  
HETATM    8  C   UNL     1     -10.074  13.328  67.416  1.00  0.00    -0.233 C  
HETATM    9  N   UNL     1     -11.612  12.797  69.141  1.00  0.00    -0.301 NA 
HETATM   10  C   UNL     1     -11.017  13.724  68.307  1.00  0.00    -0.250 C  
HETATM   11  C   UNL     1      -9.682  11.839  67.303  1.00  0.00    -0.188 C  
HETATM   12  C   UNL     1     -11.509  15.141  68.474  1.00  0.00    -0.335 C  
BRANCH   7  13
HETATM   13  C   UNL     1     -12.257  10.613  70.060  1.00  0.00    -0.298 C  
BRANCH  13  14
HETATM   14  O   UNL     1     -11.497  10.258  71.219  1.00  0.00    -0.318 OA 
BRANCH  14  15
HETATM   15  C   UNL     1     -11.754   8.918  71.652  1.00  0.00    -0.341 C  
BRANCH  15  16
HETATM   16  C   UNL     1     -10.498   8.341  72.310  1.00  0.00    -0.321 C  
HETATM   17  N   UNL     1      -9.293   9.057  71.888  1.00  0.00    -0.363 NA 
HETATM   18  H2  UNL     1      -9.375  10.060  72.057  1.00  0.00     0.000 HD 
HETATM   19  H1  UNL     1      -8.456   8.673  72.327  1.00  0.00     0.000 HD 
ENDBRANCH  15  16
ENDBRANCH  14  15
ENDBRANCH  13  14
ENDBRANCH   7  13
BRANCH   8  20
HETATM   20  C   UNL     1      -9.463  14.334  66.504  1.00  0.00    -0.287 C  
HETATM   21  O   UNL     1      -9.984  14.747  65.477  1.00  0.00    -0.342 OA 
BRANCH  20  22
HETATM   22  O   UNL     1      -8.255  14.747  66.964  1.00  0.00    -0.210 OA 
HETATM   23  C   UNL     1      -8.081  16.166  66.899  1.00  0.00    -0.240 C  
ENDBRANCH  20  22
ENDBRANCH   8  20
BRANCH  11  24
HETATM   24  C   UNL     1      -9.569  11.357  65.844  1.00  0.00    -0.254 A  
HETATM   25  C   UNL     1      -8.357  10.742  65.452  1.00  0.00    -0.104 A  
HETATM   26  C   UNL     1      -8.155  10.308  64.139  1.00  0.00    -0.138 A  
HETATM   27  C   UNL     1      -9.159  10.475  63.195  1.00  0.00    -0.267 A  
HETATM   28  C   UNL     1     -10.372  11.056  63.566  1.00  0.00    -0.402 A  
HETATM   29  C   UNL     1     -10.581  11.489  64.881  1.00  0.00    -0.303 A  
HETATM   30 CL   UNL     1     -12.125  12.169  65.248  1.00  0.00    -0.351 Cl 
ENDBRANCH  11  24
ENDBRANCH   4   6
ENDBRANCH   3   4
ENDBRANCH   2   3
TORSDOF 10
ENDMDL
MODEL       56
REMARK 921   NORMALIZED FREE ENERGY PREDICTED BY IDOCK:   -4.51 KCAL/MOL
REMARK 922        TOTAL FREE ENERGY PREDICTED BY IDOCK:   -8.88 KCAL/MOL
REMARK 923 INTER-LIGAND FREE ENERGY PREDICTED BY IDOCK:   -7.13 KCAL/MOL
REMARK 924 INTRA-LIGAND FREE ENERGY PREDICTED BY IDOCK:   -1.75 KCAL/MOL
REMARK 927      BINDING AFFINITY PREDICTED BY RF-SCORE:    0.00 PKD
ROOT
HETATM    1  C   UNL     1      -5.269  11.422  71.326  1.00  0.00    -0.058 C  
HETATM    2  C   UNL     1      -5.860  10.357  70.425  1.00  0.00    -0.094 C  
ENDROOT
BRANCH   2   3
HETATM    3  O   UNL     1      -6.726   9.593  71.257  1.00  0.00    -0.293 OA 
BRANCH   3   4
HETATM    4  C   UNL     1      -7.573   8.701  70.692  1.00  0.00    -0.080 C  
HETATM    5  O   UNL     1      -7.277   7.593  70.279  1.00  0.00    -0.064 OA 
BRANCH   4   6
HETATM    6  C   UNL     1      -8.964   9.215  70.853  1.00  0.00    -0.298 C  
HETATM    7  C   UNL     1      -9.763   8.825  71.878  1.00  0.00    -0.316 C  
HETATM    8  C   UNL     1     -10.972  10.540  69.933  1.00  0.00    -0.359 C  
HETATM    9  N   UNL     1     -11.065   9.291  71.947  1.00  0.00    -0.331 NA 
HETATM   10  C   UNL     1     -11.686  10.058  70.981  1.00  0.00    -0.392 C  
HETATM   11  C   UNL     1      -9.471  10.209  69.794  1.00  0.00    -0.201 C  
HETATM   12  C   UNL     1     -13.164  10.281  71.196  1.00  0.00    -0.429 C  
BRANCH   7  13
HETATM   13  C   UNL     1      -9.331   7.945  73.048  1.00  0.00    -0.265 C  
BRANCH  13  14
HETATM   14  O   UNL     1     -10.446   7.388  73.748  1.00  0.00    -0.346 OA 
BRANCH  14  15
HETATM   15  C   UNL     1     -10.539   5.968  73.587  1.00  0.00    -0.264 C  
BRANCH  15  16
HETATM   16  C   UNL     1     -11.417   5.645  72.375  1.00  0.00    -0.251 C  
HETATM   17  N   UNL     1     -12.594   6.515  72.317  1.00  0.00    -0.554 NA 
HETATM   18  H2  UNL     1     -12.330   7.501  72.334  1.00  0.00     0.000 HD 
HETATM   19  H1  UNL     1     -13.179   6.300  71.509  1.00  0.00     0.000 HD 
ENDBRANCH  15  16
ENDBRANCH  14  15
ENDBRANCH  13  14
ENDBRANCH   7  13
BRANCH   8  20
HETATM   20  C   UNL     1     -11.662  11.341  68.885  1.00  0.00    -0.341 C  
HETATM   21  O   UNL     1     -11.969  10.919  67.779  1.00  0.00    -0.553 OA 
BRANCH  20  22
HETATM   22  O   UNL     1     -11.920  12.601  69.318  1.00  0.00    -0.292 OA 
HETATM   23  C   UNL     1     -10.934  13.553  68.906  1.00  0.00    -0.252 C  
ENDBRANCH  20  22
ENDBRANCH   8  20
BRANCH  11  24
HETATM   24  C   UNL     1      -9.074   9.814  68.358  1.00  0.00    -0.123 A  
HETATM   25  C   UNL     1      -8.154  10.649  67.682  1.00  0.00    -0.107 A  
HETATM   26  C   UNL     1      -7.768  10.387  66.365  1.00  0.00    -0.125 A  
HETATM   27  C   UNL     1      -8.286   9.284  65.701  1.00  0.00    -0.128 A  
HETATM   28  C   UNL     1      -9.175   8.432  66.357  1.00  0.00    -0.253 A  
HETATM   29  C   UNL     1      -9.563   8.688  67.678  1.00  0.00    -0.155 A  
HETATM   30 CL   UNL     1     -10.644   7.560  68.412  1.00  0.00    -0.207 Cl 
ENDBRANCH  11  24
ENDBRANCH   4   6
ENDBRANCH   3   4
ENDBRANCH   2   3
TORSDOF 10
ENDMDL
MODEL       57
REMARK 921   NORMALIZED FREE ENERGY PREDICTED BY IDOCK:   -4.47 KCAL/MOL
REMARK 922        TOTAL FREE ENERGY PREDICTED BY IDOCK:   -8.83 KCAL/MOL
REMARK 923 INTER-LIGAND FREE ENERGY PREDICTED BY IDOCK:   -7.56 KCAL/MOL
REMARK 924 INTRA-LIGAND FREE ENERGY PREDICTED BY IDOCK:   -1.27 KCAL/MOL
REMARK 927      BINDING AFFINITY PREDICTED BY RF-SCORE:    0.00 PKD
ROOT
HETATM    1  C   UNL     1     -13.881   8.909  72.134  1.00  0.00    -0.531 C  
HETATM    2  C   UNL     1     -12.492   8.318  71.997  1.00  0.00    -0.351 C  
ENDROOT
BRANCH   2   3
HETATM    3  O   UNL     1     -11.968   8.856  70.789  1.00  0.00    -0.253 OA 
BRANCH   3   4
HETATM    4  C   UNL     1     -10.767   9.480  70.806  1.00  0.00    -0.321 C  
HETATM    5  O   UNL     1      -9.824   9.201  71.527  1.00  0.00    -0.304 OA 
BRANCH   4   6
HETATM    6  C   UNL     1     -10.716  10.425  69.652  1.00  0.00    -0.304 C  
HETATM    7  C   UNL     1     -11.502  11.530  69.589  1.00  0.00    -0.301 C  
HETATM    8  C   UNL     1      -9.882  11.015  67.288  1.00  0.00    -0.204 C  
HETATM    9  N   UNL     1     -11.452  12.342  68.469  1.00  0.00    -0.277 NA 
HETATM   10  C   UNL     1     -10.733  12.070  67.322  1.00  0.00    -0.232 C  
HETATM   11  C   UNL     1      -9.733  10.092  68.517  1.00  0.00    -0.164 C  
HETATM   12  C   UNL     1     -10.991  13.011  66.170  1.00  0.00    -0.300 C  
BRANCH   7  13
HETATM   13  C   UNL     1     -12.419  12.025  70.705  1.00  0.00    -0.247 C  
BRANCH  13  14
HETATM   14  O   UNL     1     -12.851  13.371  70.493  1.00  0.00    -0.164 OA 
BRANCH  14  15
HETATM   15  C   UNL     1     -12.423  14.253  71.537  1.00  0.00    -0.356 C  
BRANCH  15  16
HETATM   16  C   UNL     1     -13.469  14.275  72.654  1.00  0.00    -0.525 C  
HETATM   17  N   UNL     1     -13.693  15.633  73.154  1.00  0.00    -0.640 NA 
HETATM   18  H2  UNL     1     -13.940  16.272  72.398  1.00  0.00     0.000 HD 
HETATM   19  H1  UNL     1     -14.391  15.647  73.898  1.00  0.00     0.000 HD 
ENDBRANCH  15  16
ENDBRANCH  14  15
ENDBRANCH  13  14
ENDBRANCH   7  13
BRANCH   8  20
HETATM   20  C   UNL     1      -9.135  10.718  66.035  1.00  0.00    -0.185 C  
HETATM   21  O   UNL     1      -7.934  10.895  65.884  1.00  0.00    -0.157 OA 
BRANCH  20  22
HETATM   22  O   UNL     1      -9.957  10.212  65.080  1.00  0.00    -0.310 OA 
HETATM   23  C   UNL     1      -9.256   9.742  63.924  1.00  0.00    -0.198 C  
ENDBRANCH  20  22
ENDBRANCH   8  20
BRANCH  11  24
HETATM   24  C   UNL     1      -9.726   8.596  68.146  1.00  0.00    -0.178 A  
HETATM   25  C   UNL     1     -10.899   8.063  67.562  1.00  0.00    -0.132 A  
HETATM   26  C   UNL     1     -10.994   6.709  67.229  1.00  0.00    -0.456 A  
HETATM   27  C   UNL     1      -9.918   5.864  67.467  1.00  0.00    -0.163 A  
HETATM   28  C   UNL     1      -8.743   6.373  68.019  1.00  0.00    -0.115 A  
HETATM   29  C   UNL     1      -8.641   7.730  68.351  1.00  0.00    -0.128 A  
HETATM   30 CL   UNL     1      -7.136   8.269  69.002  1.00  0.00    -0.064 Cl 
ENDBRANCH  11  24
ENDBRANCH   4   6
ENDBRANCH   3   4
ENDBRANCH   2   3
TORSDOF 10
ENDMDL
MODEL       58
REMARK 921   NORMALIZED FREE ENERGY PREDICTED BY IDOCK:   -4.47 KCAL/MOL
REMARK 922        TOTAL FREE ENERGY PREDICTED BY IDOCK:   -8.82 KCAL/MOL
REMARK 923 INTER-LIGAND FREE ENERGY PREDICTED BY IDOCK:   -7.74 KCAL/MOL
REMARK 924 INTRA-LIGAND FREE ENERGY PREDICTED BY IDOCK:   -1.09 KCAL/MOL
REMARK 927      BINDING AFFINITY PREDICTED BY RF-SCORE:    0.00 PKD
ROOT
HETATM    1  C   UNL     1      -6.952   9.700  65.358  1.00  0.00    -0.095 C  
HETATM    2  C   UNL     1      -7.487   8.773  66.432  1.00  0.00    -0.087 C  
ENDROOT
BRANCH   2   3
HETATM    3  O   UNL     1      -8.655   9.411  66.936  1.00  0.00    -0.126 OA 
BRANCH   3   4
HETATM    4  C   UNL     1      -9.804   8.703  67.041  1.00  0.00    -0.220 C  
HETATM    5  O   UNL     1     -10.056   7.655  66.471  1.00  0.00    -0.220 OA 
BRANCH   4   6
HETATM    6  C   UNL     1     -10.625   9.307  68.131  1.00  0.00    -0.248 C  
HETATM    7  C   UNL     1     -10.997  10.613  68.115  1.00  0.00    -0.269 C  
HETATM    8  C   UNL     1     -11.716   9.135  70.457  1.00  0.00    -0.193 C  
HETATM    9  N   UNL     1     -11.712  11.133  69.179  1.00  0.00    -0.311 NA 
HETATM   10  C   UNL     1     -12.003  10.457  70.348  1.00  0.00    -0.320 C  
HETATM   11  C   UNL     1     -11.033   8.386  69.293  1.00  0.00     0.028 C  
HETATM   12  C   UNL     1     -12.629  11.298  71.433  1.00  0.00    -0.456 C  
BRANCH   7  13
HETATM   13  C   UNL     1     -10.757  11.584  66.962  1.00  0.00    -0.259 C  
BRANCH  13  14
HETATM   14  O   UNL     1     -11.973  11.970  66.317  1.00  0.00    -0.596 OA 
BRANCH  14  15
HETATM   15  C   UNL     1     -11.742  12.688  65.100  1.00  0.00    -0.367 C  
BRANCH  15  16
HETATM   16  C   UNL     1     -12.372  14.080  65.197  1.00  0.00    -0.453 C  
HETATM   17  N   UNL     1     -12.369  14.763  63.901  1.00  0.00    -1.070 NA 
HETATM   18  H2  UNL     1     -12.821  14.199  63.182  1.00  0.00     0.000 HD 
HETATM   19  H1  UNL     1     -12.789  15.691  63.966  1.00  0.00     0.000 HD 
ENDBRANCH  15  16
ENDBRANCH  14  15
ENDBRANCH  13  14
ENDBRANCH   7  13
BRANCH   8  20
HETATM   20  C   UNL     1     -12.009   8.427  71.733  1.00  0.00    -0.325 C  
HETATM   21  O   UNL     1     -11.425   8.629  72.789  1.00  0.00    -0.214 OA 
BRANCH  20  22
HETATM   22  O   UNL     1     -13.020   7.534  71.580  1.00  0.00    -0.341 OA 
HETATM   23  C   UNL     1     -14.311   8.092  71.846  1.00  0.00    -0.457 C  
ENDBRANCH  20  22
ENDBRANCH   8  20
BRANCH  11  24
HETATM   24  C   UNL     1      -9.889   7.465  69.761  1.00  0.00    -0.171 A  
HETATM   25  C   UNL     1     -10.062   6.071  69.589  1.00  0.00    -0.244 A  
HETATM   26  C   UNL     1      -9.094   5.161  70.018  1.00  0.00    -0.163 A  
HETATM   27  C   UNL     1      -7.931   5.624  70.621  1.00  0.00    -0.104 A  
HETATM   28  C   UNL     1      -7.729   6.995  70.778  1.00  0.00    -0.095 A  
HETATM   29  C   UNL     1      -8.695   7.912  70.346  1.00  0.00    -0.137 A  
HETATM   30 CL   UNL     1      -8.338   9.588  70.558  1.00  0.00    -0.222 Cl 
ENDBRANCH  11  24
ENDBRANCH   4   6
ENDBRANCH   3   4
ENDBRANCH   2   3
TORSDOF 10
ENDMDL
MODEL       59
REMARK 921   NORMALIZED FREE ENERGY PREDICTED BY IDOCK:   -4.43 KCAL/MOL
REMARK 922        TOTAL FREE ENERGY PREDICTED BY IDOCK:   -8.76 KCAL/MOL
REMARK 923 INTER-LIGAND FREE ENERGY PREDICTED BY IDOCK:   -7.02 KCAL/MOL
REMARK 924 INTRA-LIGAND FREE ENERGY PREDICTED BY IDOCK:   -1.74 KCAL/MOL
REMARK 927      BINDING AFFINITY PREDICTED BY RF-SCORE:    0.00 PKD
ROOT
HETATM    1  C   UNL     1     -10.037   7.998  66.819  1.00  0.00    -0.357 C  
HETATM    2  C   UNL     1     -10.651   8.199  68.190  1.00  0.00    -0.110 C  
ENDROOT
BRANCH   2   3
HETATM    3  O   UNL     1     -10.910   9.594  68.290  1.00  0.00    -0.231 OA 
BRANCH   3   4
HETATM    4  C   UNL     1     -10.119  10.362  69.076  1.00  0.00    -0.213 C  
HETATM    5  O   UNL     1      -9.188   9.969  69.758  1.00  0.00    -0.219 OA 
BRANCH   4   6
HETATM    6  C   UNL     1     -10.442  11.793  68.805  1.00  0.00    -0.221 C  
HETATM    7  C   UNL     1     -11.495  12.419  69.390  1.00  0.00    -0.271 C  
HETATM    8  C   UNL     1     -10.045  13.952  67.458  1.00  0.00    -0.244 C  
HETATM    9  N   UNL     1     -11.779  13.732  69.060  1.00  0.00    -0.307 NA 
HETATM   10  C   UNL     1     -11.138  14.462  68.078  1.00  0.00    -0.272 C  
HETATM   11  C   UNL     1      -9.529  12.542  67.818  1.00  0.00    -0.197 C  
HETATM   12  C   UNL     1     -11.754  15.807  67.777  1.00  0.00     0.015 C  
BRANCH   7  13
HETATM   13  C   UNL     1     -12.389  11.817  70.471  1.00  0.00    -0.299 C  
BRANCH  13  14
HETATM   14  O   UNL     1     -12.436  12.627  71.648  1.00  0.00    -0.130 OA 
BRANCH  14  15
HETATM   15  C   UNL     1     -13.774  12.838  72.113  1.00  0.00    -0.362 C  
BRANCH  15  16
HETATM   16  C   UNL     1     -13.999  14.330  72.370  1.00  0.00    -0.497 C  
HETATM   17  N   UNL     1     -13.007  14.872  73.301  1.00  0.00    -0.523 NA 
HETATM   18  H2  UNL     1     -12.056  14.688  72.980  1.00  0.00     0.000 HD 
HETATM   19  H1  UNL     1     -13.157  15.866  73.472  1.00  0.00     0.000 HD 
ENDBRANCH  15  16
ENDBRANCH  14  15
ENDBRANCH  13  14
ENDBRANCH   7  13
BRANCH   8  20
HETATM   20  C   UNL     1      -9.381  14.738  66.382  1.00  0.00    -0.291 C  
HETATM   21  O   UNL     1      -9.853  14.928  65.269  1.00  0.00    -0.327 OA 
BRANCH  20  22
HETATM   22  O   UNL     1      -8.187  15.231  66.796  1.00  0.00    -0.230 OA 
HETATM   23  C   UNL     1      -8.224  16.631  67.089  1.00  0.00    -0.179 C  
ENDBRANCH  20  22
ENDBRANCH   8  20
BRANCH  11  24
HETATM   24  C   UNL     1      -9.164  11.701  66.579  1.00  0.00    -0.205 A  
HETATM   25  C   UNL     1      -7.852  11.177  66.510  1.00  0.00    -0.151 A  
HETATM   26  C   UNL     1      -7.423  10.436  65.407  1.00  0.00    -0.127 A  
HETATM   27  C   UNL     1      -8.297  10.197  64.355  1.00  0.00    -0.171 A  
HETATM   28  C   UNL     1      -9.604  10.683  64.413  1.00  0.00    -0.349 A  
HETATM   29  C   UNL     1     -10.039  11.424  65.518  1.00  0.00    -0.247 A  
HETATM   30 CL   UNL     1     -11.682  11.956  65.509  1.00  0.00    -0.308 Cl 
ENDBRANCH  11  24
ENDBRANCH   4   6
ENDBRANCH   3   4
ENDBRANCH   2   3
TORSDOF 10
ENDMDL
MODEL       60
REMARK 921   NORMALIZED FREE ENERGY PREDICTED BY IDOCK:   -4.42 KCAL/MOL
REMARK 922        TOTAL FREE ENERGY PREDICTED BY IDOCK:   -8.74 KCAL/MOL
REMARK 923 INTER-LIGAND FREE ENERGY PREDICTED BY IDOCK:   -7.42 KCAL/MOL
REMARK 924 INTRA-LIGAND FREE ENERGY PREDICTED BY IDOCK:   -1.32 KCAL/MOL
REMARK 927      BINDING AFFINITY PREDICTED BY RF-SCORE:    0.00 PKD
ROOT
HETATM    1  C   UNL     1     -10.237  12.177  64.771  1.00  0.00    -0.310 C  
HETATM    2  C   UNL     1      -9.904  11.128  65.813  1.00  0.00    -0.235 C  
ENDROOT
BRANCH   2   3
HETATM    3  O   UNL     1     -10.707  11.448  66.943  1.00  0.00    -0.240 OA 
BRANCH   3   4
HETATM    4  C   UNL     1     -10.121  11.595  68.154  1.00  0.00    -0.196 C  
HETATM    5  O   UNL     1      -9.129  12.262  68.394  1.00  0.00    -0.193 OA 
BRANCH   4   6
HETATM    6  C   UNL     1     -11.011  10.978  69.180  1.00  0.00    -0.289 C  
HETATM    7  C   UNL     1     -11.846  11.720  69.951  1.00  0.00    -0.348 C  
HETATM    8  C   UNL     1     -11.750   8.923  70.545  1.00  0.00    -0.137 C  
HETATM    9  N   UNL     1     -12.609  11.101  70.926  1.00  0.00    -0.381 NA 
HETATM   10  C   UNL     1     -12.522   9.767  71.275  1.00  0.00    -0.367 C  
HETATM   11  C   UNL     1     -10.940   9.450  69.341  1.00  0.00    -0.165 C  
HETATM   12  C   UNL     1     -13.320   9.373  72.494  1.00  0.00    -0.420 C  
BRANCH   7  13
HETATM   13  C   UNL     1     -12.090  13.219  69.797  1.00  0.00    -0.290 C  
BRANCH  13  14
HETATM   14  O   UNL     1     -12.512  13.828  71.020  1.00  0.00    -0.349 OA 
BRANCH  14  15
HETATM   15  C   UNL     1     -12.804  15.221  70.865  1.00  0.00    -0.449 C  
BRANCH  15  16
HETATM   16  C   UNL     1     -11.517  16.035  71.018  1.00  0.00    -0.417 C  
HETATM   17  N   UNL     1     -11.126  16.665  69.755  1.00  0.00    -0.391 NA 
HETATM   18  H2  UNL     1     -11.883  17.232  69.372  1.00  0.00     0.000 HD 
HETATM   19  H1  UNL     1     -10.269  17.209  69.857  1.00  0.00     0.000 HD 
ENDBRANCH  15  16
ENDBRANCH  14  15
ENDBRANCH  13  14
ENDBRANCH   7  13
BRANCH   8  20
HETATM   20  C   UNL     1     -11.644   7.495  70.951  1.00  0.00    -0.286 C  
HETATM   21  O   UNL     1     -11.970   6.547  70.249  1.00  0.00    -0.394 OA 
BRANCH  20  22
HETATM   22  O   UNL     1     -11.126   7.375  72.200  1.00  0.00    -0.233 OA 
HETATM   23  C   UNL     1     -10.925   6.015  72.600  1.00  0.00    -0.264 C  
ENDBRANCH  20  22
ENDBRANCH   8  20
BRANCH  11  24
HETATM   24  C   UNL     1      -9.498   8.907  69.305  1.00  0.00    -0.161 A  
HETATM   25  C   UNL     1      -8.652   9.228  70.392  1.00  0.00    -0.250 A  
HETATM   26  C   UNL     1      -7.320   8.809  70.424  1.00  0.00    -0.063 A  
HETATM   27  C   UNL     1      -6.808   8.058  69.374  1.00  0.00    -0.047 A  
HETATM   28  C   UNL     1      -7.631   7.709  68.303  1.00  0.00    -0.114 A  
HETATM   29  C   UNL     1      -8.968   8.122  68.269  1.00  0.00    -0.136 A  
HETATM   30 CL   UNL     1      -9.913   7.616  66.915  1.00  0.00    -0.302 Cl 
ENDBRANCH  11  24
ENDBRANCH   4   6
ENDBRANCH   3   4
ENDBRANCH   2   3
TORSDOF 10
ENDMDL
MODEL       61
REMARK 921   NORMALIZED FREE ENERGY PREDICTED BY IDOCK:   -4.42 KCAL/MOL
REMARK 922        TOTAL FREE ENERGY PREDICTED BY IDOCK:   -8.73 KCAL/MOL
REMARK 923 INTER-LIGAND FREE ENERGY PREDICTED BY IDOCK:   -7.16 KCAL/MOL
REMARK 924 INTRA-LIGAND FREE ENERGY PREDICTED BY IDOCK:   -1.57 KCAL/MOL
REMARK 927      BINDING AFFINITY PREDICTED BY RF-SCORE:    0.00 PKD
ROOT
HETATM    1  C   UNL     1     -12.821  14.232  71.061  1.00  0.00    -0.427 C  
HETATM    2  C   UNL     1     -12.085  14.128  69.740  1.00  0.00    -0.354 C  
ENDROOT
BRANCH   2   3
HETATM    3  O   UNL     1     -11.951  12.734  69.489  1.00  0.00    -0.309 OA 
BRANCH   3   4
HETATM    4  C   UNL     1     -11.544  12.315  68.269  1.00  0.00    -0.331 C  
HETATM    5  O   UNL     1     -12.268  12.055  67.322  1.00  0.00    -0.496 OA 
BRANCH   4   6
HETATM    6  C   UNL     1     -10.058  12.428  68.208  1.00  0.00    -0.227 C  
HETATM    7  C   UNL     1      -9.437  13.426  67.530  1.00  0.00    -0.219 C  
HETATM    8  C   UNL     1      -7.726  11.440  68.676  1.00  0.00    -0.137 C  
HETATM    9  N   UNL     1      -8.055  13.450  67.461  1.00  0.00    -0.170 NA 
HETATM   10  C   UNL     1      -7.218  12.463  67.944  1.00  0.00    -0.110 C  
HETATM   11  C   UNL     1      -9.243  11.352  68.947  1.00  0.00    -0.035 C  
HETATM   12  C   UNL     1      -5.762  12.627  67.582  1.00  0.00    -0.136 C  
BRANCH   7  13
HETATM   13  C   UNL     1     -10.136  14.610  66.867  1.00  0.00    -0.255 C  
BRANCH  13  14
HETATM   14  O   UNL     1     -10.227  14.460  65.448  1.00  0.00    -0.341 OA 
BRANCH  14  15
HETATM   15  C   UNL     1     -11.582  14.453  64.985  1.00  0.00    -0.374 C  
BRANCH  15  16
HETATM   16  C   UNL     1     -11.825  13.211  64.125  1.00  0.00    -0.429 C  
HETATM   17  N   UNL     1     -12.536  13.544  62.888  1.00  0.00    -0.865 NA 
HETATM   18  H2  UNL     1     -12.050  14.272  62.364  1.00  0.00     0.000 HD 
HETATM   19  H1  UNL     1     -12.697  12.716  62.315  1.00  0.00     0.000 HD 
ENDBRANCH  15  16
ENDBRANCH  14  15
ENDBRANCH  13  14
ENDBRANCH   7  13
BRANCH   8  20
HETATM   20  C   UNL     1      -6.815  10.369  69.165  1.00  0.00    -0.066 C  
HETATM   21  O   UNL     1      -6.340   9.487  68.463  1.00  0.00    -0.048 OA 
BRANCH  20  22
HETATM   22  O   UNL     1      -6.567  10.501  70.493  1.00  0.00    -0.265 OA 
HETATM   23  C   UNL     1      -5.171  10.552  70.804  1.00  0.00    -0.079 C  
ENDBRANCH  20  22
ENDBRANCH   8  20
BRANCH  11  24
HETATM   24  C   UNL     1      -9.806   9.931  68.751  1.00  0.00    -0.177 A  
HETATM   25  C   UNL     1     -10.275   9.251  69.900  1.00  0.00    -0.235 A  
HETATM   26  C   UNL     1     -10.767   7.946  69.822  1.00  0.00    -0.233 A  
HETATM   27  C   UNL     1     -10.807   7.297  68.595  1.00  0.00    -0.112 A  
HETATM   28  C   UNL     1     -10.374   7.958  67.445  1.00  0.00    -0.349 A  
HETATM   29  C   UNL     1      -9.883   9.267  67.518  1.00  0.00    -0.175 A  
HETATM   30 CL   UNL     1      -9.399  10.008  66.035  1.00  0.00    -0.207 Cl 
ENDBRANCH  11  24
ENDBRANCH   4   6
ENDBRANCH   3   4
ENDBRANCH   2   3
TORSDOF 10
ENDMDL
MODEL       62
REMARK 921   NORMALIZED FREE ENERGY PREDICTED BY IDOCK:   -4.38 KCAL/MOL
REMARK 922        TOTAL FREE ENERGY PREDICTED BY IDOCK:   -8.67 KCAL/MOL
REMARK 923 INTER-LIGAND FREE ENERGY PREDICTED BY IDOCK:   -7.23 KCAL/MOL
REMARK 924 INTRA-LIGAND FREE ENERGY PREDICTED BY IDOCK:   -1.44 KCAL/MOL
REMARK 927      BINDING AFFINITY PREDICTED BY RF-SCORE:    0.00 PKD
ROOT
HETATM    1  C   UNL     1     -10.649  11.311  64.795  1.00  0.00    -0.376 C  
HETATM    2  C   UNL     1      -9.633  10.188  64.857  1.00  0.00    -0.306 C  
ENDROOT
BRANCH   2   3
HETATM    3  O   UNL     1     -10.125   9.286  65.842  1.00  0.00    -0.293 OA 
BRANCH   3   4
HETATM    4  C   UNL     1      -9.286   8.373  66.383  1.00  0.00    -0.201 C  
HETATM    5  O   UNL     1      -8.152   8.128  66.006  1.00  0.00    -0.101 OA 
BRANCH   4   6
HETATM    6  C   UNL     1      -9.899   7.867  67.645  1.00  0.00    -0.212 C  
HETATM    7  C   UNL     1     -10.609   6.711  67.690  1.00  0.00    -0.263 C  
HETATM    8  C   UNL     1     -10.520   8.220  70.120  1.00  0.00    -0.225 C  
HETATM    9  N   UNL     1     -11.202   6.318  68.877  1.00  0.00    -0.372 NA 
HETATM   10  C   UNL     1     -11.232   7.068  70.037  1.00  0.00    -0.269 C  
HETATM   11  C   UNL     1      -9.700   8.719  68.911  1.00  0.00    -0.174 C  
HETATM   12  C   UNL     1     -12.100   6.508  71.137  1.00  0.00    -0.318 C  
BRANCH   7  13
HETATM   13  C   UNL     1     -10.767   5.728  66.534  1.00  0.00    -0.204 C  
BRANCH  13  14
HETATM   14  O   UNL     1      -9.673   4.811  66.449  1.00  0.00    -0.156 OA 
BRANCH  14  15
HETATM   15  C   UNL     1      -9.236   4.605  65.101  1.00  0.00    -0.156 C  
BRANCH  15  16
HETATM   16  C   UNL     1      -9.695   3.226  64.618  1.00  0.00    -0.149 C  
HETATM   17  N   UNL     1     -11.044   3.277  64.050  1.00  0.00    -0.578 NA 
HETATM   18  H2  UNL     1     -11.110   3.974  63.308  1.00  0.00     0.000 HD 
HETATM   19  H1  UNL     1     -11.349   2.359  63.728  1.00  0.00     0.000 HD 
ENDBRANCH  15  16
ENDBRANCH  14  15
ENDBRANCH  13  14
ENDBRANCH   7  13
BRANCH   8  20
HETATM   20  C   UNL     1     -10.585   9.031  71.366  1.00  0.00    -0.323 C  
HETATM   21  O   UNL     1     -11.593   9.587  71.781  1.00  0.00    -0.385 OA 
BRANCH  20  22
HETATM   22  O   UNL     1      -9.382   9.067  71.994  1.00  0.00    -0.358 OA 
HETATM   23  C   UNL     1      -9.248   8.072  73.015  1.00  0.00    -0.270 C  
ENDBRANCH  20  22
ENDBRANCH   8  20
BRANCH  11  24
HETATM   24  C   UNL     1      -9.870  10.229  68.652  1.00  0.00    -0.180 A  
HETATM   25  C   UNL     1     -11.188  10.723  68.515  1.00  0.00    -0.340 A  
HETATM   26  C   UNL     1     -11.433  12.071  68.243  1.00  0.00    -0.361 A  
HETATM   27  C   UNL     1     -10.369  12.952  68.108  1.00  0.00    -0.243 A  
HETATM   28  C   UNL     1      -9.061  12.491  68.265  1.00  0.00    -0.183 A  
HETATM   29  C   UNL     1      -8.810  11.142  68.542  1.00  0.00    -0.161 A  
HETATM   30 CL   UNL     1      -7.160  10.676  68.746  1.00  0.00    -0.070 Cl 
ENDBRANCH  11  24
ENDBRANCH   4   6
ENDBRANCH   3   4
ENDBRANCH   2   3
TORSDOF 10
ENDMDL
MODEL       63
REMARK 921   NORMALIZED FREE ENERGY PREDICTED BY IDOCK:   -4.36 KCAL/MOL
REMARK 922        TOTAL FREE ENERGY PREDICTED BY IDOCK:   -8.65 KCAL/MOL
REMARK 923 INTER-LIGAND FREE ENERGY PREDICTED BY IDOCK:   -6.60 KCAL/MOL
REMARK 924 INTRA-LIGAND FREE ENERGY PREDICTED BY IDOCK:   -2.05 KCAL/MOL
REMARK 927      BINDING AFFINITY PREDICTED BY RF-SCORE:    0.00 PKD
ROOT
HETATM    1  C   UNL     1      -8.586   8.165  73.328  1.00  0.00    -0.308 C  
HETATM    2  C   UNL     1      -8.369   8.475  71.861  1.00  0.00    -0.156 C  
ENDROOT
BRANCH   2   3
HETATM    3  O   UNL     1      -9.415   9.371  71.503  1.00  0.00    -0.259 OA 
BRANCH   3   4
HETATM    4  C   UNL     1     -10.174   9.105  70.415  1.00  0.00    -0.222 C  
HETATM    5  O   UNL     1     -10.603   8.010  70.090  1.00  0.00    -0.228 OA 
BRANCH   4   6
HETATM    6  C   UNL     1     -10.576  10.403  69.798  1.00  0.00    -0.302 C  
HETATM    7  C   UNL     1     -11.720  11.045  70.148  1.00  0.00    -0.356 C  
HETATM    8  C   UNL     1     -10.222  12.229  68.018  1.00  0.00    -0.206 C  
HETATM    9  N   UNL     1     -12.070  12.218  69.503  1.00  0.00    -0.244 NA 
HETATM   10  C   UNL     1     -11.400  12.764  68.426  1.00  0.00    -0.295 C  
HETATM   11  C   UNL     1      -9.638  10.991  68.730  1.00  0.00    -0.194 C  
HETATM   12  C   UNL     1     -12.085  13.943  67.779  1.00  0.00    -0.328 C  
BRANCH   7  13
HETATM   13  C   UNL     1     -12.659  10.622  71.275  1.00  0.00    -0.427 C  
BRANCH  13  14
HETATM   14  O   UNL     1     -13.724   9.791  70.808  1.00  0.00    -0.182 OA 
BRANCH  14  15
HETATM   15  C   UNL     1     -13.941   8.654  71.652  1.00  0.00    -0.401 C  
BRANCH  15  16
HETATM   16  C   UNL     1     -12.921   8.660  72.793  1.00  0.00    -0.073 C  
HETATM   17  N   UNL     1     -12.126   7.430  72.810  1.00  0.00    -0.541 NA 
HETATM   18  H2  UNL     1     -11.677   7.264  71.909  1.00  0.00     0.000 HD 
HETATM   19  H1  UNL     1     -11.446   7.434  73.571  1.00  0.00     0.000 HD 
ENDBRANCH  15  16
ENDBRANCH  14  15
ENDBRANCH  13  14
ENDBRANCH   7  13
BRANCH   8  20
HETATM   20  C   UNL     1      -9.526  12.811  66.837  1.00  0.00    -0.235 C  
HETATM   21  O   UNL     1      -9.909  12.697  65.681  1.00  0.00    -0.260 OA 
BRANCH  20  22
HETATM   22  O   UNL     1      -8.415  13.496  67.208  1.00  0.00    -0.187 OA 
HETATM   23  C   UNL     1      -8.562  14.915  67.092  1.00  0.00    -0.225 C  
ENDBRANCH  20  22
ENDBRANCH   8  20
BRANCH  11  24
HETATM   24  C   UNL     1      -9.104   9.929  67.748  1.00  0.00    -0.138 A  
HETATM   25  C   UNL     1     -10.039   9.305  66.890  1.00  0.00    -0.324 A  
HETATM   26  C   UNL     1      -9.649   8.307  65.995  1.00  0.00    -0.151 A  
HETATM   27  C   UNL     1      -8.318   7.916  65.935  1.00  0.00    -0.134 A  
HETATM   28  C   UNL     1      -7.374   8.535  66.755  1.00  0.00    -0.082 A  
HETATM   29  C   UNL     1      -7.759   9.539  67.651  1.00  0.00    -0.095 A  
HETATM   30 CL   UNL     1      -6.514  10.264  68.601  1.00  0.00    -0.051 Cl 
ENDBRANCH  11  24
ENDBRANCH   4   6
ENDBRANCH   3   4
ENDBRANCH   2   3
TORSDOF 10
ENDMDL
MODEL       64
REMARK 921   NORMALIZED FREE ENERGY PREDICTED BY IDOCK:   -4.36 KCAL/MOL
REMARK 922        TOTAL FREE ENERGY PREDICTED BY IDOCK:   -8.65 KCAL/MOL
REMARK 923 INTER-LIGAND FREE ENERGY PREDICTED BY IDOCK:   -6.77 KCAL/MOL
REMARK 924 INTRA-LIGAND FREE ENERGY PREDICTED BY IDOCK:   -1.88 KCAL/MOL
REMARK 927      BINDING AFFINITY PREDICTED BY RF-SCORE:    0.00 PKD
ROOT
HETATM    1  C   UNL     1     -11.809  11.222  69.798  1.00  0.00    -0.437 C  
HETATM    2  C   UNL     1     -11.903  11.994  68.497  1.00  0.00    -0.311 C  
ENDROOT
BRANCH   2   3
HETATM    3  O   UNL     1     -11.082  11.285  67.575  1.00  0.00    -0.249 OA 
BRANCH   3   4
HETATM    4  C   UNL     1      -9.789  11.652  67.420  1.00  0.00    -0.183 C  
HETATM    5  O   UNL     1      -9.226  12.561  68.006  1.00  0.00    -0.191 OA 
BRANCH   4   6
HETATM    6  C   UNL     1      -9.112  10.629  66.571  1.00  0.00    -0.179 C  
HETATM    7  C   UNL     1      -9.225  10.624  65.218  1.00  0.00    -0.197 C  
HETATM    8  C   UNL     1      -7.772   8.440  66.360  1.00  0.00    -0.094 C  
HETATM    9  N   UNL     1      -8.621   9.618  64.485  1.00  0.00    -0.173 NA 
HETATM   10  C   UNL     1      -7.979   8.519  65.022  1.00  0.00    -0.131 C  
HETATM   11  C   UNL     1      -8.278   9.559  67.295  1.00  0.00    -0.114 C  
HETATM   12  C   UNL     1      -7.569   7.468  64.019  1.00  0.00    -0.114 C  
BRANCH   7  13
HETATM   13  C   UNL     1      -9.920  11.700  64.387  1.00  0.00    -0.262 C  
BRANCH  13  14
HETATM   14  O   UNL     1     -11.318  11.443  64.231  1.00  0.00    -0.294 OA 
BRANCH  14  15
HETATM   15  C   UNL     1     -12.003  12.521  63.583  1.00  0.00    -0.537 C  
BRANCH  15  16
HETATM   16  C   UNL     1     -11.757  13.822  64.353  1.00  0.00    -0.408 C  
HETATM   17  N   UNL     1     -12.533  14.931  63.794  1.00  0.00    -1.062 NA 
HETATM   18  H2  UNL     1     -13.527  14.706  63.750  1.00  0.00     0.000 HD 
HETATM   19  H1  UNL     1     -12.370  15.798  64.307  1.00  0.00     0.000 HD 
ENDBRANCH  15  16
ENDBRANCH  14  15
ENDBRANCH  13  14
ENDBRANCH   7  13
BRANCH   8  20
HETATM   20  C   UNL     1      -7.105   7.236  66.926  1.00  0.00    -0.086 C  
HETATM   21  O   UNL     1      -7.592   6.113  66.936  1.00  0.00    -0.095 OA 
BRANCH  20  22
HETATM   22  O   UNL     1      -5.878   7.538  67.421  1.00  0.00    -0.033 OA 
HETATM   23  C   UNL     1      -5.629   6.960  68.707  1.00  0.00    -0.018 C  
ENDBRANCH  20  22
ENDBRANCH   8  20
BRANCH  11  24
HETATM   24  C   UNL     1      -8.965   9.016  68.564  1.00  0.00    -0.133 A  
HETATM   25  C   UNL     1      -8.420   9.395  69.813  1.00  0.00    -0.170 A  
HETATM   26  C   UNL     1      -8.957   8.920  71.012  1.00  0.00    -0.298 A  
HETATM   27  C   UNL     1     -10.049   8.063  70.988  1.00  0.00    -0.213 A  
HETATM   28  C   UNL     1     -10.617   7.697  69.768  1.00  0.00    -0.245 A  
HETATM   29  C   UNL     1     -10.086   8.173  68.563  1.00  0.00    -0.200 A  
HETATM   30 CL   UNL     1     -10.877   7.685  67.108  1.00  0.00    -0.347 Cl 
ENDBRANCH  11  24
ENDBRANCH   4   6
ENDBRANCH   3   4
ENDBRANCH   2   3
TORSDOF 10
ENDMDL
MODEL       65
REMARK 921   NORMALIZED FREE ENERGY PREDICTED BY IDOCK:   -4.34 KCAL/MOL
REMARK 922        TOTAL FREE ENERGY PREDICTED BY IDOCK:   -8.62 KCAL/MOL
REMARK 923 INTER-LIGAND FREE ENERGY PREDICTED BY IDOCK:   -6.90 KCAL/MOL
REMARK 924 INTRA-LIGAND FREE ENERGY PREDICTED BY IDOCK:   -1.72 KCAL/MOL
REMARK 927      BINDING AFFINITY PREDICTED BY RF-SCORE:    0.00 PKD
ROOT
HETATM    1  C   UNL     1      -9.803   5.452  71.784  1.00  0.00    -0.223 C  
HETATM    2  C   UNL     1      -9.441   6.446  70.699  1.00  0.00    -0.165 C  
ENDROOT
BRANCH   2   3
HETATM    3  O   UNL     1     -10.269   7.580  70.932  1.00  0.00    -0.193 OA 
BRANCH   3   4
HETATM    4  C   UNL     1      -9.705   8.741  71.339  1.00  0.00    -0.280 C  
HETATM    5  O   UNL     1      -8.822   8.857  72.172  1.00  0.00    -0.381 OA 
BRANCH   4   6
HETATM    6  C   UNL     1     -10.192   9.834  70.448  1.00  0.00    -0.343 C  
HETATM    7  C   UNL     1     -11.437  10.362  70.568  1.00  0.00    -0.345 C  
HETATM    8  C   UNL     1      -9.873  11.333  68.379  1.00  0.00    -0.200 C  
HETATM    9  N   UNL     1     -11.856  11.336  69.679  1.00  0.00    -0.328 NA 
HETATM   10  C   UNL     1     -11.144  11.763  68.574  1.00  0.00    -0.239 C  
HETATM   11  C   UNL     1      -9.223  10.341  69.367  1.00  0.00    -0.206 C  
HETATM   12  C   UNL     1     -11.894  12.695  67.654  1.00  0.00    -0.390 C  
BRANCH   7  13
HETATM   13  C   UNL     1     -12.434  10.026  71.674  1.00  0.00    -0.418 C  
BRANCH  13  14
HETATM   14  O   UNL     1     -13.704   9.625  71.154  1.00  0.00    -0.304 OA 
BRANCH  14  15
HETATM   15  C   UNL     1     -14.338   8.631  71.967  1.00  0.00    -0.422 C  
BRANCH  15  16
HETATM   16  C   UNL     1     -14.075   7.242  71.379  1.00  0.00    -0.319 C  
HETATM   17  N   UNL     1     -13.027   6.535  72.120  1.00  0.00    -0.515 NA 
HETATM   18  H2  UNL     1     -13.245   6.484  73.116  1.00  0.00     0.000 HD 
HETATM   19  H1  UNL     1     -12.852   5.609  71.729  1.00  0.00     0.000 HD 
ENDBRANCH  15  16
ENDBRANCH  14  15
ENDBRANCH  13  14
ENDBRANCH   7  13
BRANCH   8  20
HETATM   20  C   UNL     1      -9.129  11.780  67.169  1.00  0.00    -0.175 C  
HETATM   21  O   UNL     1      -9.382  11.420  66.027  1.00  0.00    -0.207 OA 
BRANCH  20  22
HETATM   22  O   UNL     1      -8.139  12.650  67.491  1.00  0.00    -0.155 OA 
HETATM   23  C   UNL     1      -8.469  14.013  67.206  1.00  0.00    -0.207 C  
ENDBRANCH  20  22
ENDBRANCH   8  20
BRANCH  11  24
HETATM   24  C   UNL     1      -8.460   9.204  68.660  1.00  0.00    -0.127 A  
HETATM   25  C   UNL     1      -7.086   9.052  68.964  1.00  0.00    -0.064 A  
HETATM   26  C   UNL     1      -6.309   8.072  68.343  1.00  0.00    -0.050 A  
HETATM   27  C   UNL     1      -6.889   7.220  67.411  1.00  0.00    -0.077 A  
HETATM   28  C   UNL     1      -8.247   7.335  67.115  1.00  0.00    -0.118 A  
HETATM   29  C   UNL     1      -9.031   8.314  67.738  1.00  0.00    -0.136 A  
HETATM   30 CL   UNL     1     -10.707   8.357  67.325  1.00  0.00    -0.311 Cl 
ENDBRANCH  11  24
ENDBRANCH   4   6
ENDBRANCH   3   4
ENDBRANCH   2   3
TORSDOF 10
ENDMDL
MODEL       66
REMARK 921   NORMALIZED FREE ENERGY PREDICTED BY IDOCK:   -4.33 KCAL/MOL
REMARK 922        TOTAL FREE ENERGY PREDICTED BY IDOCK:   -8.60 KCAL/MOL
REMARK 923 INTER-LIGAND FREE ENERGY PREDICTED BY IDOCK:   -6.69 KCAL/MOL
REMARK 924 INTRA-LIGAND FREE ENERGY PREDICTED BY IDOCK:   -1.90 KCAL/MOL
REMARK 927      BINDING AFFINITY PREDICTED BY RF-SCORE:    0.00 PKD
ROOT
HETATM    1  C   UNL     1     -11.760  15.608  69.288  1.00  0.00    -0.388 C  
HETATM    2  C   UNL     1     -11.380  15.937  67.859  1.00  0.00    -0.252 C  
ENDROOT
BRANCH   2   3
HETATM    3  O   UNL     1      -9.971  15.748  67.786  1.00  0.00    -0.224 OA 
BRANCH   3   4
HETATM    4  C   UNL     1      -9.463  14.889  66.873  1.00  0.00    -0.237 C  
HETATM    5  O   UNL     1      -9.180  15.155  65.717  1.00  0.00    -0.264 OA 
BRANCH   4   6
HETATM    6  C   UNL     1      -9.108  13.620  67.573  1.00  0.00    -0.213 C  
HETATM    7  C   UNL     1      -7.916  13.451  68.201  1.00  0.00    -0.150 C  
HETATM    8  C   UNL     1      -9.630  11.161  68.134  1.00  0.00    -0.181 C  
HETATM    9  N   UNL     1      -7.618  12.234  68.787  1.00  0.00    -0.085 NA 
HETATM   10  C   UNL     1      -8.399  11.098  68.701  1.00  0.00    -0.154 C  
HETATM   11  C   UNL     1     -10.153  12.492  67.551  1.00  0.00    -0.207 C  
HETATM   12  C   UNL     1      -7.770   9.846  69.263  1.00  0.00    -0.109 C  
BRANCH   7  13
HETATM   13  C   UNL     1      -6.859  14.536  68.393  1.00  0.00    -0.104 C  
BRANCH  13  14
HETATM   14  O   UNL     1      -7.133  15.365  69.525  1.00  0.00    -0.175 OA 
BRANCH  14  15
HETATM   15  C   UNL     1      -6.440  16.617  69.467  1.00  0.00    -0.224 C  
BRANCH  15  16
HETATM   16  C   UNL     1      -6.807  17.348  68.173  1.00  0.00    -0.184 C  
HETATM   17  N   UNL     1      -8.126  17.978  68.267  1.00  0.00    -0.283 NA 
HETATM   18  H2  UNL     1      -8.187  18.597  69.076  1.00  0.00     0.000 HD 
HETATM   19  H1  UNL     1      -8.371  18.465  67.405  1.00  0.00     0.000 HD 
ENDBRANCH  15  16
ENDBRANCH  14  15
ENDBRANCH  13  14
ENDBRANCH   7  13
BRANCH   8  20
HETATM   20  C   UNL     1     -10.448   9.923  68.023  1.00  0.00    -0.222 C  
HETATM   21  O   UNL     1     -10.304   9.071  67.156  1.00  0.00    -0.243 OA 
BRANCH  20  22
HETATM   22  O   UNL     1     -11.370   9.850  69.016  1.00  0.00    -0.147 OA 
HETATM   23  C   UNL     1     -11.089   8.824  69.974  1.00  0.00    -0.162 C  
ENDBRANCH  20  22
ENDBRANCH   8  20
BRANCH  11  24
HETATM   24  C   UNL     1     -10.825  12.321  66.174  1.00  0.00    -0.314 A  
HETATM   25  C   UNL     1     -12.142  12.813  66.026  1.00  0.00    -0.458 A  
HETATM   26  C   UNL     1     -12.841  12.668  64.825  1.00  0.00    -0.349 A  
HETATM   27  C   UNL     1     -12.236  12.034  63.748  1.00  0.00    -0.600 A  
HETATM   28  C   UNL     1     -10.928  11.563  63.864  1.00  0.00    -0.474 A  
HETATM   29  C   UNL     1     -10.222  11.710  65.064  1.00  0.00    -0.275 A  
HETATM   30 CL   UNL     1      -8.600  11.119  65.099  1.00  0.00    -0.014 Cl 
ENDBRANCH  11  24
ENDBRANCH   4   6
ENDBRANCH   3   4
ENDBRANCH   2   3
TORSDOF 10
ENDMDL
MODEL       67
REMARK 921   NORMALIZED FREE ENERGY PREDICTED BY IDOCK:   -4.32 KCAL/MOL
REMARK 922        TOTAL FREE ENERGY PREDICTED BY IDOCK:   -8.58 KCAL/MOL
REMARK 923 INTER-LIGAND FREE ENERGY PREDICTED BY IDOCK:   -6.77 KCAL/MOL
REMARK 924 INTRA-LIGAND FREE ENERGY PREDICTED BY IDOCK:   -1.82 KCAL/MOL
REMARK 927      BINDING AFFINITY PREDICTED BY RF-SCORE:    0.00 PKD
ROOT
HETATM    1  C   UNL     1     -10.877   6.522  66.958  1.00  0.00    -0.465 C  
HETATM    2  C   UNL     1     -10.565   6.671  68.434  1.00  0.00    -0.242 C  
ENDROOT
BRANCH   2   3
HETATM    3  O   UNL     1     -10.886   8.019  68.756  1.00  0.00    -0.097 OA 
BRANCH   3   4
HETATM    4  C   UNL     1     -10.003   8.761  69.463  1.00  0.00    -0.195 C  
HETATM    5  O   UNL     1      -8.968   8.358  69.967  1.00  0.00    -0.135 OA 
BRANCH   4   6
HETATM    6  C   UNL     1     -10.397  10.195  69.342  1.00  0.00    -0.251 C  
HETATM    7  C   UNL     1     -11.544  10.676  69.887  1.00  0.00    -0.316 C  
HETATM    8  C   UNL     1     -10.024  12.533  68.329  1.00  0.00    -0.229 C  
HETATM    9  N   UNL     1     -11.887  12.004  69.697  1.00  0.00    -0.328 NA 
HETATM   10  C   UNL     1     -11.205  12.893  68.889  1.00  0.00    -0.279 C  
HETATM   11  C   UNL     1      -9.448  11.120  68.561  1.00  0.00    -0.193 C  
HETATM   12  C   UNL     1     -11.883  14.228  68.697  1.00  0.00    -0.379 C  
BRANCH   7  13
HETATM   13  C   UNL     1     -12.495   9.886  70.782  1.00  0.00    -0.256 C  
BRANCH  13  14
HETATM   14  O   UNL     1     -11.903   9.553  72.040  1.00  0.00    -0.341 OA 
BRANCH  14  15
HETATM   15  C   UNL     1     -11.971   8.151  72.322  1.00  0.00    -0.377 C  
BRANCH  15  16
HETATM   16  C   UNL     1     -10.676   7.699  73.003  1.00  0.00    -0.391 C  
HETATM   17  N   UNL     1     -10.060   6.575  72.295  1.00  0.00    -0.175 NA 
HETATM   18  H2  UNL     1      -9.908   6.793  71.310  1.00  0.00     0.000 HD 
HETATM   19  H1  UNL     1      -9.197   6.274  72.748  1.00  0.00     0.000 HD 
ENDBRANCH  15  16
ENDBRANCH  14  15
ENDBRANCH  13  14
ENDBRANCH   7  13
BRANCH   8  20
HETATM   20  C   UNL     1      -9.316  13.492  67.437  1.00  0.00    -0.228 C  
HETATM   21  O   UNL     1      -8.327  14.138  67.758  1.00  0.00    -0.149 OA 
BRANCH  20  22
HETATM   22  O   UNL     1      -9.900  13.552  66.214  1.00  0.00    -0.288 OA 
HETATM   23  C   UNL     1      -9.941  14.876  65.671  1.00  0.00    -0.358 C  
ENDBRANCH  20  22
ENDBRANCH   8  20
BRANCH  11  24
HETATM   24  C   UNL     1      -8.905  10.473  67.271  1.00  0.00    -0.138 A  
HETATM   25  C   UNL     1      -9.822  10.250  66.217  1.00  0.00    -0.276 A  
HETATM   26  C   UNL     1      -9.424   9.636  65.027  1.00  0.00    -0.312 A  
HETATM   27  C   UNL     1      -8.104   9.238  64.864  1.00  0.00    -0.130 A  
HETATM   28  C   UNL     1      -7.177   9.471  65.881  1.00  0.00    -0.096 A  
HETATM   29  C   UNL     1      -7.570  10.090  67.073  1.00  0.00    -0.092 A  
HETATM   30 CL   UNL     1      -6.344  10.360  68.259  1.00  0.00    -0.051 Cl 
ENDBRANCH  11  24
ENDBRANCH   4   6
ENDBRANCH   3   4
ENDBRANCH   2   3
TORSDOF 10
ENDMDL
MODEL       68
REMARK 921   NORMALIZED FREE ENERGY PREDICTED BY IDOCK:   -4.29 KCAL/MOL
REMARK 922        TOTAL FREE ENERGY PREDICTED BY IDOCK:   -8.54 KCAL/MOL
REMARK 923 INTER-LIGAND FREE ENERGY PREDICTED BY IDOCK:   -7.00 KCAL/MOL
REMARK 924 INTRA-LIGAND FREE ENERGY PREDICTED BY IDOCK:   -1.54 KCAL/MOL
REMARK 927      BINDING AFFINITY PREDICTED BY RF-SCORE:    0.00 PKD
ROOT
HETATM    1  C   UNL     1     -10.247   5.213  67.924  1.00  0.00    -0.180 C  
HETATM    2  C   UNL     1      -9.778   5.977  66.702  1.00  0.00    -0.157 C  
ENDROOT
BRANCH   2   3
HETATM    3  O   UNL     1     -10.199   7.320  66.909  1.00  0.00    -0.238 OA 
BRANCH   3   4
HETATM    4  C   UNL     1      -9.430   8.150  67.651  1.00  0.00    -0.145 C  
HETATM    5  O   UNL     1      -8.234   8.027  67.858  1.00  0.00    -0.126 OA 
BRANCH   4   6
HETATM    6  C   UNL     1     -10.242   9.353  67.998  1.00  0.00    -0.248 C  
HETATM    7  C   UNL     1     -10.180  10.499  67.273  1.00  0.00    -0.215 C  
HETATM    8  C   UNL     1     -11.814  10.590  69.619  1.00  0.00    -0.306 C  
HETATM    9  N   UNL     1     -10.915  11.601  67.672  1.00  0.00    -0.224 NA 
HETATM   10  C   UNL     1     -11.649  11.687  68.839  1.00  0.00    -0.314 C  
HETATM   11  C   UNL     1     -11.158   9.248  69.229  1.00  0.00    -0.031 C  
HETATM   12  C   UNL     1     -12.205  13.057  69.144  1.00  0.00    -0.106 C  
BRANCH   7  13
HETATM   13  C   UNL     1      -9.406  10.677  65.969  1.00  0.00    -0.186 C  
BRANCH  13  14
HETATM   14  O   UNL     1     -10.010   9.975  64.880  1.00  0.00    -0.325 OA 
BRANCH  14  15
HETATM   15  C   UNL     1      -9.267  10.109  63.664  1.00  0.00    -0.282 C  
BRANCH  15  16
HETATM   16  C   UNL     1      -9.839  11.263  62.837  1.00  0.00    -0.285 C  
HETATM   17  N   UNL     1     -11.260  11.476  63.121  1.00  0.00    -0.833 NA 
HETATM   18  H2  UNL     1     -11.424  11.615  64.119  1.00  0.00     0.000 HD 
HETATM   19  H1  UNL     1     -11.641  12.245  62.570  1.00  0.00     0.000 HD 
ENDBRANCH  15  16
ENDBRANCH  14  15
ENDBRANCH  13  14
ENDBRANCH   7  13
BRANCH   8  20
HETATM   20  C   UNL     1     -12.583  10.705  70.889  1.00  0.00    -0.407 C  
HETATM   21  O   UNL     1     -12.338  11.509  71.778  1.00  0.00    -0.070 OA 
BRANCH  20  22
HETATM   22  O   UNL     1     -13.604   9.811  70.930  1.00  0.00    -0.277 OA 
HETATM   23  C   UNL     1     -13.831   9.273  72.237  1.00  0.00    -0.426 C  
ENDBRANCH  20  22
ENDBRANCH   8  20
BRANCH  11  24
HETATM   24  C   UNL     1     -10.486   8.539  70.421  1.00  0.00    -0.227 A  
HETATM   25  C   UNL     1      -9.327   9.138  70.967  1.00  0.00    -0.333 A  
HETATM   26  C   UNL     1      -8.633   8.545  72.024  1.00  0.00    -0.250 A  
HETATM   27  C   UNL     1      -9.085   7.346  72.560  1.00  0.00    -0.175 A  
HETATM   28  C   UNL     1     -10.240   6.750  72.053  1.00  0.00    -0.209 A  
HETATM   29  C   UNL     1     -10.942   7.343  70.996  1.00  0.00    -0.251 A  
HETATM   30 CL   UNL     1     -12.375   6.544  70.458  1.00  0.00    -0.173 Cl 
ENDBRANCH  11  24
ENDBRANCH   4   6
ENDBRANCH   3   4
ENDBRANCH   2   3
TORSDOF 10
ENDMDL
MODEL       69
REMARK 921   NORMALIZED FREE ENERGY PREDICTED BY IDOCK:   -4.29 KCAL/MOL
REMARK 922        TOTAL FREE ENERGY PREDICTED BY IDOCK:   -8.54 KCAL/MOL
REMARK 923 INTER-LIGAND FREE ENERGY PREDICTED BY IDOCK:   -6.97 KCAL/MOL
REMARK 924 INTRA-LIGAND FREE ENERGY PREDICTED BY IDOCK:   -1.57 KCAL/MOL
REMARK 927      BINDING AFFINITY PREDICTED BY RF-SCORE:    0.00 PKD
ROOT
HETATM    1  C   UNL     1     -10.632  11.754  63.568  1.00  0.00    -0.499 C  
HETATM    2  C   UNL     1      -9.510  11.172  64.404  1.00  0.00    -0.220 C  
ENDROOT
BRANCH   2   3
HETATM    3  O   UNL     1     -10.008  11.138  65.737  1.00  0.00    -0.224 OA 
BRANCH   3   4
HETATM    4  C   UNL     1      -9.222  11.569  66.750  1.00  0.00    -0.181 C  
HETATM    5  O   UNL     1      -8.034  11.832  66.674  1.00  0.00    -0.148 OA 
BRANCH   4   6
HETATM    6  C   UNL     1     -10.096  11.871  67.921  1.00  0.00    -0.199 C  
HETATM    7  C   UNL     1     -10.774  10.900  68.585  1.00  0.00    -0.203 C  
HETATM    8  C   UNL     1     -11.270  13.583  69.444  1.00  0.00    -0.244 C  
HETATM    9  N   UNL     1     -11.613  11.244  69.630  1.00  0.00    -0.299 NA 
HETATM   10  C   UNL     1     -11.921  12.537  70.010  1.00  0.00    -0.299 C  
HETATM   11  C   UNL     1     -10.207  13.343  68.351  1.00  0.00    -0.251 C  
HETATM   12  C   UNL     1     -13.005  12.653  71.054  1.00  0.00    -0.156 C  
BRANCH   7  13
HETATM   13  C   UNL     1     -10.645   9.401  68.328  1.00  0.00    -0.210 C  
BRANCH  13  14
HETATM   14  O   UNL     1     -10.384   8.667  69.527  1.00  0.00    -0.206 OA 
BRANCH  14  15
HETATM   15  C   UNL     1      -8.998   8.678  69.884  1.00  0.00    -0.149 C  
BRANCH  15  16
HETATM   16  C   UNL     1      -8.145   8.389  68.646  1.00  0.00    -0.122 C  
HETATM   17  N   UNL     1      -7.800   6.970  68.551  1.00  0.00    -0.120 NA 
HETATM   18  H2  UNL     1      -8.633   6.381  68.576  1.00  0.00     0.000 HD 
HETATM   19  H1  UNL     1      -7.232   6.777  67.726  1.00  0.00     0.000 HD 
ENDBRANCH  15  16
ENDBRANCH  14  15
ENDBRANCH  13  14
ENDBRANCH   7  13
BRANCH   8  20
HETATM   20  C   UNL     1     -11.633  14.971  69.843  1.00  0.00    -0.293 C  
HETATM   21  O   UNL     1     -12.388  15.699  69.214  1.00  0.00    -0.246 OA 
BRANCH  20  22
HETATM   22  O   UNL     1     -11.028  15.324  71.006  1.00  0.00    -0.321 OA 
HETATM   23  C   UNL     1     -11.918  15.940  71.942  1.00  0.00    -0.504 C  
ENDBRANCH  20  22
ENDBRANCH   8  20
BRANCH  11  24
HETATM   24  C   UNL     1     -10.345  14.309  67.158  1.00  0.00    -0.262 A  
HETATM   25  C   UNL     1      -9.340  15.292  66.995  1.00  0.00    -0.238 A  
HETATM   26  C   UNL     1      -9.404  16.232  65.963  1.00  0.00    -0.361 A  
HETATM   27  C   UNL     1     -10.468  16.205  65.072  1.00  0.00    -0.208 A  
HETATM   28  C   UNL     1     -11.457  15.230  65.198  1.00  0.00    -0.260 A  
HETATM   29  C   UNL     1     -11.395  14.283  66.228  1.00  0.00    -0.346 A  
HETATM   30 CL   UNL     1     -12.651  13.099  66.284  1.00  0.00    -0.197 Cl 
ENDBRANCH  11  24
ENDBRANCH   4   6
ENDBRANCH   3   4
ENDBRANCH   2   3
TORSDOF 10
ENDMDL
MODEL       70
REMARK 921   NORMALIZED FREE ENERGY PREDICTED BY IDOCK:   -4.28 KCAL/MOL
REMARK 922        TOTAL FREE ENERGY PREDICTED BY IDOCK:   -8.52 KCAL/MOL
REMARK 923 INTER-LIGAND FREE ENERGY PREDICTED BY IDOCK:   -6.92 KCAL/MOL
REMARK 924 INTRA-LIGAND FREE ENERGY PREDICTED BY IDOCK:   -1.60 KCAL/MOL
REMARK 927      BINDING AFFINITY PREDICTED BY RF-SCORE:    0.00 PKD
ROOT
HETATM    1  C   UNL     1     -10.026   4.319  65.043  1.00  0.00    -0.199 C  
HETATM    2  C   UNL     1     -10.224   4.686  66.500  1.00  0.00    -0.238 C  
ENDROOT
BRANCH   2   3
HETATM    3  O   UNL     1     -10.465   6.089  66.508  1.00  0.00    -0.211 OA 
BRANCH   3   4
HETATM    4  C   UNL     1      -9.519   6.922  67.001  1.00  0.00    -0.151 C  
HETATM    5  O   UNL     1      -8.340   6.933  66.689  1.00  0.00    -0.112 OA 
BRANCH   4   6
HETATM    6  C   UNL     1     -10.199   7.960  67.829  1.00  0.00    -0.276 C  
HETATM    7  C   UNL     1     -10.326   9.246  67.412  1.00  0.00    -0.263 C  
HETATM    8  C   UNL     1     -11.266   8.689  70.056  1.00  0.00    -0.098 C  
HETATM    9  N   UNL     1     -10.917  10.180  68.245  1.00  0.00    -0.255 NA 
HETATM   10  C   UNL     1     -11.308   9.947  69.550  1.00  0.00    -0.124 C  
HETATM   11  C   UNL     1     -10.750   7.517  69.195  1.00  0.00    -0.163 C  
HETATM   12  C   UNL     1     -11.751  11.172  70.311  1.00  0.00    -0.431 C  
BRANCH   7  13
HETATM   13  C   UNL     1      -9.930   9.770  66.034  1.00  0.00    -0.272 C  
BRANCH  13  14
HETATM   14  O   UNL     1      -9.773  11.191  66.020  1.00  0.00    -0.209 OA 
BRANCH  14  15
HETATM   15  C   UNL     1     -10.536  11.815  64.981  1.00  0.00    -0.288 C  
BRANCH  15  16
HETATM   16  C   UNL     1     -10.268  11.108  63.650  1.00  0.00    -0.387 C  
HETATM   17  N   UNL     1      -9.232  11.794  62.876  1.00  0.00    -0.617 NA 
HETATM   18  H2  UNL     1      -8.374  11.907  63.418  1.00  0.00     0.000 HD 
HETATM   19  H1  UNL     1      -9.052  11.323  61.990  1.00  0.00     0.000 HD 
ENDBRANCH  15  16
ENDBRANCH  14  15
ENDBRANCH  13  14
ENDBRANCH   7  13
BRANCH   8  20
HETATM   20  C   UNL     1     -11.664   8.459  71.472  1.00  0.00    -0.290 C  
HETATM   21  O   UNL     1     -10.924   8.611  72.435  1.00  0.00    -0.353 OA 
BRANCH  20  22
HETATM   22  O   UNL     1     -12.960   8.069  71.563  1.00  0.00    -0.321 OA 
HETATM   23  C   UNL     1     -13.746   8.914  72.410  1.00  0.00    -0.454 C  
ENDBRANCH  20  22
ENDBRANCH   8  20
BRANCH  11  24
HETATM   24  C   UNL     1      -9.787   6.588  69.960  1.00  0.00    -0.183 A  
HETATM   25  C   UNL     1     -10.231   5.274  70.237  1.00  0.00    -0.345 A  
HETATM   26  C   UNL     1      -9.439   4.377  70.957  1.00  0.00    -0.232 A  
HETATM   27  C   UNL     1      -8.187   4.771  71.409  1.00  0.00    -0.103 A  
HETATM   28  C   UNL     1      -7.719   6.054  71.126  1.00  0.00    -0.109 A  
HETATM   29  C   UNL     1      -8.507   6.956  70.401  1.00  0.00    -0.134 A  
HETATM   30 CL   UNL     1      -7.827   8.510  70.077  1.00  0.00    -0.099 Cl 
ENDBRANCH  11  24
ENDBRANCH   4   6
ENDBRANCH   3   4
ENDBRANCH   2   3
TORSDOF 10
ENDMDL
MODEL       71
REMARK 921   NORMALIZED FREE ENERGY PREDICTED BY IDOCK:   -4.25 KCAL/MOL
REMARK 922        TOTAL FREE ENERGY PREDICTED BY IDOCK:   -8.46 KCAL/MOL
REMARK 923 INTER-LIGAND FREE ENERGY PREDICTED BY IDOCK:   -6.60 KCAL/MOL
REMARK 924 INTRA-LIGAND FREE ENERGY PREDICTED BY IDOCK:   -1.86 KCAL/MOL
REMARK 927      BINDING AFFINITY PREDICTED BY RF-SCORE:    0.00 PKD
ROOT
HETATM    1  C   UNL     1      -5.500   8.136  70.328  1.00  0.00    -0.022 C  
HETATM    2  C   UNL     1      -6.547   9.061  70.916  1.00  0.00    -0.068 C  
ENDROOT
BRANCH   2   3
HETATM    3  O   UNL     1      -7.485   8.209  71.564  1.00  0.00    -0.068 OA 
BRANCH   3   4
HETATM    4  C   UNL     1      -8.504   7.678  70.850  1.00  0.00    -0.124 C  
HETATM    5  O   UNL     1      -8.474   6.628  70.229  1.00  0.00    -0.132 OA 
BRANCH   4   6
HETATM    6  C   UNL     1      -9.732   8.480  71.121  1.00  0.00    -0.257 C  
HETATM    7  C   UNL     1     -10.584   8.176  72.133  1.00  0.00    -0.290 C  
HETATM    8  C   UNL     1     -11.383  10.331  70.431  1.00  0.00    -0.410 C  
HETATM    9  N   UNL     1     -11.736   8.922  72.305  1.00  0.00    -0.333 NA 
HETATM   10  C   UNL     1     -12.174   9.916  71.451  1.00  0.00    -0.408 C  
HETATM   11  C   UNL     1     -10.005   9.677  70.195  1.00  0.00    -0.309 C  
HETATM   12  C   UNL     1     -13.554  10.451  71.750  1.00  0.00    -0.246 C  
BRANCH   7  13
HETATM   13  C   UNL     1     -10.353   7.094  73.185  1.00  0.00    -0.295 C  
BRANCH  13  14
HETATM   14  O   UNL     1     -11.216   5.969  73.004  1.00  0.00    -0.254 OA 
BRANCH  14  15
HETATM   15  C   UNL     1     -10.540   4.850  72.420  1.00  0.00    -0.200 C  
BRANCH  15  16
HETATM   16  C   UNL     1      -9.184   4.655  73.103  1.00  0.00    -0.118 C  
HETATM   17  N   UNL     1      -8.143   4.299  72.137  1.00  0.00    -0.089 NA 
HETATM   18  H2  UNL     1      -8.086   4.982  71.381  1.00  0.00     0.000 HD 
HETATM   19  H1  UNL     1      -7.239   4.170  72.591  1.00  0.00     0.000 HD 
ENDBRANCH  15  16
ENDBRANCH  14  15
ENDBRANCH  13  14
ENDBRANCH   7  13
BRANCH   8  20
HETATM   20  C   UNL     1     -11.881  11.383  69.503  1.00  0.00    -0.357 C  
HETATM   21  O   UNL     1     -12.404  11.161  68.419  1.00  0.00    -0.556 OA 
BRANCH  20  22
HETATM   22  O   UNL     1     -11.693  12.625  70.017  1.00  0.00    -0.293 OA 
HETATM   23  C   UNL     1     -11.899  13.670  69.061  1.00  0.00    -0.352 C  
ENDBRANCH  20  22
ENDBRANCH   8  20
BRANCH  11  24
HETATM   24  C   UNL     1      -9.737   9.363  68.710  1.00  0.00    -0.161 A  
HETATM   25  C   UNL     1     -10.487   8.320  68.118  1.00  0.00    -0.226 A  
HETATM   26  C   UNL     1     -10.283   7.943  66.789  1.00  0.00    -0.358 A  
HETATM   27  C   UNL     1      -9.330   8.603  66.023  1.00  0.00    -0.284 A  
HETATM   28  C   UNL     1      -8.596   9.651  66.580  1.00  0.00    -0.135 A  
HETATM   29  C   UNL     1      -8.800  10.035  67.910  1.00  0.00    -0.125 A  
HETATM   30 CL   UNL     1      -7.863  11.361  68.498  1.00  0.00    -0.133 Cl 
ENDBRANCH  11  24
ENDBRANCH   4   6
ENDBRANCH   3   4
ENDBRANCH   2   3
TORSDOF 10
ENDMDL
MODEL       72
REMARK 921   NORMALIZED FREE ENERGY PREDICTED BY IDOCK:   -4.24 KCAL/MOL
REMARK 922        TOTAL FREE ENERGY PREDICTED BY IDOCK:   -8.45 KCAL/MOL
REMARK 923 INTER-LIGAND FREE ENERGY PREDICTED BY IDOCK:   -6.71 KCAL/MOL
REMARK 924 INTRA-LIGAND FREE ENERGY PREDICTED BY IDOCK:   -1.74 KCAL/MOL
REMARK 927      BINDING AFFINITY PREDICTED BY RF-SCORE:    0.00 PKD
ROOT
HETATM    1  C   UNL     1     -12.562   9.684  71.620  1.00  0.00    -0.493 C  
HETATM    2  C   UNL     1     -12.715  11.104  71.114  1.00  0.00    -0.408 C  
ENDROOT
BRANCH   2   3
HETATM    3  O   UNL     1     -11.503  11.395  70.426  1.00  0.00    -0.247 OA 
BRANCH   3   4
HETATM    4  C   UNL     1     -11.451  11.246  69.082  1.00  0.00    -0.297 C  
HETATM    5  O   UNL     1     -12.408  11.219  68.326  1.00  0.00    -0.542 OA 
BRANCH   4   6
HETATM    6  C   UNL     1     -10.024  11.334  68.658  1.00  0.00    -0.210 C  
HETATM    7  C   UNL     1      -9.521  12.432  68.037  1.00  0.00    -0.208 C  
HETATM    8  C   UNL     1      -7.728  10.219  68.311  1.00  0.00    -0.092 C  
HETATM    9  N   UNL     1      -8.203  12.437  67.617  1.00  0.00    -0.157 NA 
HETATM   10  C   UNL     1      -7.346  11.354  67.674  1.00  0.00    -0.102 C  
HETATM   11  C   UNL     1      -9.131  10.115  68.947  1.00  0.00    -0.165 C  
HETATM   12  C   UNL     1      -6.020  11.553  66.981  1.00  0.00    -0.125 C  
BRANCH   7  13
HETATM   13  C   UNL     1     -10.276  13.739  67.811  1.00  0.00    -0.241 C  
BRANCH  13  14
HETATM   14  O   UNL     1      -9.393  14.849  67.628  1.00  0.00    -0.188 OA 
BRANCH  14  15
HETATM   15  C   UNL     1      -9.131  15.546  68.851  1.00  0.00    -0.219 C  
BRANCH  15  16
HETATM   16  C   UNL     1     -10.308  16.468  69.180  1.00  0.00    -0.316 C  
HETATM   17  N   UNL     1     -10.617  17.365  68.064  1.00  0.00    -0.386 NA 
HETATM   18  H2  UNL     1     -10.780  16.845  67.201  1.00  0.00     0.000 HD 
HETATM   19  H1  UNL     1     -11.402  17.978  68.283  1.00  0.00     0.000 HD 
ENDBRANCH  15  16
ENDBRANCH  14  15
ENDBRANCH  13  14
ENDBRANCH   7  13
BRANCH   8  20
HETATM   20  C   UNL     1      -6.805   9.052  68.339  1.00  0.00    -0.064 C  
HETATM   21  O   UNL     1      -6.175   8.689  69.323  1.00  0.00    -0.041 OA 
BRANCH  20  22
HETATM   22  O   UNL     1      -6.761   8.429  67.134  1.00  0.00    -0.061 OA 
HETATM   23  C   UNL     1      -6.764   7.001  67.236  1.00  0.00    -0.067 C  
ENDBRANCH  20  22
ENDBRANCH   8  20
BRANCH  11  24
HETATM   24  C   UNL     1      -9.828   8.774  68.646  1.00  0.00    -0.180 A  
HETATM   25  C   UNL     1     -10.046   7.894  69.732  1.00  0.00    -0.199 A  
HETATM   26  C   UNL     1     -10.637   6.642  69.545  1.00  0.00    -0.281 A  
HETATM   27  C   UNL     1     -11.028   6.247  68.272  1.00  0.00    -0.408 A  
HETATM   28  C   UNL     1     -10.846   7.109  67.191  1.00  0.00    -0.403 A  
HETATM   29  C   UNL     1     -10.257   8.367  67.374  1.00  0.00    -0.260 A  
HETATM   30 CL   UNL     1     -10.102   9.372  65.978  1.00  0.00    -0.353 Cl 
ENDBRANCH  11  24
ENDBRANCH   4   6
ENDBRANCH   3   4
ENDBRANCH   2   3
TORSDOF 10
ENDMDL
MODEL       73
REMARK 921   NORMALIZED FREE ENERGY PREDICTED BY IDOCK:   -4.24 KCAL/MOL
REMARK 922        TOTAL FREE ENERGY PREDICTED BY IDOCK:   -8.45 KCAL/MOL
REMARK 923 INTER-LIGAND FREE ENERGY PREDICTED BY IDOCK:   -6.43 KCAL/MOL
REMARK 924 INTRA-LIGAND FREE ENERGY PREDICTED BY IDOCK:   -2.02 KCAL/MOL
REMARK 927      BINDING AFFINITY PREDICTED BY RF-SCORE:    0.00 PKD
ROOT
HETATM    1  C   UNL     1      -6.087  17.154  66.513  1.00  0.00    -0.237 C  
HETATM    2  C   UNL     1      -6.226  16.445  67.845  1.00  0.00    -0.128 C  
ENDROOT
BRANCH   2   3
HETATM    3  O   UNL     1      -6.376  15.066  67.527  1.00  0.00    -0.250 OA 
BRANCH   3   4
HETATM    4  C   UNL     1      -7.019  14.251  68.395  1.00  0.00    -0.100 C  
HETATM    5  O   UNL     1      -7.096  14.406  69.603  1.00  0.00    -0.126 OA 
BRANCH   4   6
HETATM    6  C   UNL     1      -7.794  13.249  67.607  1.00  0.00    -0.168 C  
HETATM    7  C   UNL     1      -7.196  12.202  66.984  1.00  0.00    -0.067 C  
HETATM    8  C   UNL     1     -10.007  12.482  66.537  1.00  0.00    -0.252 C  
HETATM    9  N   UNL     1      -7.957  11.334  66.220  1.00  0.00    -0.129 NA 
HETATM   10  C   UNL     1      -9.299  11.495  65.934  1.00  0.00    -0.226 C  
HETATM   11  C   UNL     1      -9.316  13.452  67.519  1.00  0.00    -0.218 C  
HETATM   12  C   UNL     1      -9.858  10.519  64.928  1.00  0.00    -0.379 C  
BRANCH   7  13
HETATM   13  C   UNL     1      -5.719  11.832  67.102  1.00  0.00    -0.131 C  
BRANCH  13  14
HETATM   14  O   UNL     1      -5.530  10.440  67.367  1.00  0.00    -0.041 OA 
BRANCH  14  15
HETATM   15  C   UNL     1      -5.764  10.107  68.739  1.00  0.00    -0.038 C  
BRANCH  15  16
HETATM   16  C   UNL     1      -5.209  11.214  69.639  1.00  0.00    -0.042 C  
HETATM   17  N   UNL     1      -6.143  11.553  70.714  1.00  0.00    -0.486 NA 
HETATM   18  H2  UNL     1      -6.404  10.728  71.255  1.00  0.00     0.000 HD 
HETATM   19  H1  UNL     1      -5.773  12.290  71.314  1.00  0.00     0.000 HD 
ENDBRANCH  15  16
ENDBRANCH  14  15
ENDBRANCH  13  14
ENDBRANCH   7  13
BRANCH   8  20
HETATM   20  C   UNL     1     -11.445  12.661  66.196  1.00  0.00    -0.365 C  
HETATM   21  O   UNL     1     -12.375  12.390  66.944  1.00  0.00    -0.425 OA 
BRANCH  20  22
HETATM   22  O   UNL     1     -11.597  13.177  64.950  1.00  0.00    -0.307 OA 
HETATM   23  C   UNL     1     -12.514  14.274  64.900  1.00  0.00    -0.390 C  
ENDBRANCH  20  22
ENDBRANCH   8  20
BRANCH  11  24
HETATM   24  C   UNL     1      -9.715  14.923  67.290  1.00  0.00    -0.228 A  
HETATM   25  C   UNL     1      -9.375  15.505  66.047  1.00  0.00    -0.379 A  
HETATM   26  C   UNL     1      -9.664  16.843  65.768  1.00  0.00    -0.123 A  
HETATM   27  C   UNL     1     -10.303  17.624  66.723  1.00  0.00    -0.331 A  
HETATM   28  C   UNL     1     -10.670  17.063  67.947  1.00  0.00    -0.348 A  
HETATM   29  C   UNL     1     -10.385  15.722  68.229  1.00  0.00    -0.239 A  
HETATM   30 CL   UNL     1     -10.905  15.114  69.759  1.00  0.00    -0.283 Cl 
ENDBRANCH  11  24
ENDBRANCH   4   6
ENDBRANCH   3   4
ENDBRANCH   2   3
TORSDOF 10
ENDMDL
MODEL       74
REMARK 921   NORMALIZED FREE ENERGY PREDICTED BY IDOCK:   -4.20 KCAL/MOL
REMARK 922        TOTAL FREE ENERGY PREDICTED BY IDOCK:   -8.40 KCAL/MOL
REMARK 923 INTER-LIGAND FREE ENERGY PREDICTED BY IDOCK:   -6.83 KCAL/MOL
REMARK 924 INTRA-LIGAND FREE ENERGY PREDICTED BY IDOCK:   -1.57 KCAL/MOL
REMARK 927      BINDING AFFINITY PREDICTED BY RF-SCORE:    0.00 PKD
ROOT
HETATM    1  C   UNL     1     -11.781  10.363  70.048  1.00  0.00    -0.366 C  
HETATM    2  C   UNL     1     -11.554  11.037  68.710  1.00  0.00    -0.318 C  
ENDROOT
BRANCH   2   3
HETATM    3  O   UNL     1     -10.788  10.114  67.945  1.00  0.00    -0.251 OA 
BRANCH   3   4
HETATM    4  C   UNL     1      -9.444  10.252  67.889  1.00  0.00    -0.141 C  
HETATM    5  O   UNL     1      -8.769  10.990  68.588  1.00  0.00    -0.152 OA 
BRANCH   4   6
HETATM    6  C   UNL     1      -8.904   9.200  66.980  1.00  0.00    -0.135 C  
HETATM    7  C   UNL     1      -8.848   9.369  65.634  1.00  0.00    -0.174 C  
HETATM    8  C   UNL     1      -8.049   6.800  66.607  1.00  0.00    -0.110 C  
HETATM    9  N   UNL     1      -8.388   8.338  64.834  1.00  0.00    -0.156 NA 
HETATM   10  C   UNL     1      -8.069   7.069  65.277  1.00  0.00    -0.134 C  
HETATM   11  C   UNL     1      -8.413   7.896  67.631  1.00  0.00    -0.127 C  
HETATM   12  C   UNL     1      -7.774   6.068  64.187  1.00  0.00    -0.108 C  
BRANCH   7  13
HETATM   13  C   UNL     1      -9.189  10.659  64.892  1.00  0.00    -0.217 C  
BRANCH  13  14
HETATM   14  O   UNL     1     -10.500  10.625  64.322  1.00  0.00    -0.349 OA 
BRANCH  14  15
HETATM   15  C   UNL     1     -10.730  11.710  63.417  1.00  0.00    -0.391 C  
BRANCH  15  16
HETATM   16  C   UNL     1     -12.153  12.243  63.605  1.00  0.00    -0.554 C  
HETATM   17  N   UNL     1     -12.239  13.670  63.286  1.00  0.00    -1.063 NA 
HETATM   18  H2  UNL     1     -11.889  13.864  62.347  1.00  0.00     0.000 HD 
HETATM   19  H1  UNL     1     -13.187  14.025  63.410  1.00  0.00     0.000 HD 
ENDBRANCH  15  16
ENDBRANCH  14  15
ENDBRANCH  13  14
ENDBRANCH   7  13
BRANCH   8  20
HETATM   20  C   UNL     1      -7.731   5.421  67.068  1.00  0.00    -0.100 C  
HETATM   21  O   UNL     1      -6.678   5.091  67.598  1.00  0.00    -0.052 OA 
BRANCH  20  22
HETATM   22  O   UNL     1      -8.765   4.573  66.837  1.00  0.00    -0.111 OA 
HETATM   23  C   UNL     1      -8.347   3.224  66.598  1.00  0.00    -0.102 C  
ENDBRANCH  20  22
ENDBRANCH   8  20
BRANCH  11  24
HETATM   24  C   UNL     1      -9.351   7.389  68.744  1.00  0.00    -0.144 A  
HETATM   25  C   UNL     1      -8.872   7.439  70.074  1.00  0.00    -0.141 A  
HETATM   26  C   UNL     1      -9.640   6.967  71.141  1.00  0.00    -0.167 A  
HETATM   27  C   UNL     1     -10.903   6.440  70.902  1.00  0.00    -0.316 A  
HETATM   28  C   UNL     1     -11.405   6.404  69.601  1.00  0.00    -0.479 A  
HETATM   29  C   UNL     1     -10.641   6.880  68.529  1.00  0.00    -0.212 A  
HETATM   30 CL   UNL     1     -11.362   6.818  66.961  1.00  0.00    -0.260 Cl 
ENDBRANCH  11  24
ENDBRANCH   4   6
ENDBRANCH   3   4
ENDBRANCH   2   3
TORSDOF 10
ENDMDL
MODEL       75
REMARK 921   NORMALIZED FREE ENERGY PREDICTED BY IDOCK:   -4.17 KCAL/MOL
REMARK 922        TOTAL FREE ENERGY PREDICTED BY IDOCK:   -8.35 KCAL/MOL
REMARK 923 INTER-LIGAND FREE ENERGY PREDICTED BY IDOCK:   -6.53 KCAL/MOL
REMARK 924 INTRA-LIGAND FREE ENERGY PREDICTED BY IDOCK:   -1.82 KCAL/MOL
REMARK 927      BINDING AFFINITY PREDICTED BY RF-SCORE:    0.00 PKD
ROOT
HETATM    1  C   UNL     1     -12.202  12.431  63.472  1.00  0.00    -0.661 C  
HETATM    2  C   UNL     1     -12.555  12.710  64.919  1.00  0.00    -0.450 C  
ENDROOT
BRANCH   2   3
HETATM    3  O   UNL     1     -11.485  12.164  65.683  1.00  0.00    -0.347 OA 
BRANCH   3   4
HETATM    4  C   UNL     1     -11.426  12.409  67.013  1.00  0.00    -0.358 C  
HETATM    5  O   UNL     1     -12.342  12.276  67.807  1.00  0.00    -0.292 OA 
BRANCH   4   6
HETATM    6  C   UNL     1     -10.002  12.664  67.377  1.00  0.00    -0.204 C  
HETATM    7  C   UNL     1      -9.366  13.815  67.040  1.00  0.00    -0.248 C  
HETATM    8  C   UNL     1      -7.758  11.825  68.322  1.00  0.00    -0.130 C  
HETATM    9  N   UNL     1      -8.028  13.975  67.357  1.00  0.00    -0.181 NA 
HETATM   10  C   UNL     1      -7.220  12.999  67.908  1.00  0.00    -0.129 C  
HETATM   11  C   UNL     1      -9.269  11.556  68.153  1.00  0.00    -0.181 C  
HETATM   12  C   UNL     1      -5.754  13.354  67.984  1.00  0.00    -0.122 C  
BRANCH   7  13
HETATM   13  C   UNL     1     -10.023  15.026  66.384  1.00  0.00    -0.279 C  
BRANCH  13  14
HETATM   14  O   UNL     1      -9.066  15.902  65.783  1.00  0.00    -0.305 OA 
BRANCH  14  15
HETATM   15  C   UNL     1      -9.093  17.215  66.353  1.00  0.00    -0.256 C  
BRANCH  15  16
HETATM   16  C   UNL     1      -7.663  17.685  66.632  1.00  0.00    -0.249 C  
HETATM   17  N   UNL     1      -6.700  16.592  66.483  1.00  0.00    -0.228 NA 
HETATM   18  H2  UNL     1      -6.776  16.151  65.566  1.00  0.00     0.000 HD 
HETATM   19  H1  UNL     1      -5.747  16.905  66.668  1.00  0.00     0.000 HD 
ENDBRANCH  15  16
ENDBRANCH  14  15
ENDBRANCH  13  14
ENDBRANCH   7  13
BRANCH   8  20
HETATM   20  C   UNL     1      -6.869  10.773  68.888  1.00  0.00    -0.069 C  
HETATM   21  O   UNL     1      -6.314   9.906  68.227  1.00  0.00    -0.054 OA 
BRANCH  20  22
HETATM   22  O   UNL     1      -6.742  10.906  70.232  1.00  0.00    -0.230 OA 
HETATM   23  C   UNL     1      -5.412  10.658  70.700  1.00  0.00    -0.096 C  
ENDBRANCH  20  22
ENDBRANCH   8  20
BRANCH  11  24
HETATM   24  C   UNL     1      -9.570  10.144  67.615  1.00  0.00    -0.170 A  
HETATM   25  C   UNL     1     -10.302   9.269  68.451  1.00  0.00    -0.244 A  
HETATM   26  C   UNL     1     -10.588   7.959  68.060  1.00  0.00    -0.194 A  
HETATM   27  C   UNL     1     -10.154   7.499  66.823  1.00  0.00    -0.313 A  
HETATM   28  C   UNL     1      -9.452   8.352  65.972  1.00  0.00    -0.224 A  
HETATM   29  C   UNL     1      -9.167   9.667  66.358  1.00  0.00    -0.163 A  
HETATM   30 CL   UNL     1      -8.318  10.653  65.223  1.00  0.00    -0.155 Cl 
ENDBRANCH  11  24
ENDBRANCH   4   6
ENDBRANCH   3   4
ENDBRANCH   2   3
TORSDOF 10
ENDMDL
MODEL       76
REMARK 921   NORMALIZED FREE ENERGY PREDICTED BY IDOCK:   -4.17 KCAL/MOL
REMARK 922        TOTAL FREE ENERGY PREDICTED BY IDOCK:   -8.34 KCAL/MOL
REMARK 923 INTER-LIGAND FREE ENERGY PREDICTED BY IDOCK:   -6.50 KCAL/MOL
REMARK 924 INTRA-LIGAND FREE ENERGY PREDICTED BY IDOCK:   -1.83 KCAL/MOL
REMARK 927      BINDING AFFINITY PREDICTED BY RF-SCORE:    0.00 PKD
ROOT
HETATM    1  C   UNL     1      -9.694   9.667  67.427  1.00  0.00    -0.198 C  
HETATM    2  C   UNL     1      -9.422   8.337  66.754  1.00  0.00    -0.198 C  
ENDROOT
BRANCH   2   3
HETATM    3  O   UNL     1      -9.339   7.387  67.811  1.00  0.00    -0.136 OA 
BRANCH   3   4
HETATM    4  C   UNL     1     -10.422   6.633  68.112  1.00  0.00    -0.214 C  
HETATM    5  O   UNL     1     -11.480   6.623  67.506  1.00  0.00    -0.161 OA 
BRANCH   4   6
HETATM    6  C   UNL     1     -10.033   5.665  69.178  1.00  0.00    -0.244 C  
HETATM    7  C   UNL     1      -9.785   4.358  68.910  1.00  0.00    -0.141 C  
HETATM    8  C   UNL     1      -9.709   5.105  71.671  1.00  0.00    -0.217 C  
HETATM    9  N   UNL     1      -9.482   3.492  69.947  1.00  0.00    -0.188 NA 
HETATM   10  C   UNL     1      -9.513   3.818  71.289  1.00  0.00    -0.159 C  
HETATM   11  C   UNL     1      -9.931   6.207  70.614  1.00  0.00    -0.229 C  
HETATM   12  C   UNL     1      -9.328   2.654  72.232  1.00  0.00    -0.159 C  
BRANCH   7  13
HETATM   13  C   UNL     1      -9.736   3.737  67.516  1.00  0.00    -0.085 C  
BRANCH  13  14
HETATM   14  O   UNL     1      -8.707   4.309  66.705  1.00  0.00    -0.111 OA 
BRANCH  14  15
HETATM   15  C   UNL     1      -9.055   4.332  65.316  1.00  0.00    -0.143 C  
BRANCH  15  16
HETATM   16  C   UNL     1     -10.577   4.272  65.167  1.00  0.00    -0.144 C  
HETATM   17  N   UNL     1     -10.982   3.250  64.199  1.00  0.00    -0.587 NA 
HETATM   18  H2  UNL     1     -10.594   2.337  64.437  1.00  0.00     0.000 HD 
HETATM   19  H1  UNL     1     -11.996   3.209  64.099  1.00  0.00     0.000 HD 
ENDBRANCH  15  16
ENDBRANCH  14  15
ENDBRANCH  13  14
ENDBRANCH   7  13
BRANCH   8  20
HETATM   20  C   UNL     1      -9.768   5.435  73.121  1.00  0.00    -0.149 C  
HETATM   21  O   UNL     1     -10.746   5.258  73.834  1.00  0.00    -0.276 OA 
BRANCH  20  22
HETATM   22  O   UNL     1      -8.590   5.948  73.559  1.00  0.00    -0.120 OA 
HETATM   23  C   UNL     1      -8.704   7.289  74.045  1.00  0.00    -0.207 C  
ENDBRANCH  20  22
ENDBRANCH   8  20
BRANCH  11  24
HETATM   24  C   UNL     1     -11.082   7.165  70.979  1.00  0.00    -0.287 A  
HETATM   25  C   UNL     1     -12.366   6.601  71.164  1.00  0.00    -0.310 A  
HETATM   26  C   UNL     1     -13.474   7.399  71.459  1.00  0.00    -0.445 A  
HETATM   27  C   UNL     1     -13.320   8.774  71.583  1.00  0.00    -0.402 A  
HETATM   28  C   UNL     1     -12.058   9.348  71.430  1.00  0.00    -0.442 A  
HETATM   29  C   UNL     1     -10.944   8.553  71.137  1.00  0.00    -0.253 A  
HETATM   30 CL   UNL     1      -9.422   9.354  70.995  1.00  0.00    -0.301 Cl 
ENDBRANCH  11  24
ENDBRANCH   4   6
ENDBRANCH   3   4
ENDBRANCH   2   3
TORSDOF 10
ENDMDL
MODEL       77
REMARK 921   NORMALIZED FREE ENERGY PREDICTED BY IDOCK:   -4.14 KCAL/MOL
REMARK 922        TOTAL FREE ENERGY PREDICTED BY IDOCK:   -8.30 KCAL/MOL
REMARK 923 INTER-LIGAND FREE ENERGY PREDICTED BY IDOCK:   -6.62 KCAL/MOL
REMARK 924 INTRA-LIGAND FREE ENERGY PREDICTED BY IDOCK:   -1.68 KCAL/MOL
REMARK 927      BINDING AFFINITY PREDICTED BY RF-SCORE:    0.00 PKD
ROOT
HETATM    1  C   UNL     1     -10.459  17.153  69.122  1.00  0.00    -0.296 C  
HETATM    2  C   UNL     1     -10.179  17.241  67.635  1.00  0.00    -0.333 C  
ENDROOT
BRANCH   2   3
HETATM    3  O   UNL     1     -10.611  15.999  67.092  1.00  0.00    -0.306 OA 
BRANCH   3   4
HETATM    4  C   UNL     1      -9.760  15.277  66.327  1.00  0.00    -0.299 C  
HETATM    5  O   UNL     1      -9.322  15.604  65.237  1.00  0.00    -0.194 OA 
BRANCH   4   6
HETATM    6  C   UNL     1      -9.283  14.114  67.131  1.00  0.00    -0.237 C  
HETATM    7  C   UNL     1      -8.102  14.136  67.800  1.00  0.00    -0.166 C  
HETATM    8  C   UNL     1      -9.531  11.658  67.865  1.00  0.00    -0.181 C  
HETATM    9  N   UNL     1      -7.683  13.009  68.485  1.00  0.00    -0.128 NA 
HETATM   10  C   UNL     1      -8.322  11.784  68.467  1.00  0.00    -0.131 C  
HETATM   11  C   UNL     1     -10.186  12.870  67.169  1.00  0.00    -0.239 C  
HETATM   12  C   UNL     1      -7.568  10.662  69.138  1.00  0.00    -0.131 C  
BRANCH   7  13
HETATM   13  C   UNL     1      -7.187  15.350  67.936  1.00  0.00    -0.145 C  
BRANCH  13  14
HETATM   14  O   UNL     1      -7.226  15.914  69.249  1.00  0.00    -0.193 OA 
BRANCH  14  15
HETATM   15  C   UNL     1      -5.918  16.143  69.785  1.00  0.00    -0.177 C  
BRANCH  15  16
HETATM   16  C   UNL     1      -5.350  14.832  70.333  1.00  0.00    -0.120 C  
HETATM   17  N   UNL     1      -6.364  14.073  71.069  1.00  0.00    -0.424 NA 
HETATM   18  H2  UNL     1      -7.194  13.910  70.499  1.00  0.00     0.000 HD 
HETATM   19  H1  UNL     1      -5.985  13.199  71.435  1.00  0.00     0.000 HD 
ENDBRANCH  15  16
ENDBRANCH  14  15
ENDBRANCH  13  14
ENDBRANCH   7  13
BRANCH   8  20
HETATM   20  C   UNL     1     -10.193  10.325  67.828  1.00  0.00    -0.187 C  
HETATM   21  O   UNL     1      -9.741   9.342  67.258  1.00  0.00    -0.152 OA 
BRANCH  20  22
HETATM   22  O   UNL     1     -11.360  10.335  68.521  1.00  0.00    -0.241 OA 
HETATM   23  C   UNL     1     -11.232   9.822  69.850  1.00  0.00    -0.229 C  
ENDBRANCH  20  22
ENDBRANCH   8  20
BRANCH  11  24
HETATM   24  C   UNL     1     -10.785  12.520  65.792  1.00  0.00    -0.299 A  
HETATM   25  C   UNL     1      -9.987  11.757  64.908  1.00  0.00    -0.280 A  
HETATM   26  C   UNL     1     -10.436  11.426  63.628  1.00  0.00    -0.472 A  
HETATM   27  C   UNL     1     -11.691  11.844  63.207  1.00  0.00    -0.397 A  
HETATM   28  C   UNL     1     -12.505  12.576  64.072  1.00  0.00    -0.527 A  
HETATM   29  C   UNL     1     -12.062  12.907  65.357  1.00  0.00    -0.454 A  
HETATM   30 CL   UNL     1     -13.154  13.791  66.362  1.00  0.00     0.321 Cl 
ENDBRANCH  11  24
ENDBRANCH   4   6
ENDBRANCH   3   4
ENDBRANCH   2   3
TORSDOF 10
ENDMDL
MODEL       78
REMARK 921   NORMALIZED FREE ENERGY PREDICTED BY IDOCK:   -4.14 KCAL/MOL
REMARK 922        TOTAL FREE ENERGY PREDICTED BY IDOCK:   -8.30 KCAL/MOL
REMARK 923 INTER-LIGAND FREE ENERGY PREDICTED BY IDOCK:   -6.52 KCAL/MOL
REMARK 924 INTRA-LIGAND FREE ENERGY PREDICTED BY IDOCK:   -1.79 KCAL/MOL
REMARK 927      BINDING AFFINITY PREDICTED BY RF-SCORE:    0.00 PKD
ROOT
HETATM    1  C   UNL     1     -12.525  12.627  70.852  1.00  0.00    -0.368 C  
HETATM    2  C   UNL     1     -12.894  11.167  71.021  1.00  0.00    -0.329 C  
ENDROOT
BRANCH   2   3
HETATM    3  O   UNL     1     -12.266  10.489  69.939  1.00  0.00    -0.281 OA 
BRANCH   3   4
HETATM    4  C   UNL     1     -11.040   9.944  70.118  1.00  0.00    -0.296 C  
HETATM    5  O   UNL     1     -10.459   9.821  71.184  1.00  0.00    -0.274 OA 
BRANCH   4   6
HETATM    6  C   UNL     1     -10.610   9.329  68.829  1.00  0.00    -0.220 C  
HETATM    7  C   UNL     1     -10.336   8.004  68.718  1.00  0.00    -0.206 C  
HETATM    8  C   UNL     1      -9.852   9.582  66.381  1.00  0.00    -0.320 C  
HETATM    9  N   UNL     1      -9.888   7.497  67.510  1.00  0.00    -0.151 NA 
HETATM   10  C   UNL     1      -9.579   8.254  66.397  1.00  0.00    -0.230 C  
HETATM   11  C   UNL     1     -10.478  10.265  67.616  1.00  0.00    -0.285 C  
HETATM   12  C   UNL     1      -8.931   7.491  65.267  1.00  0.00     0.222 C  
BRANCH   7  13
HETATM   13  C   UNL     1     -10.550   6.964  69.815  1.00  0.00    -0.233 C  
BRANCH  13  14
HETATM   14  O   UNL     1      -9.359   6.718  70.566  1.00  0.00    -0.162 OA 
BRANCH  14  15
HETATM   15  C   UNL     1      -9.635   6.322  71.914  1.00  0.00    -0.152 C  
BRANCH  15  16
HETATM   16  C   UNL     1     -11.097   6.626  72.250  1.00  0.00    -0.258 C  
HETATM   17  N   UNL     1     -11.206   7.558  73.375  1.00  0.00    -0.610 NA 
HETATM   18  H2  UNL     1     -10.677   8.413  73.204  1.00  0.00     0.000 HD 
HETATM   19  H1  UNL     1     -12.181   7.761  73.599  1.00  0.00     0.000 HD 
ENDBRANCH  15  16
ENDBRANCH  14  15
ENDBRANCH  13  14
ENDBRANCH   7  13
BRANCH   8  20
HETATM   20  C   UNL     1      -9.486  10.389  65.185  1.00  0.00    -0.249 C  
HETATM   21  O   UNL     1      -8.339  10.627  64.832  1.00  0.00    -0.160 OA 
BRANCH  20  22
HETATM   22  O   UNL     1     -10.591  10.819  64.524  1.00  0.00    -0.336 OA 
HETATM   23  C   UNL     1     -10.306  11.817  63.537  1.00  0.00    -0.448 C  
ENDBRANCH  20  22
ENDBRANCH   8  20
BRANCH  11  24
HETATM   24  C   UNL     1      -9.807  11.609  67.963  1.00  0.00    -0.193 A  
HETATM   25  C   UNL     1     -10.616  12.770  67.927  1.00  0.00    -0.232 A  
HETATM   26  C   UNL     1     -10.083  14.034  68.190  1.00  0.00    -0.244 A  
HETATM   27  C   UNL     1      -8.735  14.163  68.501  1.00  0.00    -0.166 A  
HETATM   28  C   UNL     1      -7.926  13.029  68.567  1.00  0.00    -0.090 A  
HETATM   29  C   UNL     1      -8.456  11.760  68.308  1.00  0.00    -0.161 A  
HETATM   30 CL   UNL     1      -7.379  10.416  68.443  1.00  0.00    -0.083 Cl 
ENDBRANCH  11  24
ENDBRANCH   4   6
ENDBRANCH   3   4
ENDBRANCH   2   3
TORSDOF 10
ENDMDL
MODEL       79
REMARK 921   NORMALIZED FREE ENERGY PREDICTED BY IDOCK:   -4.12 KCAL/MOL
REMARK 922        TOTAL FREE ENERGY PREDICTED BY IDOCK:   -8.27 KCAL/MOL
REMARK 923 INTER-LIGAND FREE ENERGY PREDICTED BY IDOCK:   -6.72 KCAL/MOL
REMARK 924 INTRA-LIGAND FREE ENERGY PREDICTED BY IDOCK:   -1.55 KCAL/MOL
REMARK 927      BINDING AFFINITY PREDICTED BY RF-SCORE:    0.00 PKD
ROOT
HETATM    1  C   UNL     1      -8.731   9.310  64.588  1.00  0.00    -0.223 C  
HETATM    2  C   UNL     1      -9.845   9.799  65.491  1.00  0.00    -0.308 C  
ENDROOT
BRANCH   2   3
HETATM    3  O   UNL     1      -9.877   8.888  66.583  1.00  0.00    -0.215 OA 
BRANCH   3   4
HETATM    4  C   UNL     1      -9.270   9.221  67.745  1.00  0.00    -0.129 C  
HETATM    5  O   UNL     1      -8.074   9.403  67.903  1.00  0.00    -0.102 OA 
BRANCH   4   6
HETATM    6  C   UNL     1     -10.326   9.537  68.750  1.00  0.00    -0.228 C  
HETATM    7  C   UNL     1     -10.682  10.813  69.047  1.00  0.00    -0.228 C  
HETATM    8  C   UNL     1     -11.942   8.769  70.602  1.00  0.00    -0.078 C  
HETATM    9  N   UNL     1     -11.630  11.049  70.027  1.00  0.00    -0.318 NA 
HETATM   10  C   UNL     1     -12.193  10.081  70.837  1.00  0.00    -0.346 C  
HETATM   11  C   UNL     1     -11.002   8.347  69.453  1.00  0.00    -0.016 C  
HETATM   12  C   UNL     1     -13.058  10.610  71.955  1.00  0.00    -0.563 C  
BRANCH   7  13
HETATM   13  C   UNL     1     -10.172  12.060  68.330  1.00  0.00    -0.206 C  
BRANCH  13  14
HETATM   14  O   UNL     1     -11.136  13.116  68.327  1.00  0.00    -0.242 OA 
BRANCH  14  15
HETATM   15  C   UNL     1     -11.150  13.840  67.092  1.00  0.00    -0.302 C  
BRANCH  15  16
HETATM   16  C   UNL     1      -9.886  13.516  66.291  1.00  0.00    -0.299 C  
HETATM   17  N   UNL     1     -10.156  13.477  64.852  1.00  0.00    -0.585 NA 
HETATM   18  H2  UNL     1     -10.590  14.343  64.531  1.00  0.00     0.000 HD 
HETATM   19  H1  UNL     1      -9.314  13.262  64.319  1.00  0.00     0.000 HD 
ENDBRANCH  15  16
ENDBRANCH  14  15
ENDBRANCH  13  14
ENDBRANCH   7  13
BRANCH   8  20
HETATM   20  C   UNL     1     -12.533   7.740  71.501  1.00  0.00    -0.324 C  
HETATM   21  O   UNL     1     -13.564   7.125  71.268  1.00  0.00    -0.353 OA 
BRANCH  20  22
HETATM   22  O   UNL     1     -11.774   7.562  72.612  1.00  0.00    -0.295 OA 
HETATM   23  C   UNL     1     -11.517   6.185  72.905  1.00  0.00    -0.113 C  
ENDBRANCH  20  22
ENDBRANCH   8  20
BRANCH  11  24
HETATM   24  C   UNL     1     -10.005   7.247  69.866  1.00  0.00    -0.183 A  
HETATM   25  C   UNL     1     -10.210   5.950  69.339  1.00  0.00    -0.284 A  
HETATM   26  C   UNL     1      -9.377   4.885  69.689  1.00  0.00    -0.190 A  
HETATM   27  C   UNL     1      -8.321   5.094  70.567  1.00  0.00    -0.110 A  
HETATM   28  C   UNL     1      -8.086   6.370  71.079  1.00  0.00    -0.121 A  
HETATM   29  C   UNL     1      -8.915   7.442  70.728  1.00  0.00    -0.151 A  
HETATM   30 CL   UNL     1      -8.525   8.988  71.391  1.00  0.00    -0.206 Cl 
ENDBRANCH  11  24
ENDBRANCH   4   6
ENDBRANCH   3   4
ENDBRANCH   2   3
TORSDOF 10
ENDMDL
MODEL       80
REMARK 921   NORMALIZED FREE ENERGY PREDICTED BY IDOCK:   -4.12 KCAL/MOL
REMARK 922        TOTAL FREE ENERGY PREDICTED BY IDOCK:   -8.26 KCAL/MOL
REMARK 923 INTER-LIGAND FREE ENERGY PREDICTED BY IDOCK:   -6.50 KCAL/MOL
REMARK 924 INTRA-LIGAND FREE ENERGY PREDICTED BY IDOCK:   -1.76 KCAL/MOL
REMARK 927      BINDING AFFINITY PREDICTED BY RF-SCORE:    0.00 PKD
ROOT
HETATM    1  C   UNL     1      -6.436  13.257  69.126  1.00  0.00    -0.106 C  
HETATM    2  C   UNL     1      -6.993  12.689  67.836  1.00  0.00    -0.110 C  
ENDROOT
BRANCH   2   3
HETATM    3  O   UNL     1      -7.981  11.744  68.232  1.00  0.00    -0.132 OA 
BRANCH   3   4
HETATM    4  C   UNL     1      -9.201  11.774  67.648  1.00  0.00    -0.180 C  
HETATM    5  O   UNL     1      -9.462  11.409  66.514  1.00  0.00    -0.190 OA 
BRANCH   4   6
HETATM    6  C   UNL     1     -10.208  12.127  68.690  1.00  0.00    -0.186 C  
HETATM    7  C   UNL     1     -10.977  11.188  69.298  1.00  0.00    -0.247 C  
HETATM    8  C   UNL     1     -11.538  13.906  69.994  1.00  0.00    -0.282 C  
HETATM    9  N   UNL     1     -11.934  11.578  70.218  1.00  0.00    -0.355 NA 
HETATM   10  C   UNL     1     -12.268  12.887  70.511  1.00  0.00    -0.314 C  
HETATM   11  C   UNL     1     -10.351  13.616  69.050  1.00  0.00    -0.048 C  
HETATM   12  C   UNL     1     -13.472  13.052  71.407  1.00  0.00    -0.062 C  
BRANCH   7  13
HETATM   13  C   UNL     1     -10.838   9.679  69.113  1.00  0.00    -0.190 C  
BRANCH  13  14
HETATM   14  O   UNL     1     -11.305   8.949  70.249  1.00  0.00    -0.244 OA 
BRANCH  14  15
HETATM   15  C   UNL     1     -10.286   8.125  70.826  1.00  0.00    -0.194 C  
BRANCH  15  16
HETATM   16  C   UNL     1      -9.741   7.163  69.767  1.00  0.00    -0.165 C  
HETATM   17  N   UNL     1     -10.706   6.108  69.452  1.00  0.00    -0.282 NA 
HETATM   18  H2  UNL     1     -11.608   6.499  69.173  1.00  0.00     0.000 HD 
HETATM   19  H1  UNL     1     -10.344   5.468  68.746  1.00  0.00     0.000 HD 
ENDBRANCH  15  16
ENDBRANCH  14  15
ENDBRANCH  13  14
ENDBRANCH   7  13
BRANCH   8  20
HETATM   20  C   UNL     1     -11.928  15.310  70.296  1.00  0.00    -0.330 C  
HETATM   21  O   UNL     1     -12.803  15.929  69.706  1.00  0.00    -0.075 OA 
BRANCH  20  22
HETATM   22  O   UNL     1     -11.195  15.817  71.320  1.00  0.00    -0.366 OA 
HETATM   23  C   UNL     1     -11.997  16.317  72.394  1.00  0.00    -0.540 C  
ENDBRANCH  20  22
ENDBRANCH   8  20
BRANCH  11  24
HETATM   24  C   UNL     1     -10.326  14.538  67.816  1.00  0.00    -0.237 A  
HETATM   25  C   UNL     1      -9.331  15.543  67.773  1.00  0.00    -0.195 A  
HETATM   26  C   UNL     1      -9.258  16.447  66.710  1.00  0.00    -0.259 A  
HETATM   27  C   UNL     1     -10.172  16.362  65.668  1.00  0.00    -0.349 A  
HETATM   28  C   UNL     1     -11.146  15.363  65.678  1.00  0.00    -0.272 A  
HETATM   29  C   UNL     1     -11.221  14.452  66.739  1.00  0.00    -0.337 A  
HETATM   30 CL   UNL     1     -12.443  13.236  66.645  1.00  0.00    -0.256 Cl 
ENDBRANCH  11  24
ENDBRANCH   4   6
ENDBRANCH   3   4
ENDBRANCH   2   3
TORSDOF 10
ENDMDL
MODEL       81
REMARK 921   NORMALIZED FREE ENERGY PREDICTED BY IDOCK:   -4.12 KCAL/MOL
REMARK 922        TOTAL FREE ENERGY PREDICTED BY IDOCK:   -8.26 KCAL/MOL
REMARK 923 INTER-LIGAND FREE ENERGY PREDICTED BY IDOCK:   -6.50 KCAL/MOL
REMARK 924 INTRA-LIGAND FREE ENERGY PREDICTED BY IDOCK:   -1.76 KCAL/MOL
REMARK 927      BINDING AFFINITY PREDICTED BY RF-SCORE:    0.00 PKD
ROOT
HETATM    1  C   UNL     1      -7.748   4.992  68.930  1.00  0.00    -0.077 C  
HETATM    2  C   UNL     1      -7.079   6.201  69.552  1.00  0.00    -0.069 C  
ENDROOT
BRANCH   2   3
HETATM    3  O   UNL     1      -8.138   7.086  69.898  1.00  0.00    -0.121 OA 
BRANCH   3   4
HETATM    4  C   UNL     1      -7.845   8.312  70.390  1.00  0.00    -0.089 C  
HETATM    5  O   UNL     1      -6.737   8.818  70.442  1.00  0.00    -0.038 OA 
BRANCH   4   6
HETATM    6  C   UNL     1      -9.128   9.023  70.663  1.00  0.00    -0.280 C  
HETATM    7  C   UNL     1      -9.916   8.710  71.723  1.00  0.00    -0.301 C  
HETATM    8  C   UNL     1     -10.956  10.684  69.933  1.00  0.00    -0.337 C  
HETATM    9  N   UNL     1     -11.122   9.365  71.897  1.00  0.00    -0.267 NA 
HETATM   10  C   UNL     1     -11.673  10.265  71.005  1.00  0.00    -0.370 C  
HETATM   11  C   UNL     1      -9.535  10.135  69.681  1.00  0.00    -0.226 C  
HETATM   12  C   UNL     1     -13.082  10.700  71.327  1.00  0.00    -0.456 C  
BRANCH   7  13
HETATM   13  C   UNL     1      -9.557   7.716  72.826  1.00  0.00    -0.198 C  
BRANCH  13  14
HETATM   14  O   UNL     1     -10.563   6.716  73.002  1.00  0.00    -0.223 OA 
BRANCH  14  15
HETATM   15  C   UNL     1     -10.655   5.830  71.882  1.00  0.00    -0.232 C  
BRANCH  15  16
HETATM   16  C   UNL     1     -12.022   5.989  71.210  1.00  0.00     0.181 C  
HETATM   17  N   UNL     1     -12.976   6.669  72.089  1.00  0.00    -0.548 NA 
HETATM   18  H2  UNL     1     -12.612   7.565  72.413  1.00  0.00     0.000 HD 
HETATM   19  H1  UNL     1     -13.887   6.775  71.641  1.00  0.00     0.000 HD 
ENDBRANCH  15  16
ENDBRANCH  14  15
ENDBRANCH  13  14
ENDBRANCH   7  13
BRANCH   8  20
HETATM   20  C   UNL     1     -11.574  11.632  68.966  1.00  0.00    -0.316 C  
HETATM   21  O   UNL     1     -12.256  11.299  68.007  1.00  0.00    -0.621 OA 
BRANCH  20  22
HETATM   22  O   UNL     1     -11.294  12.920  69.291  1.00  0.00    -0.261 OA 
HETATM   23  C   UNL     1     -11.818  13.866  68.353  1.00  0.00    -0.374 C  
ENDBRANCH  20  22
ENDBRANCH   8  20
BRANCH  11  24
HETATM   24  C   UNL     1      -9.291   9.755  68.208  1.00  0.00    -0.134 A  
HETATM   25  C   UNL     1     -10.054   8.691  67.672  1.00  0.00    -0.271 A  
HETATM   26  C   UNL     1      -9.872   8.256  66.358  1.00  0.00    -0.283 A  
HETATM   27  C   UNL     1      -8.929   8.878  65.550  1.00  0.00    -0.246 A  
HETATM   28  C   UNL     1      -8.183   9.946  66.049  1.00  0.00    -0.119 A  
HETATM   29  C   UNL     1      -8.364  10.388  67.365  1.00  0.00    -0.121 A  
HETATM   30 CL   UNL     1      -7.413  11.734  67.880  1.00  0.00    -0.101 Cl 
ENDBRANCH  11  24
ENDBRANCH   4   6
ENDBRANCH   3   4
ENDBRANCH   2   3
TORSDOF 10
ENDMDL
MODEL       82
REMARK 921   NORMALIZED FREE ENERGY PREDICTED BY IDOCK:   -4.08 KCAL/MOL
REMARK 922        TOTAL FREE ENERGY PREDICTED BY IDOCK:   -8.20 KCAL/MOL
REMARK 923 INTER-LIGAND FREE ENERGY PREDICTED BY IDOCK:   -6.88 KCAL/MOL
REMARK 924 INTRA-LIGAND FREE ENERGY PREDICTED BY IDOCK:   -1.33 KCAL/MOL
REMARK 927      BINDING AFFINITY PREDICTED BY RF-SCORE:    0.00 PKD
ROOT
HETATM    1  C   UNL     1     -12.238  10.778  69.584  1.00  0.00    -0.325 C  
HETATM    2  C   UNL     1     -11.571  12.130  69.738  1.00  0.00    -0.262 C  
ENDROOT
BRANCH   2   3
HETATM    3  O   UNL     1     -10.923  12.378  68.495  1.00  0.00    -0.222 OA 
BRANCH   3   4
HETATM    4  C   UNL     1     -11.581  13.056  67.527  1.00  0.00    -0.356 C  
HETATM    5  O   UNL     1     -12.727  12.852  67.160  1.00  0.00     0.140 OA 
BRANCH   4   6
HETATM    6  C   UNL     1     -10.749  14.229  67.130  1.00  0.00    -0.282 C  
HETATM    7  C   UNL     1      -9.688  14.110  66.291  1.00  0.00    -0.297 C  
HETATM    8  C   UNL     1     -10.115  16.709  67.409  1.00  0.00    -0.274 C  
HETATM    9  N   UNL     1      -8.918  15.222  66.001  1.00  0.00    -0.231 NA 
HETATM   10  C   UNL     1      -9.063  16.465  66.587  1.00  0.00    -0.250 C  
HETATM   11  C   UNL     1     -11.136  15.595  67.722  1.00  0.00    -0.311 C  
HETATM   12  C   UNL     1      -7.983  17.462  66.244  1.00  0.00    -0.314 C  
BRANCH   7  13
HETATM   13  C   UNL     1      -9.288  12.837  65.551  1.00  0.00     0.237 C  
BRANCH  13  14
HETATM   14  O   UNL     1      -9.853  12.772  64.239  1.00  0.00    -0.188 OA 
BRANCH  14  15
HETATM   15  C   UNL     1     -10.913  11.814  64.148  1.00  0.00    -0.374 C  
BRANCH  15  16
HETATM   16  C   UNL     1     -12.216  12.523  63.771  1.00  0.00    -0.525 C  
HETATM   17  N   UNL     1     -13.045  11.694  62.893  1.00  0.00    -0.706 NA 
HETATM   18  H2  UNL     1     -13.225  10.778  63.305  1.00  0.00     0.000 HD 
HETATM   19  H1  UNL     1     -13.913  12.167  62.642  1.00  0.00     0.000 HD 
ENDBRANCH  15  16
ENDBRANCH  14  15
ENDBRANCH  13  14
ENDBRANCH   7  13
BRANCH   8  20
HETATM   20  C   UNL     1     -10.242  18.044  68.055  1.00  0.00    -0.382 C  
HETATM   21  O   UNL     1      -9.594  18.409  69.026  1.00  0.00    -0.281 OA 
BRANCH  20  22
HETATM   22  O   UNL     1     -11.162  18.813  67.420  1.00  0.00    -0.192 OA 
HETATM   23  C   UNL     1     -10.590  19.938  66.744  1.00  0.00    -0.414 C  
ENDBRANCH  20  22
ENDBRANCH   8  20
BRANCH  11  24
HETATM   24  C   UNL     1     -11.503  15.521  69.217  1.00  0.00    -0.349 A  
HETATM   25  C   UNL     1     -12.875  15.600  69.556  1.00  0.00     0.438 A  
HETATM   26  C   UNL     1     -13.295  15.579  70.888  1.00  0.00    -0.414 A  
HETATM   27  C   UNL     1     -12.357  15.472  71.906  1.00  0.00    -0.472 A  
HETATM   28  C   UNL     1     -11.001  15.366  71.593  1.00  0.00    -0.122 A  
HETATM   29  C   UNL     1     -10.575  15.383  70.260  1.00  0.00    -0.277 A  
HETATM   30 CL   UNL     1      -8.880  15.219  69.975  1.00  0.00     0.129 Cl 
ENDBRANCH  11  24
ENDBRANCH   4   6
ENDBRANCH   3   4
ENDBRANCH   2   3
TORSDOF 10
ENDMDL
MODEL       83
REMARK 921   NORMALIZED FREE ENERGY PREDICTED BY IDOCK:   -4.03 KCAL/MOL
REMARK 922        TOTAL FREE ENERGY PREDICTED BY IDOCK:   -8.13 KCAL/MOL
REMARK 923 INTER-LIGAND FREE ENERGY PREDICTED BY IDOCK:   -6.81 KCAL/MOL
REMARK 924 INTRA-LIGAND FREE ENERGY PREDICTED BY IDOCK:   -1.32 KCAL/MOL
REMARK 927      BINDING AFFINITY PREDICTED BY RF-SCORE:    0.00 PKD
ROOT
HETATM    1  C   UNL     1      -8.281   8.662  64.404  1.00  0.00    -0.163 C  
HETATM    2  C   UNL     1      -9.090   8.244  65.615  1.00  0.00    -0.065 C  
ENDROOT
BRANCH   2   3
HETATM    3  O   UNL     1      -9.929   9.353  65.913  1.00  0.00    -0.303 OA 
BRANCH   3   4
HETATM    4  C   UNL     1      -9.499  10.296  66.783  1.00  0.00    -0.163 C  
HETATM    5  O   UNL     1      -8.611  11.107  66.582  1.00  0.00    -0.154 OA 
BRANCH   4   6
HETATM    6  C   UNL     1     -10.433  10.316  67.947  1.00  0.00    -0.253 C  
HETATM    7  C   UNL     1     -11.434  11.227  68.053  1.00  0.00    -0.298 C  
HETATM    8  C   UNL     1     -11.099   9.471  70.286  1.00  0.00    -0.317 C  
HETATM    9  N   UNL     1     -12.236  11.234  69.181  1.00  0.00    -0.415 NA 
HETATM   10  C   UNL     1     -12.043  10.445  70.298  1.00  0.00    -0.286 C  
HETATM   11  C   UNL     1     -10.212   9.259  69.041  1.00  0.00    -0.217 C  
HETATM   12  C   UNL     1     -12.935  10.771  71.471  1.00  0.00    -0.562 C  
BRANCH   7  13
HETATM   13  C   UNL     1     -11.823  12.239  66.978  1.00  0.00    -0.259 C  
BRANCH  13  14
HETATM   14  O   UNL     1     -12.400  13.424  67.533  1.00  0.00    -0.246 OA 
BRANCH  14  15
HETATM   15  C   UNL     1     -11.422  14.436  67.796  1.00  0.00    -0.336 C  
BRANCH  15  16
HETATM   16  C   UNL     1     -11.810  15.210  69.059  1.00  0.00    -0.304 C  
HETATM   17  N   UNL     1     -11.272  14.575  70.264  1.00  0.00    -0.454 NA 
HETATM   18  H2  UNL     1     -10.262  14.448  70.200  1.00  0.00     0.000 HD 
HETATM   19  H1  UNL     1     -11.530  15.091  71.106  1.00  0.00     0.000 HD 
ENDBRANCH  15  16
ENDBRANCH  14  15
ENDBRANCH  13  14
ENDBRANCH   7  13
BRANCH   8  20
HETATM   20  C   UNL     1     -10.883   8.648  71.508  1.00  0.00    -0.282 C  
HETATM   21  O   UNL     1      -9.948   8.790  72.284  1.00  0.00    -0.308 OA 
BRANCH  20  22
HETATM   22  O   UNL     1     -11.866   7.725  71.660  1.00  0.00    -0.268 OA 
HETATM   23  C   UNL     1     -11.773   6.642  70.729  1.00  0.00    -0.388 C  
ENDBRANCH  20  22
ENDBRANCH   8  20
BRANCH  11  24
HETATM   24  C   UNL     1      -8.724   9.056  69.391  1.00  0.00    -0.142 A  
HETATM   25  C   UNL     1      -7.989  10.195  69.797  1.00  0.00    -0.172 A  
HETATM   26  C   UNL     1      -6.628  10.111  70.097  1.00  0.00    -0.128 A  
HETATM   27  C   UNL     1      -5.975   8.888  70.004  1.00  0.00    -0.030 A  
HETATM   28  C   UNL     1      -6.686   7.748  69.630  1.00  0.00    -0.039 A  
HETATM   29  C   UNL     1      -8.052   7.826  69.332  1.00  0.00    -0.126 A  
HETATM   30 CL   UNL     1      -8.849   6.355  68.906  1.00  0.00    -0.125 Cl 
ENDBRANCH  11  24
ENDBRANCH   4   6
ENDBRANCH   3   4
ENDBRANCH   2   3
TORSDOF 10
ENDMDL
MODEL       84
REMARK 921   NORMALIZED FREE ENERGY PREDICTED BY IDOCK:   -4.03 KCAL/MOL
REMARK 922        TOTAL FREE ENERGY PREDICTED BY IDOCK:   -8.13 KCAL/MOL
REMARK 923 INTER-LIGAND FREE ENERGY PREDICTED BY IDOCK:   -6.40 KCAL/MOL
REMARK 924 INTRA-LIGAND FREE ENERGY PREDICTED BY IDOCK:   -1.73 KCAL/MOL
REMARK 927      BINDING AFFINITY PREDICTED BY RF-SCORE:    0.00 PKD
ROOT
HETATM    1  C   UNL     1     -11.381  10.816  67.725  1.00  0.00    -0.354 C  
HETATM    2  C   UNL     1     -10.044  10.608  67.043  1.00  0.00    -0.211 C  
ENDROOT
BRANCH   2   3
HETATM    3  O   UNL     1      -9.442  11.896  66.984  1.00  0.00    -0.182 OA 
BRANCH   3   4
HETATM    4  C   UNL     1      -8.660  12.310  68.008  1.00  0.00    -0.176 C  
HETATM    5  O   UNL     1      -8.386  11.668  69.007  1.00  0.00    -0.019 OA 
BRANCH   4   6
HETATM    6  C   UNL     1      -8.019  13.598  67.613  1.00  0.00    -0.180 C  
HETATM    7  C   UNL     1      -6.671  13.751  67.572  1.00  0.00    -0.115 C  
HETATM    8  C   UNL     1      -8.212  16.102  67.042  1.00  0.00    -0.250 C  
HETATM    9  N   UNL     1      -6.131  14.984  67.251  1.00  0.00    -0.273 NA 
HETATM   10  C   UNL     1      -6.856  16.145  67.066  1.00  0.00    -0.181 C  
HETATM   11  C   UNL     1      -8.955  14.766  67.256  1.00  0.00    -0.210 C  
HETATM   12  C   UNL     1      -6.027  17.397  66.912  1.00  0.00    -0.206 C  
BRANCH   7  13
HETATM   13  C   UNL     1      -5.650  12.635  67.784  1.00  0.00    -0.122 C  
BRANCH  13  14
HETATM   14  O   UNL     1      -5.212  12.060  66.551  1.00  0.00    -0.332 OA 
BRANCH  14  15
HETATM   15  C   UNL     1      -5.919  10.858  66.227  1.00  0.00    -0.139 C  
BRANCH  15  16
HETATM   16  C   UNL     1      -5.802   9.864  67.385  1.00  0.00    -0.050 C  
HETATM   17  N   UNL     1      -6.982   9.001  67.475  1.00  0.00    -0.077 NA 
HETATM   18  H2  UNL     1      -7.163   8.524  66.591  1.00  0.00     0.000 HD 
HETATM   19  H1  UNL     1      -6.904   8.339  68.246  1.00  0.00     0.000 HD 
ENDBRANCH  15  16
ENDBRANCH  14  15
ENDBRANCH  13  14
ENDBRANCH   7  13
BRANCH   8  20
HETATM   20  C   UNL     1      -8.979  17.366  66.870  1.00  0.00    -0.245 C  
HETATM   21  O   UNL     1      -9.606  17.665  65.863  1.00  0.00    -0.514 OA 
BRANCH  20  22
HETATM   22  O   UNL     1      -8.906  18.143  67.981  1.00  0.00    -0.266 OA 
HETATM   23  C   UNL     1     -10.135  18.810  68.285  1.00  0.00    -0.383 C  
ENDBRANCH  20  22
ENDBRANCH   8  20
BRANCH  11  24
HETATM   24  C   UNL     1     -10.153  14.892  68.216  1.00  0.00    -0.221 A  
HETATM   25  C   UNL     1      -9.892  15.351  69.529  1.00  0.00    -0.262 A  
HETATM   26  C   UNL     1     -10.912  15.460  70.476  1.00  0.00    -0.350 A  
HETATM   27  C   UNL     1     -12.214  15.119  70.131  1.00  0.00    -0.395 A  
HETATM   28  C   UNL     1     -12.498  14.689  68.835  1.00  0.00     0.069 A  
HETATM   29  C   UNL     1     -11.480  14.582  67.880  1.00  0.00    -0.325 A  
HETATM   30 CL   UNL     1     -11.938  14.068  66.297  1.00  0.00    -0.427 Cl 
ENDBRANCH  11  24
ENDBRANCH   4   6
ENDBRANCH   3   4
ENDBRANCH   2   3
TORSDOF 10
ENDMDL
MODEL       85
REMARK 921   NORMALIZED FREE ENERGY PREDICTED BY IDOCK:   -4.03 KCAL/MOL
REMARK 922        TOTAL FREE ENERGY PREDICTED BY IDOCK:   -8.12 KCAL/MOL
REMARK 923 INTER-LIGAND FREE ENERGY PREDICTED BY IDOCK:   -6.48 KCAL/MOL
REMARK 924 INTRA-LIGAND FREE ENERGY PREDICTED BY IDOCK:   -1.64 KCAL/MOL
REMARK 927      BINDING AFFINITY PREDICTED BY RF-SCORE:    0.00 PKD
ROOT
HETATM    1  C   UNL     1      -6.282  13.958  69.944  1.00  0.00    -0.136 C  
HETATM    2  C   UNL     1      -7.095  15.216  69.715  1.00  0.00    -0.169 C  
ENDROOT
BRANCH   2   3
HETATM    3  O   UNL     1      -8.117  14.846  68.796  1.00  0.00    -0.145 OA 
BRANCH   3   4
HETATM    4  C   UNL     1      -7.913  15.023  67.470  1.00  0.00    -0.178 C  
HETATM    5  O   UNL     1      -6.882  15.412  66.948  1.00  0.00    -0.212 OA 
BRANCH   4   6
HETATM    6  C   UNL     1      -9.087  14.462  66.739  1.00  0.00    -0.278 C  
HETATM    7  C   UNL     1     -10.227  15.174  66.551  1.00  0.00    -0.276 C  
HETATM    8  C   UNL     1     -10.278  12.466  65.632  1.00  0.00    -0.285 C  
HETATM    9  N   UNL     1     -11.305  14.585  65.913  1.00  0.00    -0.338 NA 
HETATM   10  C   UNL     1     -11.373  13.259  65.530  1.00  0.00    -0.294 C  
HETATM   11  C   UNL     1      -8.959  13.025  66.206  1.00  0.00     0.080 C  
HETATM   12  C   UNL     1     -12.723  12.810  65.026  1.00  0.00    -0.455 C  
BRANCH   7  13
HETATM   13  C   UNL     1     -10.423  16.642  66.924  1.00  0.00    -0.271 C  
BRANCH  13  14
HETATM   14  O   UNL     1      -9.905  17.527  65.929  1.00  0.00    -0.516 OA 
BRANCH  14  15
HETATM   15  C   UNL     1     -10.535  18.813  65.960  1.00  0.00    -0.432 C  
BRANCH  15  16
HETATM   16  C   UNL     1      -9.539  19.862  66.461  1.00  0.00    -0.423 C  
HETATM   17  N   UNL     1      -8.236  19.722  65.808  1.00  0.00    -0.441 NA 
HETATM   18  H2  UNL     1      -8.324  19.747  64.791  1.00  0.00     0.000 HD 
HETATM   19  H1  UNL     1      -7.572  20.421  66.142  1.00  0.00     0.000 HD 
ENDBRANCH  15  16
ENDBRANCH  14  15
ENDBRANCH  13  14
ENDBRANCH   7  13
BRANCH   8  20
HETATM   20  C   UNL     1     -10.376  11.032  65.242  1.00  0.00    -0.275 C  
HETATM   21  O   UNL     1     -10.081  10.591  64.140  1.00  0.00    -0.338 OA 
BRANCH  20  22
HETATM   22  O   UNL     1     -10.824  10.270  66.272  1.00  0.00    -0.068 OA 
HETATM   23  C   UNL     1     -10.104   9.043  66.422  1.00  0.00    -0.281 C  
ENDBRANCH  20  22
ENDBRANCH   8  20
BRANCH  11  24
HETATM   24  C   UNL     1      -8.288  12.068  67.211  1.00  0.00    -0.176 A  
HETATM   25  C   UNL     1      -7.021  11.542  66.864  1.00  0.00    -0.134 A  
HETATM   26  C   UNL     1      -6.358  10.638  67.698  1.00  0.00    -0.056 A  
HETATM   27  C   UNL     1      -6.942  10.248  68.896  1.00  0.00    -0.065 A  
HETATM   28  C   UNL     1      -8.179  10.774  69.269  1.00  0.00    -0.087 A  
HETATM   29  C   UNL     1      -8.846  11.683  68.439  1.00  0.00    -0.161 A  
HETATM   30 CL   UNL     1     -10.358  12.299  69.003  1.00  0.00    -0.067 Cl 
ENDBRANCH  11  24
ENDBRANCH   4   6
ENDBRANCH   3   4
ENDBRANCH   2   3
TORSDOF 10
ENDMDL
MODEL       86
REMARK 921   NORMALIZED FREE ENERGY PREDICTED BY IDOCK:   -4.01 KCAL/MOL
REMARK 922        TOTAL FREE ENERGY PREDICTED BY IDOCK:   -8.08 KCAL/MOL
REMARK 923 INTER-LIGAND FREE ENERGY PREDICTED BY IDOCK:   -5.96 KCAL/MOL
REMARK 924 INTRA-LIGAND FREE ENERGY PREDICTED BY IDOCK:   -2.12 KCAL/MOL
REMARK 927      BINDING AFFINITY PREDICTED BY RF-SCORE:    0.00 PKD
ROOT
HETATM    1  C   UNL     1     -12.147  14.690  69.855  1.00  0.00    -0.385 C  
HETATM    2  C   UNL     1     -12.406  13.418  70.636  1.00  0.00    -0.348 C  
ENDROOT
BRANCH   2   3
HETATM    3  O   UNL     1     -11.427  12.489  70.185  1.00  0.00    -0.130 OA 
BRANCH   3   4
HETATM    4  C   UNL     1     -11.823  11.365  69.544  1.00  0.00    -0.357 C  
HETATM    5  O   UNL     1     -12.958  11.113  69.174  1.00  0.00     0.089 OA 
BRANCH   4   6
HETATM    6  C   UNL     1     -10.606  10.583  69.178  1.00  0.00    -0.258 C  
HETATM    7  C   UNL     1     -10.034   9.698  70.032  1.00  0.00    -0.247 C  
HETATM    8  C   UNL     1      -8.657  10.119  67.560  1.00  0.00    -0.118 C  
HETATM    9  N   UNL     1      -8.874   9.040  69.660  1.00  0.00    -0.139 NA 
HETATM   10  C   UNL     1      -8.157   9.285  68.505  1.00  0.00    -0.106 C  
HETATM   11  C   UNL     1     -10.011  10.827  67.780  1.00  0.00    -0.195 C  
HETATM   12  C   UNL     1      -6.828   8.575  68.417  1.00  0.00    -0.065 C  
BRANCH   7  13
HETATM   13  C   UNL     1     -10.603   9.286  71.388  1.00  0.00    -0.347 C  
BRANCH  13  14
HETATM   14  O   UNL     1     -11.665   8.337  71.263  1.00  0.00    -0.275 OA 
BRANCH  14  15
HETATM   15  C   UNL     1     -11.214   6.987  71.414  1.00  0.00    -0.252 C  
BRANCH  15  16
HETATM   16  C   UNL     1     -11.390   6.235  70.093  1.00  0.00    -0.406 C  
HETATM   17  N   UNL     1     -10.114   6.077  69.391  1.00  0.00    -0.178 NA 
HETATM   18  H2  UNL     1      -9.415   5.630  69.984  1.00  0.00     0.000 HD 
HETATM   19  H1  UNL     1     -10.231   5.576  68.510  1.00  0.00     0.000 HD 
ENDBRANCH  15  16
ENDBRANCH  14  15
ENDBRANCH  13  14
ENDBRANCH   7  13
BRANCH   8  20
HETATM   20  C   UNL     1      -7.860  10.395  66.334  1.00  0.00    -0.128 C  
HETATM   21  O   UNL     1      -6.944  11.204  66.269  1.00  0.00    -0.123 OA 
BRANCH  20  22
HETATM   22  O   UNL     1      -8.270   9.625  65.295  1.00  0.00    -0.121 OA 
HETATM   23  C   UNL     1      -8.803  10.384  64.205  1.00  0.00    -0.214 C  
ENDBRANCH  20  22
ENDBRANCH   8  20
BRANCH  11  24
HETATM   24  C   UNL     1      -9.980  12.318  67.391  1.00  0.00    -0.205 A  
HETATM   25  C   UNL     1      -9.111  13.164  68.118  1.00  0.00    -0.200 A  
HETATM   26  C   UNL     1      -9.046  14.535  67.857  1.00  0.00    -0.191 A  
HETATM   27  C   UNL     1      -9.843  15.086  66.862  1.00  0.00    -0.244 A  
HETATM   28  C   UNL     1     -10.689  14.266  66.116  1.00  0.00    -0.295 A  
HETATM   29  C   UNL     1     -10.755  12.891  66.370  1.00  0.00    -0.270 A  
HETATM   30 CL   UNL     1     -11.811  11.956  65.374  1.00  0.00    -0.253 Cl 
ENDBRANCH  11  24
ENDBRANCH   4   6
ENDBRANCH   3   4
ENDBRANCH   2   3
TORSDOF 10
ENDMDL
MODEL       87
REMARK 921   NORMALIZED FREE ENERGY PREDICTED BY IDOCK:   -4.00 KCAL/MOL
REMARK 922        TOTAL FREE ENERGY PREDICTED BY IDOCK:   -8.07 KCAL/MOL
REMARK 923 INTER-LIGAND FREE ENERGY PREDICTED BY IDOCK:   -6.54 KCAL/MOL
REMARK 924 INTRA-LIGAND FREE ENERGY PREDICTED BY IDOCK:   -1.53 KCAL/MOL
REMARK 927      BINDING AFFINITY PREDICTED BY RF-SCORE:    0.00 PKD
ROOT
HETATM    1  C   UNL     1     -11.920  14.328  69.659  1.00  0.00    -0.387 C  
HETATM    2  C   UNL     1     -12.272  12.855  69.608  1.00  0.00    -0.141 C  
ENDROOT
BRANCH   2   3
HETATM    3  O   UNL     1     -11.052  12.183  69.314  1.00  0.00    -0.226 OA 
BRANCH   3   4
HETATM    4  C   UNL     1     -11.088  10.909  68.861  1.00  0.00    -0.252 C  
HETATM    5  O   UNL     1     -11.985  10.405  68.207  1.00  0.00    -0.279 OA 
BRANCH   4   6
HETATM    6  C   UNL     1      -9.756  10.287  69.113  1.00  0.00    -0.229 C  
HETATM    7  C   UNL     1      -8.754  10.329  68.198  1.00  0.00    -0.123 C  
HETATM    8  C   UNL     1      -8.223   8.809  70.562  1.00  0.00    -0.140 C  
HETATM    9  N   UNL     1      -7.557   9.688  68.463  1.00  0.00    -0.080 NA 
HETATM   10  C   UNL     1      -7.310   8.889  69.563  1.00  0.00    -0.071 C  
HETATM   11  C   UNL     1      -9.557   9.579  70.464  1.00  0.00    -0.312 C  
HETATM   12  C   UNL     1      -5.995   8.149  69.531  1.00  0.00    -0.030 C  
BRANCH   7  13
HETATM   13  C   UNL     1      -8.794  11.104  66.883  1.00  0.00    -0.157 C  
BRANCH  13  14
HETATM   14  O   UNL     1      -9.463  10.379  65.848  1.00  0.00    -0.171 OA 
BRANCH  14  15
HETATM   15  C   UNL     1      -8.572   9.967  64.805  1.00  0.00    -0.178 C  
BRANCH  15  16
HETATM   16  C   UNL     1      -9.227  10.210  63.443  1.00  0.00    -0.291 C  
HETATM   17  N   UNL     1      -8.794  11.480  62.857  1.00  0.00    -0.596 NA 
HETATM   18  H2  UNL     1      -7.776  11.535  62.797  1.00  0.00     0.000 HD 
HETATM   19  H1  UNL     1      -9.229  11.642  61.949  1.00  0.00     0.000 HD 
ENDBRANCH  15  16
ENDBRANCH  14  15
ENDBRANCH  13  14
ENDBRANCH   7  13
BRANCH   8  20
HETATM   20  C   UNL     1      -7.955   7.922  71.727  1.00  0.00    -0.104 C  
HETATM   21  O   UNL     1      -7.926   6.700  71.677  1.00  0.00    -0.102 OA 
BRANCH  20  22
HETATM   22  O   UNL     1      -7.732   8.643  72.855  1.00  0.00    -0.355 OA 
HETATM   23  C   UNL     1      -8.430   8.136  73.997  1.00  0.00    -0.225 C  
ENDBRANCH  20  22
ENDBRANCH   8  20
BRANCH  11  24
HETATM   24  C   UNL     1     -10.773   8.729  70.882  1.00  0.00    -0.282 A  
HETATM   25  C   UNL     1     -11.542   9.184  71.979  1.00  0.00    -0.371 A  
HETATM   26  C   UNL     1     -12.638   8.458  72.449  1.00  0.00    -0.372 A  
HETATM   27  C   UNL     1     -12.992   7.265  71.830  1.00  0.00    -0.291 A  
HETATM   28  C   UNL     1     -12.263   6.810  70.731  1.00  0.00    -0.353 A  
HETATM   29  C   UNL     1     -11.166   7.537  70.254  1.00  0.00    -0.236 A  
HETATM   30 CL   UNL     1     -10.346   6.905  68.872  1.00  0.00    -0.186 Cl 
ENDBRANCH  11  24
ENDBRANCH   4   6
ENDBRANCH   3   4
ENDBRANCH   2   3
TORSDOF 10
ENDMDL
MODEL       88
REMARK 921   NORMALIZED FREE ENERGY PREDICTED BY IDOCK:   -3.98 KCAL/MOL
REMARK 922        TOTAL FREE ENERGY PREDICTED BY IDOCK:   -8.04 KCAL/MOL
REMARK 923 INTER-LIGAND FREE ENERGY PREDICTED BY IDOCK:   -6.69 KCAL/MOL
REMARK 924 INTRA-LIGAND FREE ENERGY PREDICTED BY IDOCK:   -1.35 KCAL/MOL
REMARK 927      BINDING AFFINITY PREDICTED BY RF-SCORE:    0.00 PKD
ROOT
HETATM    1  C   UNL     1     -12.311  12.073  63.550  1.00  0.00    -0.661 C  
HETATM    2  C   UNL     1     -12.499  12.816  64.857  1.00  0.00    -0.497 C  
ENDROOT
BRANCH   2   3
HETATM    3  O   UNL     1     -11.339  12.525  65.629  1.00  0.00    -0.308 OA 
BRANCH   3   4
HETATM    4  C   UNL     1     -11.439  12.454  66.976  1.00  0.00    -0.358 C  
HETATM    5  O   UNL     1     -12.362  11.961  67.602  1.00  0.00    -0.357 OA 
BRANCH   4   6
HETATM    6  C   UNL     1     -10.139  12.889  67.564  1.00  0.00    -0.214 C  
HETATM    7  C   UNL     1      -9.721  14.180  67.517  1.00  0.00    -0.234 C  
HETATM    8  C   UNL     1      -7.872  12.307  68.639  1.00  0.00    -0.063 C  
HETATM    9  N   UNL     1      -8.481  14.517  68.030  1.00  0.00    -0.152 NA 
HETATM   10  C   UNL     1      -7.547  13.617  68.507  1.00  0.00    -0.130 C  
HETATM   11  C   UNL     1      -9.273  11.805  68.227  1.00  0.00    -0.188 C  
HETATM   12  C   UNL     1      -6.199  14.211  68.835  1.00  0.00    -0.087 C  
BRANCH   7  13
HETATM   13  C   UNL     1     -10.545  15.355  66.998  1.00  0.00    -0.309 C  
BRANCH  13  14
HETATM   14  O   UNL     1     -10.085  16.608  67.511  1.00  0.00    -0.260 OA 
BRANCH  14  15
HETATM   15  C   UNL     1      -9.859  17.572  66.478  1.00  0.00    -0.310 C  
BRANCH  15  16
HETATM   16  C   UNL     1     -10.648  18.848  66.783  1.00  0.00    -0.405 C  
HETATM   17  N   UNL     1     -10.384  19.894  65.793  1.00  0.00    -0.468 NA 
HETATM   18  H2  UNL     1     -10.563  19.562  64.844  1.00  0.00     0.000 HD 
HETATM   19  H1  UNL     1     -10.910  20.744  65.996  1.00  0.00     0.000 HD 
ENDBRANCH  15  16
ENDBRANCH  14  15
ENDBRANCH  13  14
ENDBRANCH   7  13
BRANCH   8  20
HETATM   20  C   UNL     1      -6.846  11.345  69.127  1.00  0.00    -0.111 C  
HETATM   21  O   UNL     1      -6.818  10.873  70.255  1.00  0.00    -0.233 OA 
BRANCH  20  22
HETATM   22  O   UNL     1      -5.947  11.047  68.154  1.00  0.00    -0.049 OA 
HETATM   23  C   UNL     1      -5.592   9.661  68.119  1.00  0.00    -0.040 C  
ENDBRANCH  20  22
ENDBRANCH   8  20
BRANCH  11  24
HETATM   24  C   UNL     1      -9.227  10.493  67.419  1.00  0.00    -0.154 A  
HETATM   25  C   UNL     1      -8.680  10.549  66.116  1.00  0.00    -0.167 A  
HETATM   26  C   UNL     1      -8.634   9.416  65.299  1.00  0.00    -0.182 A  
HETATM   27  C   UNL     1      -9.125   8.206  65.770  1.00  0.00    -0.139 A  
HETATM   28  C   UNL     1      -9.645   8.122  67.062  1.00  0.00    -0.253 A  
HETATM   29  C   UNL     1      -9.691   9.254  67.885  1.00  0.00    -0.153 A  
HETATM   30 CL   UNL     1     -10.327   9.042  69.477  1.00  0.00    -0.204 Cl 
ENDBRANCH  11  24
ENDBRANCH   4   6
ENDBRANCH   3   4
ENDBRANCH   2   3
TORSDOF 10
ENDMDL
MODEL       89
REMARK 921   NORMALIZED FREE ENERGY PREDICTED BY IDOCK:   -3.96 KCAL/MOL
REMARK 922        TOTAL FREE ENERGY PREDICTED BY IDOCK:   -8.01 KCAL/MOL
REMARK 923 INTER-LIGAND FREE ENERGY PREDICTED BY IDOCK:   -6.65 KCAL/MOL
REMARK 924 INTRA-LIGAND FREE ENERGY PREDICTED BY IDOCK:   -1.36 KCAL/MOL
REMARK 927      BINDING AFFINITY PREDICTED BY RF-SCORE:    0.00 PKD
ROOT
HETATM    1  C   UNL     1     -10.707  11.911  63.888  1.00  0.00    -0.450 C  
HETATM    2  C   UNL     1      -9.888  10.654  64.103  1.00  0.00    -0.335 C  
ENDROOT
BRANCH   2   3
HETATM    3  O   UNL     1     -10.262  10.172  65.389  1.00  0.00    -0.298 OA 
BRANCH   3   4
HETATM    4  C   UNL     1      -9.390  10.281  66.418  1.00  0.00    -0.165 C  
HETATM    5  O   UNL     1      -8.228  10.643  66.338  1.00  0.00    -0.135 OA 
BRANCH   4   6
HETATM    6  C   UNL     1     -10.144  10.088  67.690  1.00  0.00    -0.232 C  
HETATM    7  C   UNL     1     -10.625  11.133  68.410  1.00  0.00    -0.193 C  
HETATM    8  C   UNL     1     -10.974   8.545  69.578  1.00  0.00    -0.057 C  
HETATM    9  N   UNL     1     -11.270  10.898  69.612  1.00  0.00    -0.262 NA 
HETATM   10  C   UNL     1     -11.382   9.665  70.225  1.00  0.00    -0.257 C  
HETATM   11  C   UNL     1     -10.352   8.640  68.169  1.00  0.00    -0.267 C  
HETATM   12  C   UNL     1     -11.963   9.696  71.618  1.00  0.00    -0.470 C  
BRANCH   7  13
HETATM   13  C   UNL     1     -10.587  12.596  67.974  1.00  0.00    -0.221 C  
BRANCH  13  14
HETATM   14  O   UNL     1     -11.845  13.250  68.162  1.00  0.00    -0.335 OA 
BRANCH  14  15
HETATM   15  C   UNL     1     -11.730  14.438  68.953  1.00  0.00    -0.322 C  
BRANCH  15  16
HETATM   16  C   UNL     1     -12.518  14.267  70.254  1.00  0.00    -0.361 C  
HETATM   17  N   UNL     1     -12.297  15.390  71.168  1.00  0.00    -0.349 NA 
HETATM   18  H2  UNL     1     -12.507  16.283  70.719  1.00  0.00     0.000 HD 
HETATM   19  H1  UNL     1     -12.823  15.277  72.035  1.00  0.00     0.000 HD 
ENDBRANCH  15  16
ENDBRANCH  14  15
ENDBRANCH  13  14
ENDBRANCH   7  13
BRANCH   8  20
HETATM   20  C   UNL     1     -11.074   7.228  70.264  1.00  0.00    -0.266 C  
HETATM   21  O   UNL     1     -11.911   6.373  70.006  1.00  0.00    -0.404 OA 
BRANCH  20  22
HETATM   22  O   UNL     1     -10.109   7.088  71.207  1.00  0.00    -0.191 OA 
HETATM   23  C   UNL     1     -10.038   5.766  71.751  1.00  0.00    -0.187 C  
ENDBRANCH  20  22
ENDBRANCH   8  20
BRANCH  11  24
HETATM   24  C   UNL     1      -9.092   7.767  68.008  1.00  0.00    -0.128 A  
HETATM   25  C   UNL     1      -7.896   8.231  68.603  1.00  0.00    -0.120 A  
HETATM   26  C   UNL     1      -6.699   7.522  68.476  1.00  0.00    -0.057 A  
HETATM   27  C   UNL     1      -6.675   6.333  67.757  1.00  0.00    -0.064 A  
HETATM   28  C   UNL     1      -7.848   5.844  67.183  1.00  0.00    -0.102 A  
HETATM   29  C   UNL     1      -9.051   6.549  67.311  1.00  0.00    -0.117 A  
HETATM   30 CL   UNL     1     -10.454   5.847  66.589  1.00  0.00    -0.306 Cl 
ENDBRANCH  11  24
ENDBRANCH   4   6
ENDBRANCH   3   4
ENDBRANCH   2   3
TORSDOF 10
ENDMDL
MODEL       90
REMARK 921   NORMALIZED FREE ENERGY PREDICTED BY IDOCK:   -3.96 KCAL/MOL
REMARK 922        TOTAL FREE ENERGY PREDICTED BY IDOCK:   -8.00 KCAL/MOL
REMARK 923 INTER-LIGAND FREE ENERGY PREDICTED BY IDOCK:   -6.22 KCAL/MOL
REMARK 924 INTRA-LIGAND FREE ENERGY PREDICTED BY IDOCK:   -1.78 KCAL/MOL
REMARK 927      BINDING AFFINITY PREDICTED BY RF-SCORE:    0.00 PKD
ROOT
HETATM    1  C   UNL     1      -6.166  13.487  69.880  1.00  0.00    -0.108 C  
HETATM    2  C   UNL     1      -7.022  14.734  69.787  1.00  0.00    -0.158 C  
ENDROOT
BRANCH   2   3
HETATM    3  O   UNL     1      -8.035  14.429  68.835  1.00  0.00    -0.143 OA 
BRANCH   3   4
HETATM    4  C   UNL     1      -7.810  14.676  67.524  1.00  0.00    -0.193 C  
HETATM    5  O   UNL     1      -6.770  15.090  67.040  1.00  0.00    -0.211 OA 
BRANCH   4   6
HETATM    6  C   UNL     1      -8.973  14.158  66.745  1.00  0.00    -0.229 C  
HETATM    7  C   UNL     1     -10.117  14.873  66.595  1.00  0.00    -0.258 C  
HETATM    8  C   UNL     1     -10.139  12.233  65.494  1.00  0.00    -0.279 C  
HETATM    9  N   UNL     1     -11.184  14.321  65.909  1.00  0.00    -0.313 NA 
HETATM   10  C   UNL     1     -11.239  13.024  65.436  1.00  0.00    -0.289 C  
HETATM   11  C   UNL     1      -8.829  12.761  66.117  1.00  0.00     0.232 C  
HETATM   12  C   UNL     1     -12.581  12.601  64.890  1.00  0.00    -0.525 C  
BRANCH   7  13
HETATM   13  C   UNL     1     -10.327  16.310  67.066  1.00  0.00    -0.292 C  
BRANCH  13  14
HETATM   14  O   UNL     1     -10.599  16.387  68.467  1.00  0.00    -0.269 OA 
BRANCH  14  15
HETATM   15  C   UNL     1     -11.774  15.657  68.837  1.00  0.00    -0.384 C  
BRANCH  15  16
HETATM   16  C   UNL     1     -11.925  15.662  70.360  1.00  0.00    -0.376 C  
HETATM   17  N   UNL     1     -10.990  14.731  70.996  1.00  0.00    -0.526 NA 
HETATM   18  H2  UNL     1     -10.027  14.920  70.715  1.00  0.00     0.000 HD 
HETATM   19  H1  UNL     1     -11.090  14.735  72.011  1.00  0.00     0.000 HD 
ENDBRANCH  15  16
ENDBRANCH  14  15
ENDBRANCH  13  14
ENDBRANCH   7  13
BRANCH   8  20
HETATM   20  C   UNL     1     -10.222  10.829  65.007  1.00  0.00    -0.306 C  
HETATM   21  O   UNL     1     -10.533   9.870  65.701  1.00  0.00    -0.144 OA 
BRANCH  20  22
HETATM   22  O   UNL     1      -9.921  10.746  63.686  1.00  0.00    -0.312 OA 
HETATM   23  C   UNL     1      -8.890   9.795  63.400  1.00  0.00    -0.241 C  
ENDBRANCH  20  22
ENDBRANCH   8  20
BRANCH  11  24
HETATM   24  C   UNL     1      -8.160  11.743  67.061  1.00  0.00    -0.169 A  
HETATM   25  C   UNL     1      -6.876  11.267  66.702  1.00  0.00    -0.130 A  
HETATM   26  C   UNL     1      -6.212  10.315  67.479  1.00  0.00    -0.057 A  
HETATM   27  C   UNL     1      -6.812   9.825  68.632  1.00  0.00    -0.051 A  
HETATM   28  C   UNL     1      -8.066  10.299  69.018  1.00  0.00    -0.132 A  
HETATM   29  C   UNL     1      -8.735  11.256  68.244  1.00  0.00    -0.158 A  
HETATM   30 CL   UNL     1     -10.269  11.800  68.821  1.00  0.00    -0.204 Cl 
ENDBRANCH  11  24
ENDBRANCH   4   6
ENDBRANCH   3   4
ENDBRANCH   2   3
TORSDOF 10
ENDMDL
MODEL       91
REMARK 921   NORMALIZED FREE ENERGY PREDICTED BY IDOCK:   -3.90 KCAL/MOL
REMARK 922        TOTAL FREE ENERGY PREDICTED BY IDOCK:   -7.92 KCAL/MOL
REMARK 923 INTER-LIGAND FREE ENERGY PREDICTED BY IDOCK:   -6.59 KCAL/MOL
REMARK 924 INTRA-LIGAND FREE ENERGY PREDICTED BY IDOCK:   -1.33 KCAL/MOL
REMARK 927      BINDING AFFINITY PREDICTED BY RF-SCORE:    0.00 PKD
ROOT
HETATM    1  C   UNL     1     -10.473  10.789  64.607  1.00  0.00    -0.346 C  
HETATM    2  C   UNL     1     -10.018  10.190  65.922  1.00  0.00    -0.267 C  
ENDROOT
BRANCH   2   3
HETATM    3  O   UNL     1      -9.705  11.299  66.757  1.00  0.00    -0.189 OA 
BRANCH   3   4
HETATM    4  C   UNL     1      -9.244  11.077  68.010  1.00  0.00    -0.159 C  
HETATM    5  O   UNL     1      -8.075  10.948  68.332  1.00  0.00    -0.116 OA 
BRANCH   4   6
HETATM    6  C   UNL     1     -10.385  11.228  68.960  1.00  0.00    -0.189 C  
HETATM    7  C   UNL     1     -10.891  12.442  69.294  1.00  0.00    -0.019 C  
HETATM    8  C   UNL     1     -12.016  10.199  70.667  1.00  0.00    -0.423 C  
HETATM    9  N   UNL     1     -11.914  12.526  70.222  1.00  0.00    -0.333 NA 
HETATM   10  C   UNL     1     -12.418  11.464  70.947  1.00  0.00    -0.379 C  
HETATM   11  C   UNL     1     -10.971   9.939  69.561  1.00  0.00    -0.274 C  
HETATM   12  C   UNL     1     -13.398  11.840  72.032  1.00  0.00    -0.417 C  
BRANCH   7  13
HETATM   13  C   UNL     1     -10.474  13.773  68.671  1.00  0.00    -0.239 C  
BRANCH  13  14
HETATM   14  O   UNL     1     -11.575  14.456  68.066  1.00  0.00    -0.293 OA 
BRANCH  14  15
HETATM   15  C   UNL     1     -11.597  14.304  66.643  1.00  0.00    -0.383 C  
BRANCH  15  16
HETATM   16  C   UNL     1     -10.341  14.936  66.038  1.00  0.00    -0.299 C  
HETATM   17  N   UNL     1     -10.270  16.371  66.326  1.00  0.00    -0.316 NA 
HETATM   18  H2  UNL     1     -10.335  16.554  67.328  1.00  0.00     0.000 HD 
HETATM   19  H1  UNL     1      -9.433  16.792  65.924  1.00  0.00     0.000 HD 
ENDBRANCH  15  16
ENDBRANCH  14  15
ENDBRANCH  13  14
ENDBRANCH   7  13
BRANCH   8  20
HETATM   20  C   UNL     1     -12.547   9.068  71.476  1.00  0.00    -0.338 C  
HETATM   21  O   UNL     1     -13.449   8.323  71.120  1.00  0.00    -0.151 OA 
BRANCH  20  22
HETATM   22  O   UNL     1     -11.892   8.959  72.660  1.00  0.00    -0.217 OA 
HETATM   23  C   UNL     1     -11.691   7.603  73.072  1.00  0.00    -0.030 C  
ENDBRANCH  20  22
ENDBRANCH   8  20
BRANCH  11  24
HETATM   24  C   UNL     1      -9.889   8.926  69.983  1.00  0.00    -0.188 A  
HETATM   25  C   UNL     1      -9.015   9.304  71.029  1.00  0.00    -0.225 A  
HETATM   26  C   UNL     1      -7.982   8.464  71.451  1.00  0.00    -0.152 A  
HETATM   27  C   UNL     1      -7.806   7.228  70.842  1.00  0.00    -0.094 A  
HETATM   28  C   UNL     1      -8.672   6.824  69.826  1.00  0.00    -0.141 A  
HETATM   29  C   UNL     1      -9.711   7.661  69.402  1.00  0.00    -0.165 A  
HETATM   30 CL   UNL     1     -10.747   7.060  68.158  1.00  0.00    -0.250 Cl 
ENDBRANCH  11  24
ENDBRANCH   4   6
ENDBRANCH   3   4
ENDBRANCH   2   3
TORSDOF 10
ENDMDL
MODEL       92
REMARK 921   NORMALIZED FREE ENERGY PREDICTED BY IDOCK:   -3.88 KCAL/MOL
REMARK 922        TOTAL FREE ENERGY PREDICTED BY IDOCK:   -7.89 KCAL/MOL
REMARK 923 INTER-LIGAND FREE ENERGY PREDICTED BY IDOCK:   -6.10 KCAL/MOL
REMARK 924 INTRA-LIGAND FREE ENERGY PREDICTED BY IDOCK:   -1.79 KCAL/MOL
REMARK 927      BINDING AFFINITY PREDICTED BY RF-SCORE:    0.00 PKD
ROOT
HETATM    1  C   UNL     1      -9.296   7.810  73.465  1.00  0.00    -0.351 C  
HETATM    2  C   UNL     1      -8.640   8.464  72.265  1.00  0.00    -0.197 C  
ENDROOT
BRANCH   2   3
HETATM    3  O   UNL     1      -9.683   9.167  71.599  1.00  0.00    -0.292 OA 
BRANCH   3   4
HETATM    4  C   UNL     1     -10.406   8.535  70.645  1.00  0.00    -0.199 C  
HETATM    5  O   UNL     1     -11.401   7.856  70.832  1.00  0.00    -0.271 OA 
BRANCH   4   6
HETATM    6  C   UNL     1      -9.907   8.980  69.311  1.00  0.00    -0.179 C  
HETATM    7  C   UNL     1     -10.442  10.043  68.659  1.00  0.00    -0.204 C  
HETATM    8  C   UNL     1      -8.431   8.587  67.238  1.00  0.00    -0.123 C  
HETATM    9  N   UNL     1      -9.977  10.378  67.399  1.00  0.00    -0.181 NA 
HETATM   10  C   UNL     1      -9.061   9.644  66.669  1.00  0.00    -0.148 C  
HETATM   11  C   UNL     1      -8.754   8.174  68.690  1.00  0.00    -0.134 C  
HETATM   12  C   UNL     1      -8.857  10.111  65.248  1.00  0.00    -0.201 C  
BRANCH   7  13
HETATM   13  C   UNL     1     -11.499  10.987  69.227  1.00  0.00    -0.300 C  
BRANCH  13  14
HETATM   14  O   UNL     1     -12.230  11.662  68.201  1.00  0.00    -0.537 OA 
BRANCH  14  15
HETATM   15  C   UNL     1     -11.916  13.057  68.134  1.00  0.00    -0.280 C  
BRANCH  15  16
HETATM   16  C   UNL     1     -11.872  13.505  66.671  1.00  0.00    -0.407 C  
HETATM   17  N   UNL     1     -12.219  12.410  65.763  1.00  0.00    -0.638 NA 
HETATM   18  H2  UNL     1     -13.124  12.001  66.001  1.00  0.00     0.000 HD 
HETATM   19  H1  UNL     1     -12.191  12.708  64.788  1.00  0.00     0.000 HD 
ENDBRANCH  15  16
ENDBRANCH  14  15
ENDBRANCH  13  14
ENDBRANCH   7  13
BRANCH   8  20
HETATM   20  C   UNL     1      -7.468   7.789  66.430  1.00  0.00    -0.084 C  
HETATM   21  O   UNL     1      -7.787   6.950  65.599  1.00  0.00    -0.096 OA 
BRANCH  20  22
HETATM   22  O   UNL     1      -6.185   8.120  66.723  1.00  0.00    -0.052 OA 
HETATM   23  C   UNL     1      -5.373   6.991  67.061  1.00  0.00    -0.017 C  
ENDBRANCH  20  22
ENDBRANCH   8  20
BRANCH  11  24
HETATM   24  C   UNL     1      -8.925   6.651  68.857  1.00  0.00    -0.130 A  
HETATM   25  C   UNL     1      -8.033   5.986  69.731  1.00  0.00    -0.106 A  
HETATM   26  C   UNL     1      -8.092   4.603  69.913  1.00  0.00    -0.068 A  
HETATM   27  C   UNL     1      -9.046   3.857  69.233  1.00  0.00    -0.195 A  
HETATM   28  C   UNL     1      -9.952   4.496  68.385  1.00  0.00    -0.103 A  
HETATM   29  C   UNL     1      -9.900   5.883  68.202  1.00  0.00    -0.133 A  
HETATM   30 CL   UNL     1     -11.082   6.583  67.156  1.00  0.00    -0.472 Cl 
ENDBRANCH  11  24
ENDBRANCH   4   6
ENDBRANCH   3   4
ENDBRANCH   2   3
TORSDOF 10
ENDMDL
MODEL       93
REMARK 921   NORMALIZED FREE ENERGY PREDICTED BY IDOCK:   -3.87 KCAL/MOL
REMARK 922        TOTAL FREE ENERGY PREDICTED BY IDOCK:   -7.87 KCAL/MOL
REMARK 923 INTER-LIGAND FREE ENERGY PREDICTED BY IDOCK:   -6.26 KCAL/MOL
REMARK 924 INTRA-LIGAND FREE ENERGY PREDICTED BY IDOCK:   -1.61 KCAL/MOL
REMARK 927      BINDING AFFINITY PREDICTED BY RF-SCORE:    0.00 PKD
ROOT
HETATM    1  C   UNL     1     -12.534  10.571  71.232  1.00  0.00    -0.524 C  
HETATM    2  C   UNL     1     -12.032  11.294  69.999  1.00  0.00    -0.368 C  
ENDROOT
BRANCH   2   3
HETATM    3  O   UNL     1     -11.439  10.289  69.184  1.00  0.00    -0.218 OA 
BRANCH   3   4
HETATM    4  C   UNL     1     -10.118  10.359  68.900  1.00  0.00    -0.201 C  
HETATM    5  O   UNL     1      -9.341  11.207  69.305  1.00  0.00    -0.034 OA 
BRANCH   4   6
HETATM    6  C   UNL     1      -9.729   9.110  68.183  1.00  0.00    -0.174 C  
HETATM    7  C   UNL     1      -9.953   8.940  66.855  1.00  0.00    -0.247 C  
HETATM    8  C   UNL     1      -8.866   6.684  68.238  1.00  0.00    -0.124 C  
HETATM    9  N   UNL     1      -9.621   7.739  66.253  1.00  0.00    -0.155 NA 
HETATM   10  C   UNL     1      -9.165   6.617  66.917  1.00  0.00    -0.142 C  
HETATM   11  C   UNL     1      -9.062   8.003  69.017  1.00  0.00    -0.144 C  
HETATM   12  C   UNL     1      -9.054   5.374  66.067  1.00  0.00    -0.159 C  
BRANCH   7  13
HETATM   13  C   UNL     1     -10.491  10.009  65.908  1.00  0.00    -0.045 C  
BRANCH  13  14
HETATM   14  O   UNL     1      -9.513  11.007  65.606  1.00  0.00    -0.200 OA 
BRANCH  14  15
HETATM   15  C   UNL     1      -9.960  12.328  65.932  1.00  0.00    -0.254 C  
BRANCH  15  16
HETATM   16  C   UNL     1     -10.591  12.976  64.698  1.00  0.00    -0.378 C  
HETATM   17  N   UNL     1     -10.151  14.364  64.535  1.00  0.00    -0.629 NA 
HETATM   18  H2  UNL     1      -9.133  14.432  64.513  1.00  0.00     0.000 HD 
HETATM   19  H1  UNL     1     -10.572  14.796  63.712  1.00  0.00     0.000 HD 
ENDBRANCH  15  16
ENDBRANCH  14  15
ENDBRANCH  13  14
ENDBRANCH   7  13
BRANCH   8  20
HETATM   20  C   UNL     1      -8.403   5.459  68.946  1.00  0.00    -0.100 C  
HETATM   21  O   UNL     1      -7.279   5.305  69.404  1.00  0.00    -0.058 OA 
BRANCH  20  22
HETATM   22  O   UNL     1      -9.393   4.535  69.031  1.00  0.00    -0.124 OA 
HETATM   23  C   UNL     1      -9.490   3.928  70.323  1.00  0.00    -0.185 C  
ENDBRANCH  20  22
ENDBRANCH   8  20
BRANCH  11  24
HETATM   24  C   UNL     1      -9.734   7.795  70.389  1.00  0.00    -0.179 A  
HETATM   25  C   UNL     1     -11.034   7.237  70.401  1.00  0.00    -0.273 A  
HETATM   26  C   UNL     1     -11.731   7.049  71.596  1.00  0.00    -0.332 A  
HETATM   27  C   UNL     1     -11.143   7.408  72.802  1.00  0.00    -0.394 A  
HETATM   28  C   UNL     1      -9.853   7.937  72.815  1.00  0.00    -0.335 A  
HETATM   29  C   UNL     1      -9.148   8.124  71.621  1.00  0.00    -0.163 A  
HETATM   30 CL   UNL     1      -7.546   8.758  71.744  1.00  0.00    -0.119 Cl 
ENDBRANCH  11  24
ENDBRANCH   4   6
ENDBRANCH   3   4
ENDBRANCH   2   3
TORSDOF 10
ENDMDL
MODEL       94
REMARK 921   NORMALIZED FREE ENERGY PREDICTED BY IDOCK:   -3.82 KCAL/MOL
REMARK 922        TOTAL FREE ENERGY PREDICTED BY IDOCK:   -7.79 KCAL/MOL
REMARK 923 INTER-LIGAND FREE ENERGY PREDICTED BY IDOCK:   -6.05 KCAL/MOL
REMARK 924 INTRA-LIGAND FREE ENERGY PREDICTED BY IDOCK:   -1.75 KCAL/MOL
REMARK 927      BINDING AFFINITY PREDICTED BY RF-SCORE:    0.00 PKD
ROOT
HETATM    1  C   UNL     1      -8.433   7.156  72.982  1.00  0.00    -0.142 C  
HETATM    2  C   UNL     1      -7.265   8.118  72.900  1.00  0.00    -0.111 C  
ENDROOT
BRANCH   2   3
HETATM    3  O   UNL     1      -7.563   8.985  71.812  1.00  0.00    -0.321 OA 
BRANCH   3   4
HETATM    4  C   UNL     1      -7.214   8.619  70.557  1.00  0.00    -0.053 C  
HETATM    5  O   UNL     1      -6.747   7.541  70.228  1.00  0.00    -0.045 OA 
BRANCH   4   6
HETATM    6  C   UNL     1      -7.691   9.672  69.614  1.00  0.00    -0.124 C  
HETATM    7  C   UNL     1      -7.049  10.860  69.475  1.00  0.00    -0.123 C  
HETATM    8  C   UNL     1      -9.481  10.571  67.996  1.00  0.00    -0.157 C  
HETATM    9  N   UNL     1      -7.567  11.822  68.626  1.00  0.00    -0.126 NA 
HETATM   10  C   UNL     1      -8.775  11.729  67.962  1.00  0.00    -0.167 C  
HETATM   11  C   UNL     1      -8.958   9.362  68.800  1.00  0.00    -0.132 C  
HETATM   12  C   UNL     1      -9.208  12.986  67.247  1.00  0.00    -0.213 C  
BRANCH   7  13
HETATM   13  C   UNL     1      -5.722  11.228  70.134  1.00  0.00    -0.120 C  
BRANCH  13  14
HETATM   14  O   UNL     1      -5.905  11.972  71.341  1.00  0.00    -0.326 OA 
BRANCH  14  15
HETATM   15  C   UNL     1      -5.225  13.232  71.316  1.00  0.00    -0.184 C  
BRANCH  15  16
HETATM   16  C   UNL     1      -5.720  14.060  70.127  1.00  0.00    -0.128 C  
HETATM   17  N   UNL     1      -7.154  14.338  70.226  1.00  0.00    -0.376 NA 
HETATM   18  H2  UNL     1      -7.387  14.784  71.114  1.00  0.00     0.000 HD 
HETATM   19  H1  UNL     1      -7.484  14.891  69.435  1.00  0.00     0.000 HD 
ENDBRANCH  15  16
ENDBRANCH  14  15
ENDBRANCH  13  14
ENDBRANCH   7  13
BRANCH   8  20
HETATM   20  C   UNL     1     -10.794  10.496  67.300  1.00  0.00    -0.279 C  
HETATM   21  O   UNL     1     -11.813  11.059  67.678  1.00  0.00    -0.599 OA 
BRANCH  20  22
HETATM   22  O   UNL     1     -10.717   9.732  66.181  1.00  0.00    -0.024 OA 
HETATM   23  C   UNL     1     -10.384  10.482  65.007  1.00  0.00    -0.240 C  
ENDBRANCH  20  22
ENDBRANCH   8  20
BRANCH  11  24
HETATM   24  C   UNL     1     -10.057   8.676  69.635  1.00  0.00    -0.201 A  
HETATM   25  C   UNL     1     -10.720   9.460  70.609  1.00  0.00    -0.353 A  
HETATM   26  C   UNL     1     -11.703   8.910  71.436  1.00  0.00    -0.385 A  
HETATM   27  C   UNL     1     -12.047   7.572  71.303  1.00  0.00    -0.351 A  
HETATM   28  C   UNL     1     -11.424   6.787  70.332  1.00  0.00    -0.419 A  
HETATM   29  C   UNL     1     -10.442   7.334  69.498  1.00  0.00    -0.230 A  
HETATM   30 CL   UNL     1      -9.750   6.290  68.309  1.00  0.00    -0.119 Cl 
ENDBRANCH  11  24
ENDBRANCH   4   6
ENDBRANCH   3   4
ENDBRANCH   2   3
TORSDOF 10
ENDMDL
MODEL       95
REMARK 921   NORMALIZED FREE ENERGY PREDICTED BY IDOCK:   -3.82 KCAL/MOL
REMARK 922        TOTAL FREE ENERGY PREDICTED BY IDOCK:   -7.79 KCAL/MOL
REMARK 923 INTER-LIGAND FREE ENERGY PREDICTED BY IDOCK:   -6.53 KCAL/MOL
REMARK 924 INTRA-LIGAND FREE ENERGY PREDICTED BY IDOCK:   -1.26 KCAL/MOL
REMARK 927      BINDING AFFINITY PREDICTED BY RF-SCORE:    0.00 PKD
ROOT
HETATM    1  C   UNL     1      -6.061  10.468  68.611  1.00  0.00    -0.043 C  
HETATM    2  C   UNL     1      -7.254  10.646  69.528  1.00  0.00    -0.140 C  
ENDROOT
BRANCH   2   3
HETATM    3  O   UNL     1      -8.234  11.324  68.750  1.00  0.00    -0.147 OA 
BRANCH   3   4
HETATM    4  C   UNL     1      -9.512  10.880  68.759  1.00  0.00    -0.190 C  
HETATM    5  O   UNL     1     -10.138  10.515  69.740  1.00  0.00    -0.194 OA 
BRANCH   4   6
HETATM    6  C   UNL     1     -10.095  11.111  67.405  1.00  0.00    -0.213 C  
HETATM    7  C   UNL     1      -9.877  10.259  66.370  1.00  0.00    -0.217 C  
HETATM    8  C   UNL     1     -11.362  12.625  65.752  1.00  0.00    -0.370 C  
HETATM    9  N   UNL     1     -10.398  10.552  65.122  1.00  0.00    -0.284 NA 
HETATM   10  C   UNL     1     -11.052  11.722  64.788  1.00  0.00    -0.296 C  
HETATM   11  C   UNL     1     -10.958  12.370  67.220  1.00  0.00    -0.302 C  
HETATM   12  C   UNL     1     -11.358  11.885  63.319  1.00  0.00    -0.373 C  
BRANCH   7  13
HETATM   13  C   UNL     1      -9.144   8.924  66.467  1.00  0.00    -0.166 C  
BRANCH  13  14
HETATM   14  O   UNL     1      -7.826   8.988  65.917  1.00  0.00    -0.099 OA 
BRANCH  14  15
HETATM   15  C   UNL     1      -7.566   7.924  64.995  1.00  0.00    -0.098 C  
BRANCH  15  16
HETATM   16  C   UNL     1      -6.974   6.727  65.744  1.00  0.00    -0.064 C  
HETATM   17  N   UNL     1      -5.842   7.126  66.584  1.00  0.00    -0.033 NA 
HETATM   18  H2  UNL     1      -6.100   7.877  67.225  1.00  0.00     0.000 HD 
HETATM   19  H1  UNL     1      -5.448   6.329  67.084  1.00  0.00     0.000 HD 
ENDBRANCH  15  16
ENDBRANCH  14  15
ENDBRANCH  13  14
ENDBRANCH   7  13
BRANCH   8  20
HETATM   20  C   UNL     1     -12.042  13.894  65.372  1.00  0.00    -0.408 C  
HETATM   21  O   UNL     1     -13.229  14.128  65.558  1.00  0.00    -0.688 OA 
BRANCH  20  22
HETATM   22  O   UNL     1     -11.174  14.767  64.802  1.00  0.00    -0.381 OA 
HETATM   23  C   UNL     1     -11.809  15.945  64.294  1.00  0.00    -0.071 C  
ENDBRANCH  20  22
ENDBRANCH   8  20
BRANCH  11  24
HETATM   24  C   UNL     1     -10.360  13.616  67.902  1.00  0.00    -0.249 A  
HETATM   25  C   UNL     1      -9.281  14.261  67.253  1.00  0.00    -0.218 A  
HETATM   26  C   UNL     1      -8.655  15.374  67.818  1.00  0.00    -0.162 A  
HETATM   27  C   UNL     1      -9.095  15.868  69.039  1.00  0.00    -0.240 A  
HETATM   28  C   UNL     1     -10.173  15.262  69.685  1.00  0.00    -0.253 A  
HETATM   29  C   UNL     1     -10.808  14.149  69.120  1.00  0.00    -0.229 A  
HETATM   30 CL   UNL     1     -12.150  13.489  69.983  1.00  0.00    -0.405 Cl 
ENDBRANCH  11  24
ENDBRANCH   4   6
ENDBRANCH   3   4
ENDBRANCH   2   3
TORSDOF 10
ENDMDL
MODEL       96
REMARK 921   NORMALIZED FREE ENERGY PREDICTED BY IDOCK:   -3.81 KCAL/MOL
REMARK 922        TOTAL FREE ENERGY PREDICTED BY IDOCK:   -7.77 KCAL/MOL
REMARK 923 INTER-LIGAND FREE ENERGY PREDICTED BY IDOCK:   -6.00 KCAL/MOL
REMARK 924 INTRA-LIGAND FREE ENERGY PREDICTED BY IDOCK:   -1.77 KCAL/MOL
REMARK 927      BINDING AFFINITY PREDICTED BY RF-SCORE:    0.00 PKD
ROOT
HETATM    1  C   UNL     1     -10.477   9.478  67.202  1.00  0.00    -0.322 C  
HETATM    2  C   UNL     1      -9.651   8.491  68.002  1.00  0.00    -0.149 C  
ENDROOT
BRANCH   2   3
HETATM    3  O   UNL     1     -10.517   8.011  69.024  1.00  0.00    -0.218 OA 
BRANCH   3   4
HETATM    4  C   UNL     1     -11.058   6.776  68.910  1.00  0.00    -0.181 C  
HETATM    5  O   UNL     1     -11.386   6.229  67.871  1.00  0.00    -0.257 OA 
BRANCH   4   6
HETATM    6  C   UNL     1     -10.989   6.112  70.245  1.00  0.00    -0.417 C  
HETATM    7  C   UNL     1     -11.703   6.559  71.310  1.00  0.00    -0.331 C  
HETATM    8  C   UNL     1      -9.911   4.388  71.825  1.00  0.00    -0.257 C  
HETATM    9  N   UNL     1     -11.558   5.938  72.539  1.00  0.00    -0.303 NA 
HETATM   10  C   UNL     1     -10.647   4.940  72.823  1.00  0.00    -0.217 C  
HETATM   11  C   UNL     1     -10.062   4.892  70.374  1.00  0.00    -0.316 C  
HETATM   12  C   UNL     1     -10.552   4.558  74.280  1.00  0.00    -0.316 C  
BRANCH   7  13
HETATM   13  C   UNL     1     -12.741   7.677  71.270  1.00  0.00    -0.275 C  
BRANCH  13  14
HETATM   14  O   UNL     1     -12.277   8.870  71.905  1.00  0.00    -0.325 OA 
BRANCH  14  15
HETATM   15  C   UNL     1     -13.059  10.017  71.553  1.00  0.00    -0.433 C  
BRANCH  15  16
HETATM   16  C   UNL     1     -12.478  10.669  70.296  1.00  0.00    -0.304 C  
HETATM   17  N   UNL     1     -11.037  10.898  70.426  1.00  0.00    -0.459 NA 
HETATM   18  H2  UNL     1     -10.543  10.037  70.662  1.00  0.00     0.000 HD 
HETATM   19  H1  UNL     1     -10.650  11.332  69.588  1.00  0.00     0.000 HD 
ENDBRANCH  15  16
ENDBRANCH  14  15
ENDBRANCH  13  14
ENDBRANCH   7  13
BRANCH   8  20
HETATM   20  C   UNL     1      -8.913   3.334  72.151  1.00  0.00    -0.099 C  
HETATM   21  O   UNL     1      -9.023   2.155  71.844  1.00  0.00    -0.071 OA 
BRANCH  20  22
HETATM   22  O   UNL     1      -7.853   3.849  72.825  1.00  0.00    -0.072 OA 
HETATM   23  C   UNL     1      -6.591   3.396  72.324  1.00  0.00    -0.015 C  
ENDBRANCH  20  22
ENDBRANCH   8  20
BRANCH  11  24
HETATM   24  C   UNL     1      -8.708   5.087  69.663  1.00  0.00    -0.110 A  
HETATM   25  C   UNL     1      -7.848   6.094  70.161  1.00  0.00    -0.102 A  
HETATM   26  C   UNL     1      -6.619   6.364  69.555  1.00  0.00    -0.048 A  
HETATM   27  C   UNL     1      -6.222   5.631  68.444  1.00  0.00    -0.030 A  
HETATM   28  C   UNL     1      -7.043   4.617  67.951  1.00  0.00    -0.061 A  
HETATM   29  C   UNL     1      -8.274   4.339  68.557  1.00  0.00    -0.084 A  
HETATM   30 CL   UNL     1      -9.205   3.047  67.891  1.00  0.00    -0.227 Cl 
ENDBRANCH  11  24
ENDBRANCH   4   6
ENDBRANCH   3   4
ENDBRANCH   2   3
TORSDOF 10
ENDMDL
MODEL       97
REMARK 921   NORMALIZED FREE ENERGY PREDICTED BY IDOCK:   -3.80 KCAL/MOL
REMARK 922        TOTAL FREE ENERGY PREDICTED BY IDOCK:   -7.76 KCAL/MOL
REMARK 923 INTER-LIGAND FREE ENERGY PREDICTED BY IDOCK:   -6.27 KCAL/MOL
REMARK 924 INTRA-LIGAND FREE ENERGY PREDICTED BY IDOCK:   -1.49 KCAL/MOL
REMARK 927      BINDING AFFINITY PREDICTED BY RF-SCORE:    0.00 PKD
ROOT
HETATM    1  C   UNL     1      -6.568   7.367  71.498  1.00  0.00    -0.049 C  
HETATM    2  C   UNL     1      -7.165   7.059  70.140  1.00  0.00    -0.075 C  
ENDROOT
BRANCH   2   3
HETATM    3  O   UNL     1      -7.569   8.316  69.609  1.00  0.00    -0.089 OA 
BRANCH   3   4
HETATM    4  C   UNL     1      -8.457   8.350  68.588  1.00  0.00    -0.128 C  
HETATM    5  O   UNL     1      -8.688   7.443  67.807  1.00  0.00    -0.126 OA 
BRANCH   4   6
HETATM    6  C   UNL     1      -9.256   9.604  68.709  1.00  0.00    -0.141 C  
HETATM    7  C   UNL     1     -10.471   9.631  69.313  1.00  0.00    -0.217 C  
HETATM    8  C   UNL     1      -9.619  12.083  68.112  1.00  0.00    -0.200 C  
HETATM    9  N   UNL     1     -11.193  10.811  69.348  1.00  0.00    -0.253 NA 
HETATM   10  C   UNL     1     -10.832  11.982  68.711  1.00  0.00    -0.230 C  
HETATM   11  C   UNL     1      -8.649  10.883  68.107  1.00  0.00    -0.133 C  
HETATM   12  C   UNL     1     -11.876  13.072  68.740  1.00  0.00    -0.355 C  
BRANCH   7  13
HETATM   13  C   UNL     1     -11.115   8.459  70.050  1.00  0.00    -0.148 C  
BRANCH  13  14
HETATM   14  O   UNL     1     -12.104   8.887  70.990  1.00  0.00    -0.288 OA 
BRANCH  14  15
HETATM   15  C   UNL     1     -12.879   7.798  71.502  1.00  0.00    -0.329 C  
BRANCH  15  16
HETATM   16  C   UNL     1     -14.309   8.271  71.779  1.00  0.00    -0.483 C  
HETATM   17  N   UNL     1     -14.383   9.070  73.003  1.00  0.00    -1.139 NA 
HETATM   18  H2  UNL     1     -13.729   9.854  72.978  1.00  0.00     0.000 HD 
HETATM   19  H1  UNL     1     -15.335   9.386  73.188  1.00  0.00     0.000 HD 
ENDBRANCH  15  16
ENDBRANCH  14  15
ENDBRANCH  13  14
ENDBRANCH   7  13
BRANCH   8  20
HETATM   20  C   UNL     1      -9.257  13.342  67.405  1.00  0.00    -0.216 C  
HETATM   21  O   UNL     1      -9.652  13.650  66.289  1.00  0.00    -0.276 OA 
BRANCH  20  22
HETATM   22  O   UNL     1      -8.437  14.114  68.162  1.00  0.00    -0.156 OA 
HETATM   23  C   UNL     1      -8.963  15.423  68.408  1.00  0.00    -0.189 C  
ENDBRANCH  20  22
ENDBRANCH   8  20
BRANCH  11  24
HETATM   24  C   UNL     1      -7.991  10.648  66.733  1.00  0.00    -0.132 A  
HETATM   25  C   UNL     1      -6.581  10.737  66.661  1.00  0.00    -0.112 A  
HETATM   26  C   UNL     1      -5.904  10.575  65.450  1.00  0.00    -0.134 A  
HETATM   27  C   UNL     1      -6.621  10.316  64.289  1.00  0.00    -0.071 A  
HETATM   28  C   UNL     1      -8.010  10.199  64.341  1.00  0.00    -0.153 A  
HETATM   29  C   UNL     1      -8.693  10.357  65.553  1.00  0.00    -0.177 A  
HETATM   30 CL   UNL     1     -10.408  10.166  65.520  1.00  0.00    -0.274 Cl 
ENDBRANCH  11  24
ENDBRANCH   4   6
ENDBRANCH   3   4
ENDBRANCH   2   3
TORSDOF 10
ENDMDL
MODEL       98
REMARK 921   NORMALIZED FREE ENERGY PREDICTED BY IDOCK:   -3.79 KCAL/MOL
REMARK 922        TOTAL FREE ENERGY PREDICTED BY IDOCK:   -7.74 KCAL/MOL
REMARK 923 INTER-LIGAND FREE ENERGY PREDICTED BY IDOCK:   -6.85 KCAL/MOL
REMARK 924 INTRA-LIGAND FREE ENERGY PREDICTED BY IDOCK:   -0.88 KCAL/MOL
REMARK 927      BINDING AFFINITY PREDICTED BY RF-SCORE:    0.00 PKD
ROOT
HETATM    1  C   UNL     1      -6.628  17.341  66.242  1.00  0.00    -0.248 C  
HETATM    2  C   UNL     1      -6.355  16.647  67.561  1.00  0.00    -0.162 C  
ENDROOT
BRANCH   2   3
HETATM    3  O   UNL     1      -6.514  15.257  67.300  1.00  0.00    -0.303 OA 
BRANCH   3   4
HETATM    4  C   UNL     1      -6.899  14.433  68.301  1.00  0.00    -0.111 C  
HETATM    5  O   UNL     1      -6.757  14.639  69.494  1.00  0.00    -0.136 OA 
BRANCH   4   6
HETATM    6  C   UNL     1      -7.715  13.332  67.710  1.00  0.00    -0.159 C  
HETATM    7  C   UNL     1      -7.147  12.246  67.126  1.00  0.00    -0.102 C  
HETATM    8  C   UNL     1     -10.001  12.393  66.985  1.00  0.00    -0.218 C  
HETATM    9  N   UNL     1      -7.952  11.282  66.546  1.00  0.00    -0.158 NA 
HETATM   10  C   UNL     1      -9.323  11.372  66.404  1.00  0.00    -0.204 C  
HETATM   11  C   UNL     1      -9.245  13.478  67.781  1.00  0.00    -0.213 C  
HETATM   12  C   UNL     1      -9.951  10.282  65.569  1.00  0.00    -0.364 C  
BRANCH   7  13
HETATM   13  C   UNL     1      -5.653  11.936  67.107  1.00  0.00    -0.132 C  
BRANCH  13  14
HETATM   14  O   UNL     1      -5.138  11.834  65.777  1.00  0.00    -0.218 OA 
BRANCH  14  15
HETATM   15  C   UNL     1      -5.597  10.658  65.102  1.00  0.00    -0.128 C  
BRANCH  15  16
HETATM   16  C   UNL     1      -5.420  10.831  63.591  1.00  0.00    -0.053 C  
HETATM   17  N   UNL     1      -6.706  11.023  62.917  1.00  0.00    -0.327 NA 
HETATM   18  H2  UNL     1      -7.227  11.801  63.323  1.00  0.00     0.000 HD 
HETATM   19  H1  UNL     1      -6.588  11.138  61.911  1.00  0.00     0.000 HD 
ENDBRANCH  15  16
ENDBRANCH  14  15
ENDBRANCH  13  14
ENDBRANCH   7  13
BRANCH   8  20
HETATM   20  C   UNL     1     -11.474  12.492  66.799  1.00  0.00    -0.362 C  
HETATM   21  O   UNL     1     -12.020  13.132  65.911  1.00  0.00    -0.383 OA 
BRANCH  20  22
HETATM   22  O   UNL     1     -12.139  11.768  67.735  1.00  0.00    -0.595 OA 
HETATM   23  C   UNL     1     -11.959  12.263  69.066  1.00  0.00    -0.248 C  
ENDBRANCH  20  22
ENDBRANCH   8  20
BRANCH  11  24
HETATM   24  C   UNL     1      -9.728  14.906  67.458  1.00  0.00    -0.212 A  
HETATM   25  C   UNL     1      -9.678  15.321  66.106  1.00  0.00    -0.343 A  
HETATM   26  C   UNL     1     -10.062  16.610  65.729  1.00  0.00    -0.301 A  
HETATM   27  C   UNL     1     -10.508  17.507  66.690  1.00  0.00    -0.270 A  
HETATM   28  C   UNL     1     -10.590  17.110  68.025  1.00  0.00    -0.374 A  
HETATM   29  C   UNL     1     -10.210  15.818  68.409  1.00  0.00    -0.223 A  
HETATM   30 CL   UNL     1     -10.375  15.414  70.079  1.00  0.00    -0.307 Cl 
ENDBRANCH  11  24
ENDBRANCH   4   6
ENDBRANCH   3   4
ENDBRANCH   2   3
TORSDOF 10
ENDMDL
MODEL       99
REMARK 921   NORMALIZED FREE ENERGY PREDICTED BY IDOCK:   -3.78 KCAL/MOL
REMARK 922        TOTAL FREE ENERGY PREDICTED BY IDOCK:   -7.73 KCAL/MOL
REMARK 923 INTER-LIGAND FREE ENERGY PREDICTED BY IDOCK:   -6.13 KCAL/MOL
REMARK 924 INTRA-LIGAND FREE ENERGY PREDICTED BY IDOCK:   -1.60 KCAL/MOL
REMARK 927      BINDING AFFINITY PREDICTED BY RF-SCORE:    0.00 PKD
ROOT
HETATM    1  C   UNL     1     -12.474   9.651  71.080  1.00  0.00    -0.382 C  
HETATM    2  C   UNL     1     -11.603  10.278  70.010  1.00  0.00    -0.276 C  
ENDROOT
BRANCH   2   3
HETATM    3  O   UNL     1     -10.580   9.325  69.747  1.00  0.00    -0.216 OA 
BRANCH   3   4
HETATM    4  C   UNL     1      -9.375   9.750  69.300  1.00  0.00    -0.191 C  
HETATM    5  O   UNL     1      -8.471  10.194  69.988  1.00  0.00    -0.160 OA 
BRANCH   4   6
HETATM    6  C   UNL     1      -9.259   9.390  67.857  1.00  0.00    -0.139 C  
HETATM    7  C   UNL     1      -8.733   8.207  67.449  1.00  0.00    -0.124 C  
HETATM    8  C   UNL     1      -9.427  10.050  65.374  1.00  0.00    -0.310 C  
HETATM    9  N   UNL     1      -8.599   7.949  66.096  1.00  0.00    -0.142 NA 
HETATM   10  C   UNL     1      -8.859   8.853  65.085  1.00  0.00    -0.166 C  
HETATM   11  C   UNL     1      -9.756  10.426  66.834  1.00  0.00    -0.223 C  
HETATM   12  C   UNL     1      -8.456   8.398  63.703  1.00  0.00     0.012 C  
BRANCH   7  13
HETATM   13  C   UNL     1      -8.324   7.059  68.369  1.00  0.00    -0.124 C  
BRANCH  13  14
HETATM   14  O   UNL     1      -9.006   5.843  68.053  1.00  0.00    -0.119 OA 
BRANCH  14  15
HETATM   15  C   UNL     1     -10.430   5.983  68.110  1.00  0.00    -0.236 C  
BRANCH  15  16
HETATM   16  C   UNL     1     -10.926   5.623  69.512  1.00  0.00    -0.196 C  
HETATM   17  N   UNL     1     -11.689   6.720  70.111  1.00  0.00    -0.578 NA 
HETATM   18  H2  UNL     1     -12.458   7.013  69.507  1.00  0.00     0.000 HD 
HETATM   19  H1  UNL     1     -12.020   6.480  71.045  1.00  0.00     0.000 HD 
ENDBRANCH  15  16
ENDBRANCH  14  15
ENDBRANCH  13  14
ENDBRANCH   7  13
BRANCH   8  20
HETATM   20  C   UNL     1      -9.674  11.025  64.276  1.00  0.00    -0.284 C  
HETATM   21  O   UNL     1      -8.800  11.528  63.584  1.00  0.00     0.118 OA 
BRANCH  20  22
HETATM   22  O   UNL     1     -11.000  11.279  64.131  1.00  0.00    -0.372 OA 
HETATM   23  C   UNL     1     -11.271  12.572  63.581  1.00  0.00    -0.483 C  
ENDBRANCH  20  22
ENDBRANCH   8  20
BRANCH  11  24
HETATM   24  C   UNL     1      -9.345  11.868  67.190  1.00  0.00    -0.180 A  
HETATM   25  C   UNL     1      -7.961  12.154  67.260  1.00  0.00    -0.176 A  
HETATM   26  C   UNL     1      -7.500  13.425  67.612  1.00  0.00    -0.182 A  
HETATM   27  C   UNL     1      -8.409  14.435  67.895  1.00  0.00    -0.162 A  
HETATM   28  C   UNL     1      -9.778  14.182  67.808  1.00  0.00    -0.223 A  
HETATM   29  C   UNL     1     -10.246  12.912  67.452  1.00  0.00    -0.230 A  
HETATM   30 CL   UNL     1     -11.957  12.706  67.344  1.00  0.00    -0.382 Cl 
ENDBRANCH  11  24
ENDBRANCH   4   6
ENDBRANCH   3   4
ENDBRANCH   2   3
TORSDOF 10
ENDMDL
MODEL      100
REMARK 921   NORMALIZED FREE ENERGY PREDICTED BY IDOCK:   -3.76 KCAL/MOL
REMARK 922        TOTAL FREE ENERGY PREDICTED BY IDOCK:   -7.70 KCAL/MOL
REMARK 923 INTER-LIGAND FREE ENERGY PREDICTED BY IDOCK:   -6.63 KCAL/MOL
REMARK 924 INTRA-LIGAND FREE ENERGY PREDICTED BY IDOCK:   -1.07 KCAL/MOL
REMARK 927      BINDING AFFINITY PREDICTED BY RF-SCORE:    0.00 PKD
ROOT
HETATM    1  C   UNL     1     -11.874  10.401  69.901  1.00  0.00    -0.314 C  
HETATM    2  C   UNL     1     -11.558  11.872  70.079  1.00  0.00    -0.220 C  
ENDROOT
BRANCH   2   3
HETATM    3  O   UNL     1     -10.798  12.239  68.933  1.00  0.00    -0.223 OA 
BRANCH   3   4
HETATM    4  C   UNL     1     -11.435  12.716  67.838  1.00  0.00    -0.309 C  
HETATM    5  O   UNL     1     -12.530  12.361  67.433  1.00  0.00    -0.142 OA 
BRANCH   4   6
HETATM    6  C   UNL     1     -10.673  13.895  67.333  1.00  0.00    -0.275 C  
HETATM    7  C   UNL     1      -9.590  13.761  66.525  1.00  0.00    -0.285 C  
HETATM    8  C   UNL     1     -10.209  16.427  67.357  1.00  0.00    -0.281 C  
HETATM    9  N   UNL     1      -8.888  14.887  66.130  1.00  0.00    -0.085 NA 
HETATM   10  C   UNL     1      -9.127  16.171  66.580  1.00  0.00    -0.252 C  
HETATM   11  C   UNL     1     -11.161  15.286  67.772  1.00  0.00    -0.318 C  
HETATM   12  C   UNL     1      -8.108  17.197  66.150  1.00  0.00    -0.283 C  
BRANCH   7  13
HETATM   13  C   UNL     1      -9.092  12.448  65.928  1.00  0.00     0.099 C  
BRANCH  13  14
HETATM   14  O   UNL     1      -9.879  12.027  64.811  1.00  0.00    -0.239 OA 
BRANCH  14  15
HETATM   15  C   UNL     1     -10.223  10.639  64.876  1.00  0.00    -0.324 C  
BRANCH  15  16
HETATM   16  C   UNL     1      -8.989   9.821  65.263  1.00  0.00    -0.193 C  
HETATM   17  N   UNL     1      -8.858   8.620  64.435  1.00  0.00    -0.411 NA 
HETATM   18  H2  UNL     1      -8.855   8.851  63.441  1.00  0.00     0.000 HD 
HETATM   19  H1  UNL     1      -8.035   8.075  64.693  1.00  0.00     0.000 HD 
ENDBRANCH  15  16
ENDBRANCH  14  15
ENDBRANCH  13  14
ENDBRANCH   7  13
BRANCH   8  20
HETATM   20  C   UNL     1     -10.436  17.811  67.858  1.00  0.00    -0.397 C  
HETATM   21  O   UNL     1      -9.978  18.255  68.902  1.00  0.00    -0.375 OA 
BRANCH  20  22
HETATM   22  O   UNL     1     -11.210  18.525  67.001  1.00  0.00    -0.006 OA 
HETATM   23  C   UNL     1     -10.599  19.746  66.573  1.00  0.00    -0.467 C  
ENDBRANCH  20  22
ENDBRANCH   8  20
BRANCH  11  24
HETATM   24  C   UNL     1     -11.554  15.343  69.262  1.00  0.00    -0.354 A  
HETATM   25  C   UNL     1     -12.933  15.314  69.574  1.00  0.00     0.427 A  
HETATM   26  C   UNL     1     -13.380  15.399  70.895  1.00  0.00    -0.476 A  
HETATM   27  C   UNL     1     -12.460  15.508  71.929  1.00  0.00    -0.475 A  
HETATM   28  C   UNL     1     -11.094  15.513  71.645  1.00  0.00    -0.266 A  
HETATM   29  C   UNL     1     -10.640  15.424  70.324  1.00  0.00    -0.277 A  
HETATM   30 CL   UNL     1      -8.931  15.409  70.079  1.00  0.00     0.089 Cl 
ENDBRANCH  11  24
ENDBRANCH   4   6
ENDBRANCH   3   4
ENDBRANCH   2   3
TORSDOF 10
ENDMDL
MODEL      101
REMARK 921   NORMALIZED FREE ENERGY PREDICTED BY IDOCK:   -3.76 KCAL/MOL
REMARK 922        TOTAL FREE ENERGY PREDICTED BY IDOCK:   -7.69 KCAL/MOL
REMARK 923 INTER-LIGAND FREE ENERGY PREDICTED BY IDOCK:   -6.48 KCAL/MOL
REMARK 924 INTRA-LIGAND FREE ENERGY PREDICTED BY IDOCK:   -1.21 KCAL/MOL
REMARK 927      BINDING AFFINITY PREDICTED BY RF-SCORE:    0.00 PKD
ROOT
HETATM    1  C   UNL     1     -10.617  19.502  66.354  1.00  0.00    -0.571 C  
HETATM    2  C   UNL     1     -10.287  19.244  67.811  1.00  0.00    -0.429 C  
ENDROOT
BRANCH   2   3
HETATM    3  O   UNL     1      -9.571  18.014  67.826  1.00  0.00    -0.268 OA 
BRANCH   3   4
HETATM    4  C   UNL     1      -9.697  17.186  68.889  1.00  0.00    -0.256 C  
HETATM    5  O   UNL     1     -10.631  17.162  69.673  1.00  0.00    -0.249 OA 
BRANCH   4   6
HETATM    6  C   UNL     1      -8.609  16.168  68.818  1.00  0.00    -0.236 C  
HETATM    7  C   UNL     1      -7.297  16.508  68.896  1.00  0.00    -0.219 C  
HETATM    8  C   UNL     1      -7.845  13.746  68.393  1.00  0.00    -0.143 C  
HETATM    9  N   UNL     1      -6.327  15.528  68.770  1.00  0.00    -0.101 NA 
HETATM   10  C   UNL     1      -6.571  14.206  68.454  1.00  0.00    -0.106 C  
HETATM   11  C   UNL     1      -9.033  14.700  68.643  1.00  0.00    -0.184 C  
HETATM   12  C   UNL     1      -5.338  13.377  68.187  1.00  0.00    -0.105 C  
BRANCH   7  13
HETATM   13  C   UNL     1      -6.764  17.908  69.192  1.00  0.00    -0.239 C  
BRANCH  13  14
HETATM   14  O   UNL     1      -5.455  18.113  68.656  1.00  0.00    -0.167 OA 
BRANCH  14  15
HETATM   15  C   UNL     1      -5.469  18.919  67.473  1.00  0.00    -0.162 C  
BRANCH  15  16
HETATM   16  C   UNL     1      -6.058  20.295  67.794  1.00  0.00    -0.228 C  
HETATM   17  N   UNL     1      -6.950  20.759  66.729  1.00  0.00    -0.385 NA 
HETATM   18  H2  UNL     1      -7.682  20.076  66.532  1.00  0.00     0.000 HD 
HETATM   19  H1  UNL     1      -7.343  21.676  66.943  1.00  0.00     0.000 HD 
ENDBRANCH  15  16
ENDBRANCH  14  15
ENDBRANCH  13  14
ENDBRANCH   7  13
BRANCH   8  20
HETATM   20  C   UNL     1      -8.092  12.325  68.024  1.00  0.00    -0.156 C  
HETATM   21  O   UNL     1      -8.387  11.442  68.818  1.00  0.00    -0.150 OA 
BRANCH  20  22
HETATM   22  O   UNL     1      -7.960  12.133  66.687  1.00  0.00    -0.079 OA 
HETATM   23  C   UNL     1      -7.459  10.836  66.349  1.00  0.00    -0.142 C  
ENDBRANCH  20  22
ENDBRANCH   8  20
BRANCH  11  24
HETATM   24  C   UNL     1     -10.172  14.521  67.620  1.00  0.00    -0.225 A  
HETATM   25  C   UNL     1     -11.338  13.846  68.055  1.00  0.00    -0.317 A  
HETATM   26  C   UNL     1     -12.404  13.607  67.185  1.00  0.00    -0.234 A  
HETATM   27  C   UNL     1     -12.330  14.040  65.867  1.00  0.00    -0.515 A  
HETATM   28  C   UNL     1     -11.201  14.729  65.425  1.00  0.00    -0.347 A  
HETATM   29  C   UNL     1     -10.131  14.975  66.294  1.00  0.00    -0.282 A  
HETATM   30 CL   UNL     1      -8.791  15.860  65.659  1.00  0.00     0.022 Cl 
ENDBRANCH  11  24
ENDBRANCH   4   6
ENDBRANCH   3   4
ENDBRANCH   2   3
TORSDOF 10
ENDMDL
MODEL      102
REMARK 921   NORMALIZED FREE ENERGY PREDICTED BY IDOCK:   -3.73 KCAL/MOL
REMARK 922        TOTAL FREE ENERGY PREDICTED BY IDOCK:   -7.64 KCAL/MOL
REMARK 923 INTER-LIGAND FREE ENERGY PREDICTED BY IDOCK:   -5.92 KCAL/MOL
REMARK 924 INTRA-LIGAND FREE ENERGY PREDICTED BY IDOCK:   -1.73 KCAL/MOL
REMARK 927      BINDING AFFINITY PREDICTED BY RF-SCORE:    0.00 PKD
ROOT
HETATM    1  C   UNL     1     -14.386   8.541  71.991  1.00  0.00    -0.537 C  
HETATM    2  C   UNL     1     -12.936   8.799  72.349  1.00  0.00    -0.383 C  
ENDROOT
BRANCH   2   3
HETATM    3  O   UNL     1     -12.267   8.992  71.108  1.00  0.00    -0.298 OA 
BRANCH   3   4
HETATM    4  C   UNL     1     -11.437   8.029  70.645  1.00  0.00    -0.232 C  
HETATM    5  O   UNL     1     -11.776   6.982  70.118  1.00  0.00    -0.267 OA 
BRANCH   4   6
HETATM    6  C   UNL     1     -10.041   8.553  70.694  1.00  0.00    -0.225 C  
HETATM    7  C   UNL     1      -9.470   9.184  69.637  1.00  0.00    -0.172 C  
HETATM    8  C   UNL     1      -7.774   8.749  71.899  1.00  0.00    -0.058 C  
HETATM    9  N   UNL     1      -8.153   9.602  69.719  1.00  0.00    -0.136 NA 
HETATM   10  C   UNL     1      -7.299   9.335  70.772  1.00  0.00    -0.123 C  
HETATM   11  C   UNL     1      -9.260   8.344  72.002  1.00  0.00    -0.304 C  
HETATM   12  C   UNL     1      -5.861   9.733  70.543  1.00  0.00    -0.066 C  
BRANCH   7  13
HETATM   13  C   UNL     1     -10.184   9.555  68.340  1.00  0.00    -0.194 C  
BRANCH  13  14
HETATM   14  O   UNL     1     -10.107  10.955  68.061  1.00  0.00    -0.170 OA 
BRANCH  14  15
HETATM   15  C   UNL     1     -11.049  11.718  68.824  1.00  0.00    -0.241 C  
BRANCH  15  16
HETATM   16  C   UNL     1     -11.348  13.035  68.104  1.00  0.00    -0.294 C  
HETATM   17  N   UNL     1     -10.754  13.063  66.766  1.00  0.00    -0.261 NA 
HETATM   18  H2  UNL     1     -11.049  12.259  66.210  1.00  0.00     0.000 HD 
HETATM   19  H1  UNL     1     -10.953  13.940  66.286  1.00  0.00     0.000 HD 
ENDBRANCH  15  16
ENDBRANCH  14  15
ENDBRANCH  13  14
ENDBRANCH   7  13
BRANCH   8  20
HETATM   20  C   UNL     1      -6.835   8.443  73.014  1.00  0.00    -0.078 C  
HETATM   21  O   UNL     1      -6.693   9.136  74.011  1.00  0.00    -0.353 OA 
BRANCH  20  22
HETATM   22  O   UNL     1      -6.163   7.286  72.788  1.00  0.00    -0.054 OA 
HETATM   23  C   UNL     1      -6.013   6.481  73.963  1.00  0.00    -0.063 C  
ENDBRANCH  20  22
ENDBRANCH   8  20
BRANCH  11  24
HETATM   24  C   UNL     1      -9.459   6.939  72.604  1.00  0.00    -0.159 A  
HETATM   25  C   UNL     1     -10.091   6.854  73.867  1.00  0.00    -0.391 A  
HETATM   26  C   UNL     1     -10.279   5.625  74.503  1.00  0.00    -0.288 A  
HETATM   27  C   UNL     1      -9.845   4.457  73.890  1.00  0.00    -0.169 A  
HETATM   28  C   UNL     1      -9.241   4.515  72.633  1.00  0.00    -0.145 A  
HETATM   29  C   UNL     1      -9.054   5.744  71.990  1.00  0.00    -0.137 A  
HETATM   30 CL   UNL     1      -8.324   5.709  70.425  1.00  0.00    -0.117 Cl 
ENDBRANCH  11  24
ENDBRANCH   4   6
ENDBRANCH   3   4
ENDBRANCH   2   3
TORSDOF 10
ENDMDL
MODEL      103
REMARK 921   NORMALIZED FREE ENERGY PREDICTED BY IDOCK:   -3.72 KCAL/MOL
REMARK 922        TOTAL FREE ENERGY PREDICTED BY IDOCK:   -7.62 KCAL/MOL
REMARK 923 INTER-LIGAND FREE ENERGY PREDICTED BY IDOCK:   -5.88 KCAL/MOL
REMARK 924 INTRA-LIGAND FREE ENERGY PREDICTED BY IDOCK:   -1.75 KCAL/MOL
REMARK 927      BINDING AFFINITY PREDICTED BY RF-SCORE:    0.00 PKD
ROOT
HETATM    1  C   UNL     1     -14.275   8.486  71.831  1.00  0.00    -0.536 C  
HETATM    2  C   UNL     1     -13.627   7.137  71.590  1.00  0.00    -0.310 C  
ENDROOT
BRANCH   2   3
HETATM    3  O   UNL     1     -12.225   7.371  71.662  1.00  0.00    -0.299 OA 
BRANCH   3   4
HETATM    4  C   UNL     1     -11.408   6.788  70.755  1.00  0.00    -0.325 C  
HETATM    5  O   UNL     1     -11.758   6.220  69.734  1.00  0.00    -0.403 OA 
BRANCH   4   6
HETATM    6  C   UNL     1     -10.000   7.139  71.102  1.00  0.00    -0.187 C  
HETATM    7  C   UNL     1      -9.388   6.655  72.213  1.00  0.00    -0.136 C  
HETATM    8  C   UNL     1      -7.884   8.544  70.680  1.00  0.00    -0.091 C  
HETATM    9  N   UNL     1      -8.099   7.058  72.515  1.00  0.00    -0.101 NA 
HETATM   10  C   UNL     1      -7.387   8.022  71.829  1.00  0.00    -0.079 C  
HETATM   11  C   UNL     1      -9.260   8.091  70.147  1.00  0.00    -0.152 C  
HETATM   12  C   UNL     1      -6.077   8.420  72.465  1.00  0.00    -0.072 C  
BRANCH   7  13
HETATM   13  C   UNL     1      -9.978   5.614  73.161  1.00  0.00    -0.175 C  
BRANCH  13  14
HETATM   14  O   UNL     1      -9.284   4.366  73.095  1.00  0.00    -0.117 OA 
BRANCH  14  15
HETATM   15  C   UNL     1      -9.828   3.489  72.103  1.00  0.00    -0.168 C  
BRANCH  15  16
HETATM   16  C   UNL     1      -8.778   3.219  71.023  1.00  0.00    -0.075 C  
HETATM   17  N   UNL     1      -7.545   3.968  71.273  1.00  0.00    -0.054 NA 
HETATM   18  H2  UNL     1      -7.177   3.780  72.207  1.00  0.00     0.000 HD 
HETATM   19  H1  UNL     1      -6.844   3.788  70.554  1.00  0.00     0.000 HD 
ENDBRANCH  15  16
ENDBRANCH  14  15
ENDBRANCH  13  14
ENDBRANCH   7  13
BRANCH   8  20
HETATM   20  C   UNL     1      -7.118   9.603  69.968  1.00  0.00    -0.104 C  
HETATM   21  O   UNL     1      -6.985  10.752  70.368  1.00  0.00    -0.252 OA 
BRANCH  20  22
HETATM   22  O   UNL     1      -6.571   9.129  68.820  1.00  0.00    -0.052 OA 
HETATM   23  C   UNL     1      -5.149   8.978  68.891  1.00  0.00    -0.033 C  
ENDBRANCH  20  22
ENDBRANCH   8  20
BRANCH  11  24
HETATM   24  C   UNL     1     -10.135   9.266  69.669  1.00  0.00    -0.208 A  
HETATM   25  C   UNL     1     -10.717  10.091  70.661  1.00  0.00    -0.325 A  
HETATM   26  C   UNL     1     -11.555  11.155  70.319  1.00  0.00    -0.388 A  
HETATM   27  C   UNL     1     -11.822  11.421  68.982  1.00  0.00    -0.415 A  
HETATM   28  C   UNL     1     -11.239  10.636  67.988  1.00  0.00    -0.373 A  
HETATM   29  C   UNL     1     -10.396   9.570  68.325  1.00  0.00    -0.207 A  
HETATM   30 CL   UNL     1      -9.700   8.676  67.021  1.00  0.00    -0.240 Cl 
ENDBRANCH  11  24
ENDBRANCH   4   6
ENDBRANCH   3   4
ENDBRANCH   2   3
TORSDOF 10
ENDMDL
MODEL      104
REMARK 921   NORMALIZED FREE ENERGY PREDICTED BY IDOCK:   -3.70 KCAL/MOL
REMARK 922        TOTAL FREE ENERGY PREDICTED BY IDOCK:   -7.60 KCAL/MOL
REMARK 923 INTER-LIGAND FREE ENERGY PREDICTED BY IDOCK:   -6.18 KCAL/MOL
REMARK 924 INTRA-LIGAND FREE ENERGY PREDICTED BY IDOCK:   -1.42 KCAL/MOL
REMARK 927      BINDING AFFINITY PREDICTED BY RF-SCORE:    0.00 PKD
ROOT
HETATM    1  C   UNL     1      -5.305  10.818  65.481  1.00  0.00    -0.140 C  
HETATM    2  C   UNL     1      -5.282  10.766  66.995  1.00  0.00    -0.046 C  
ENDROOT
BRANCH   2   3
HETATM    3  O   UNL     1      -6.641  10.887  67.400  1.00  0.00    -0.064 OA 
BRANCH   3   4
HETATM    4  C   UNL     1      -7.019  11.949  68.147  1.00  0.00    -0.078 C  
HETATM    5  O   UNL     1      -6.547  12.274  69.224  1.00  0.00    -0.102 OA 
BRANCH   4   6
HETATM    6  C   UNL     1      -7.961  12.777  67.339  1.00  0.00    -0.179 C  
HETATM    7  C   UNL     1      -7.824  14.122  67.224  1.00  0.00    -0.132 C  
HETATM    8  C   UNL     1     -10.140  12.992  65.982  1.00  0.00    -0.286 C  
HETATM    9  N   UNL     1      -8.759  14.847  66.506  1.00  0.00    -0.228 NA 
HETATM   10  C   UNL     1      -9.919  14.330  65.964  1.00  0.00    -0.319 C  
HETATM   11  C   UNL     1      -9.115  12.041  66.637  1.00  0.00    -0.205 C  
HETATM   12  C   UNL     1     -10.868  15.355  65.391  1.00  0.00    -0.403 C  
BRANCH   7  13
HETATM   13  C   UNL     1      -6.655  14.939  67.770  1.00  0.00    -0.168 C  
BRANCH  13  14
HETATM   14  O   UNL     1      -6.765  16.327  67.443  1.00  0.00    -0.144 OA 
BRANCH  14  15
HETATM   15  C   UNL     1      -7.061  17.137  68.585  1.00  0.00    -0.217 C  
BRANCH  15  16
HETATM   16  C   UNL     1      -8.242  18.059  68.270  1.00  0.00    -0.292 C  
HETATM   17  N   UNL     1      -9.489  17.305  68.125  1.00  0.00    -0.270 NA 
HETATM   18  H2  UNL     1      -9.674  16.729  68.947  1.00  0.00     0.000 HD 
HETATM   19  H1  UNL     1     -10.276  17.919  67.916  1.00  0.00     0.000 HD 
ENDBRANCH  15  16
ENDBRANCH  14  15
ENDBRANCH  13  14
ENDBRANCH   7  13
BRANCH   8  20
HETATM   20  C   UNL     1     -11.408  12.453  65.420  1.00  0.00    -0.337 C  
HETATM   21  O   UNL     1     -12.504  12.555  65.956  1.00  0.00    -0.565 OA 
BRANCH  20  22
HETATM   22  O   UNL     1     -11.198  11.841  64.227  1.00  0.00    -0.334 OA 
HETATM   23  C   UNL     1     -12.166  12.195  63.233  1.00  0.00    -0.426 C  
ENDBRANCH  20  22
ENDBRANCH   8  20
BRANCH  11  24
HETATM   24  C   UNL     1      -9.774  10.969  67.527  1.00  0.00    -0.190 A  
HETATM   25  C   UNL     1      -9.579   9.614  67.169  1.00  0.00    -0.210 A  
HETATM   26  C   UNL     1     -10.170   8.578  67.897  1.00  0.00    -0.273 A  
HETATM   27  C   UNL     1     -10.962   8.874  68.998  1.00  0.00     0.026 A  
HETATM   28  C   UNL     1     -11.148  10.202  69.384  1.00  0.00    -0.288 A  
HETATM   29  C   UNL     1     -10.555  11.243  68.660  1.00  0.00    -0.202 A  
HETATM   30 CL   UNL     1     -10.822  12.850  69.233  1.00  0.00    -0.112 Cl 
ENDBRANCH  11  24
ENDBRANCH   4   6
ENDBRANCH   3   4
ENDBRANCH   2   3
TORSDOF 10
ENDMDL
MODEL      105
REMARK 921   NORMALIZED FREE ENERGY PREDICTED BY IDOCK:   -3.67 KCAL/MOL
REMARK 922        TOTAL FREE ENERGY PREDICTED BY IDOCK:   -7.56 KCAL/MOL
REMARK 923 INTER-LIGAND FREE ENERGY PREDICTED BY IDOCK:   -5.88 KCAL/MOL
REMARK 924 INTRA-LIGAND FREE ENERGY PREDICTED BY IDOCK:   -1.67 KCAL/MOL
REMARK 927      BINDING AFFINITY PREDICTED BY RF-SCORE:    0.00 PKD
ROOT
HETATM    1  C   UNL     1      -7.835   8.335  63.553  1.00  0.00    -0.152 C  
HETATM    2  C   UNL     1      -7.619   8.419  65.051  1.00  0.00    -0.094 C  
ENDROOT
BRANCH   2   3
HETATM    3  O   UNL     1      -7.927   9.762  65.404  1.00  0.00    -0.116 OA 
BRANCH   3   4
HETATM    4  C   UNL     1      -8.981  10.011  66.215  1.00  0.00    -0.148 C  
HETATM    5  O   UNL     1      -9.920   9.260  66.420  1.00  0.00    -0.255 OA 
BRANCH   4   6
HETATM    6  C   UNL     1      -8.700  11.262  66.976  1.00  0.00    -0.152 C  
HETATM    7  C   UNL     1      -8.231  11.242  68.250  1.00  0.00    -0.143 C  
HETATM    8  C   UNL     1      -8.830  13.826  67.179  1.00  0.00    -0.240 C  
HETATM    9  N   UNL     1      -8.040  12.433  68.928  1.00  0.00     0.090 NA 
HETATM   10  C   UNL     1      -8.392  13.682  68.455  1.00  0.00    -0.147 C  
HETATM   11  C   UNL     1      -8.970  12.595  66.258  1.00  0.00     0.018 C  
HETATM   12  C   UNL     1      -8.256  14.804  69.455  1.00  0.00    -0.012 C  
BRANCH   7  13
HETATM   13  C   UNL     1      -7.812   9.989  69.016  1.00  0.00    -0.101 C  
BRANCH  13  14
HETATM   14  O   UNL     1      -8.775   9.610  70.002  1.00  0.00    -0.200 OA 
BRANCH  14  15
HETATM   15  C   UNL     1      -8.699   8.219  70.334  1.00  0.00    -0.139 C  
BRANCH  15  16
HETATM   16  C   UNL     1      -9.776   7.448  69.567  1.00  0.00    -0.159 C  
HETATM   17  N   UNL     1     -10.825   8.341  69.070  1.00  0.00    -0.421 NA 
HETATM   18  H2  UNL     1     -10.436   9.097  68.507  1.00  0.00     0.000 HD 
HETATM   19  H1  UNL     1     -11.543   7.827  68.559  1.00  0.00     0.000 HD 
ENDBRANCH  15  16
ENDBRANCH  14  15
ENDBRANCH  13  14
ENDBRANCH   7  13
BRANCH   8  20
HETATM   20  C   UNL     1      -9.232  15.174  66.693  1.00  0.00    -0.270 C  
HETATM   21  O   UNL     1      -8.627  15.816  65.845  1.00  0.00    -0.194 OA 
BRANCH  20  22
HETATM   22  O   UNL     1     -10.368  15.600  67.303  1.00  0.00    -0.265 OA 
HETATM   23  C   UNL     1     -10.312  16.972  67.707  1.00  0.00    -0.335 C  
ENDBRANCH  20  22
ENDBRANCH   8  20
BRANCH  11  24
HETATM   24  C   UNL     1     -10.287  12.591  65.458  1.00  0.00    -0.303 A  
HETATM   25  C   UNL     1     -10.194  12.629  64.047  1.00  0.00    -0.363 A  
HETATM   26  C   UNL     1     -11.336  12.665  63.245  1.00  0.00    -0.306 A  
HETATM   27  C   UNL     1     -12.594  12.660  63.834  1.00  0.00    -0.432 A  
HETATM   28  C   UNL     1     -12.710  12.598  65.223  1.00  0.00    -0.229 A  
HETATM   29  C   UNL     1     -11.568  12.557  66.032  1.00  0.00    -0.406 A  
HETATM   30 CL   UNL     1     -11.816  12.453  67.737  1.00  0.00    -0.406 Cl 
ENDBRANCH  11  24
ENDBRANCH   4   6
ENDBRANCH   3   4
ENDBRANCH   2   3
TORSDOF 10
ENDMDL
MODEL      106
REMARK 921   NORMALIZED FREE ENERGY PREDICTED BY IDOCK:   -3.67 KCAL/MOL
REMARK 922        TOTAL FREE ENERGY PREDICTED BY IDOCK:   -7.54 KCAL/MOL
REMARK 923 INTER-LIGAND FREE ENERGY PREDICTED BY IDOCK:   -5.74 KCAL/MOL
REMARK 924 INTRA-LIGAND FREE ENERGY PREDICTED BY IDOCK:   -1.81 KCAL/MOL
REMARK 927      BINDING AFFINITY PREDICTED BY RF-SCORE:    0.00 PKD
ROOT
HETATM    1  C   UNL     1      -7.128   9.389  70.586  1.00  0.00    -0.127 C  
HETATM    2  C   UNL     1      -7.149  10.412  69.468  1.00  0.00    -0.113 C  
ENDROOT
BRANCH   2   3
HETATM    3  O   UNL     1      -7.255   9.658  68.266  1.00  0.00    -0.077 OA 
BRANCH   3   4
HETATM    4  C   UNL     1      -8.478   9.290  67.819  1.00  0.00    -0.116 C  
HETATM    5  O   UNL     1      -9.529   9.861  68.054  1.00  0.00    -0.134 OA 
BRANCH   4   6
HETATM    6  C   UNL     1      -8.299   8.196  66.820  1.00  0.00    -0.115 C  
HETATM    7  C   UNL     1      -8.341   8.426  65.483  1.00  0.00    -0.154 C  
HETATM    8  C   UNL     1      -8.082   5.689  66.274  1.00  0.00    -0.107 C  
HETATM    9  N   UNL     1      -8.224   7.365  64.602  1.00  0.00    -0.089 NA 
HETATM   10  C   UNL     1      -8.173   6.032  64.965  1.00  0.00    -0.136 C  
HETATM   11  C   UNL     1      -8.070   6.777  67.368  1.00  0.00    -0.118 C  
HETATM   12  C   UNL     1      -8.236   5.056  63.816  1.00  0.00    -0.125 C  
BRANCH   7  13
HETATM   13  C   UNL     1      -8.439   9.801  64.827  1.00  0.00    -0.164 C  
BRANCH  13  14
HETATM   14  O   UNL     1      -9.793  10.235  64.679  1.00  0.00    -0.313 OA 
BRANCH  14  15
HETATM   15  C   UNL     1     -10.035  10.845  63.406  1.00  0.00    -0.361 C  
BRANCH  15  16
HETATM   16  C   UNL     1     -10.999  12.022  63.576  1.00  0.00    -0.444 C  
HETATM   17  N   UNL     1     -12.337  11.696  63.078  1.00  0.00    -0.956 NA 
HETATM   18  H2  UNL     1     -12.702  10.849  63.515  1.00  0.00     0.000 HD 
HETATM   19  H1  UNL     1     -12.980  12.480  63.191  1.00  0.00     0.000 HD 
ENDBRANCH  15  16
ENDBRANCH  14  15
ENDBRANCH  13  14
ENDBRANCH   7  13
BRANCH   8  20
HETATM   20  C   UNL     1      -8.057   4.248  66.651  1.00  0.00    -0.102 C  
HETATM   21  O   UNL     1      -9.050   3.542  66.761  1.00  0.00    -0.140 OA 
BRANCH  20  22
HETATM   22  O   UNL     1      -6.787   3.812  66.845  1.00  0.00    -0.049 OA 
HETATM   23  C   UNL     1      -6.548   3.342  68.175  1.00  0.00    -0.037 C  
ENDBRANCH  20  22
ENDBRANCH   8  20
BRANCH  11  24
HETATM   24  C   UNL     1      -8.984   6.438  68.562  1.00  0.00    -0.125 A  
HETATM   25  C   UNL     1      -8.367   6.239  69.820  1.00  0.00    -0.125 A  
HETATM   26  C   UNL     1      -9.114   5.893  70.948  1.00  0.00    -0.159 A  
HETATM   27  C   UNL     1     -10.491   5.744  70.845  1.00  0.00    -0.317 A  
HETATM   28  C   UNL     1     -11.123   5.960  69.620  1.00  0.00    -0.414 A  
HETATM   29  C   UNL     1     -10.379   6.312  68.487  1.00  0.00    -0.203 A  
HETATM   30 CL   UNL     1     -11.256   6.585  67.025  1.00  0.00    -0.419 Cl 
ENDBRANCH  11  24
ENDBRANCH   4   6
ENDBRANCH   3   4
ENDBRANCH   2   3
TORSDOF 10
ENDMDL
MODEL      107
REMARK 921   NORMALIZED FREE ENERGY PREDICTED BY IDOCK:   -3.62 KCAL/MOL
REMARK 922        TOTAL FREE ENERGY PREDICTED BY IDOCK:   -7.47 KCAL/MOL
REMARK 923 INTER-LIGAND FREE ENERGY PREDICTED BY IDOCK:   -5.50 KCAL/MOL
REMARK 924 INTRA-LIGAND FREE ENERGY PREDICTED BY IDOCK:   -1.97 KCAL/MOL
REMARK 927      BINDING AFFINITY PREDICTED BY RF-SCORE:    0.00 PKD
ROOT
HETATM    1  C   UNL     1     -12.374   8.094  71.511  1.00  0.00    -0.335 C  
HETATM    2  C   UNL     1     -11.028   8.707  71.840  1.00  0.00    -0.342 C  
ENDROOT
BRANCH   2   3
HETATM    3  O   UNL     1     -10.621   9.387  70.658  1.00  0.00    -0.243 OA 
BRANCH   3   4
HETATM    4  C   UNL     1      -9.301   9.523  70.391  1.00  0.00    -0.257 C  
HETATM    5  O   UNL     1      -8.401   9.538  71.214  1.00  0.00    -0.265 OA 
BRANCH   4   6
HETATM    6  C   UNL     1      -9.113   9.440  68.913  1.00  0.00    -0.140 C  
HETATM    7  C   UNL     1      -9.554  10.411  68.074  1.00  0.00    -0.143 C  
HETATM    8  C   UNL     1      -8.415   8.102  66.827  1.00  0.00    -0.123 C  
HETATM    9  N   UNL     1      -9.402  10.256  66.707  1.00  0.00    -0.157 NA 
HETATM   10  C   UNL     1      -8.923   9.119  66.086  1.00  0.00    -0.173 C  
HETATM   11  C   UNL     1      -8.399   8.192  68.367  1.00  0.00    -0.126 C  
HETATM   12  C   UNL     1      -9.029   9.123  64.580  1.00  0.00    -0.129 C  
BRANCH   7  13
HETATM   13  C   UNL     1     -10.162  11.743  68.508  1.00  0.00    -0.210 C  
BRANCH  13  14
HETATM   14  O   UNL     1     -11.526  11.873  68.100  1.00  0.00    -0.271 OA 
BRANCH  14  15
HETATM   15  C   UNL     1     -11.754  13.054  67.323  1.00  0.00    -0.375 C  
BRANCH  15  16
HETATM   16  C   UNL     1     -12.001  12.669  65.863  1.00  0.00    -0.438 C  
HETATM   17  N   UNL     1     -10.748  12.591  65.108  1.00  0.00    -0.283 NA 
HETATM   18  H2  UNL     1     -10.084  11.958  65.554  1.00  0.00     0.000 HD 
HETATM   19  H1  UNL     1     -10.913  12.335  64.135  1.00  0.00     0.000 HD 
ENDBRANCH  15  16
ENDBRANCH  14  15
ENDBRANCH  13  14
ENDBRANCH   7  13
BRANCH   8  20
HETATM   20  C   UNL     1      -7.930   6.872  66.143  1.00  0.00    -0.110 C  
HETATM   21  O   UNL     1      -8.652   6.054  65.590  1.00  0.00    -0.150 OA 
BRANCH  20  22
HETATM   22  O   UNL     1      -6.577   6.778  66.200  1.00  0.00    -0.048 OA 
HETATM   23  C   UNL     1      -5.947   6.916  64.922  1.00  0.00    -0.036 C  
ENDBRANCH  20  22
ENDBRANCH   8  20
BRANCH  11  24
HETATM   24  C   UNL     1      -8.859   6.889  69.049  1.00  0.00    -0.130 A  
HETATM   25  C   UNL     1     -10.233   6.559  68.968  1.00  0.00    -0.204 A  
HETATM   26  C   UNL     1     -10.743   5.417  69.589  1.00  0.00    -0.267 A  
HETATM   27  C   UNL     1      -9.893   4.578  70.297  1.00  0.00    -0.299 A  
HETATM   28  C   UNL     1      -8.530   4.870  70.368  1.00  0.00    -0.104 A  
HETATM   29  C   UNL     1      -8.013   6.012  69.745  1.00  0.00    -0.106 A  
HETATM   30 CL   UNL     1      -6.310   6.270  69.867  1.00  0.00    -0.034 Cl 
ENDBRANCH  11  24
ENDBRANCH   4   6
ENDBRANCH   3   4
ENDBRANCH   2   3
TORSDOF 10
ENDMDL
MODEL      108
REMARK 921   NORMALIZED FREE ENERGY PREDICTED BY IDOCK:   -3.61 KCAL/MOL
REMARK 922        TOTAL FREE ENERGY PREDICTED BY IDOCK:   -7.45 KCAL/MOL
REMARK 923 INTER-LIGAND FREE ENERGY PREDICTED BY IDOCK:   -5.75 KCAL/MOL
REMARK 924 INTRA-LIGAND FREE ENERGY PREDICTED BY IDOCK:   -1.70 KCAL/MOL
REMARK 927      BINDING AFFINITY PREDICTED BY RF-SCORE:    0.00 PKD
ROOT
HETATM    1  C   UNL     1      -7.733   6.277  70.689  1.00  0.00    -0.105 C  
HETATM    2  C   UNL     1      -7.453   6.055  69.216  1.00  0.00    -0.089 C  
ENDROOT
BRANCH   2   3
HETATM    3  O   UNL     1      -7.693   7.311  68.590  1.00  0.00    -0.114 OA 
BRANCH   3   4
HETATM    4  C   UNL     1      -8.832   7.493  67.884  1.00  0.00    -0.126 C  
HETATM    5  O   UNL     1      -9.326   6.700  67.100  1.00  0.00    -0.128 OA 
BRANCH   4   6
HETATM    6  C   UNL     1      -9.495   8.734  68.382  1.00  0.00    -0.148 C  
HETATM    7  C   UNL     1     -10.539   8.696  69.249  1.00  0.00    -0.192 C  
HETATM    8  C   UNL     1      -9.809  11.288  68.281  1.00  0.00    -0.201 C  
HETATM    9  N   UNL     1     -11.151   9.876  69.635  1.00  0.00    -0.247 NA 
HETATM   10  C   UNL     1     -10.861  11.126  69.123  1.00  0.00    -0.238 C  
HETATM   11  C   UNL     1      -8.950  10.076  67.863  1.00  0.00    -0.131 C  
HETATM   12  C   UNL     1     -11.793  12.228  69.565  1.00  0.00    -0.380 C  
BRANCH   7  13
HETATM   13  C   UNL     1     -11.082   7.438  69.922  1.00  0.00    -0.190 C  
BRANCH  13  14
HETATM   14  O   UNL     1     -12.078   7.735  70.903  1.00  0.00    -0.274 OA 
BRANCH  14  15
HETATM   15  C   UNL     1     -11.865   7.030  72.130  1.00  0.00    -0.275 C  
BRANCH  15  16
HETATM   16  C   UNL     1     -10.696   7.663  72.890  1.00  0.00    -0.371 C  
HETATM   17  N   UNL     1     -10.617   7.166  74.265  1.00  0.00    -0.518 NA 
HETATM   18  H2  UNL     1     -10.571   6.147  74.291  1.00  0.00     0.000 HD 
HETATM   19  H1  UNL     1      -9.838   7.587  74.771  1.00  0.00     0.000 HD 
ENDBRANCH  15  16
ENDBRANCH  14  15
ENDBRANCH  13  14
ENDBRANCH   7  13
BRANCH   8  20
HETATM   20  C   UNL     1      -9.528  12.636  67.716  1.00  0.00    -0.198 C  
HETATM   21  O   UNL     1     -10.171  13.160  66.817  1.00  0.00    -0.245 OA 
BRANCH  20  22
HETATM   22  O   UNL     1      -8.469  13.218  68.334  1.00  0.00    -0.165 OA 
HETATM   23  C   UNL     1      -8.671  14.608  68.609  1.00  0.00    -0.174 C  
ENDBRANCH  20  22
ENDBRANCH   8  20
BRANCH  11  24
HETATM   24  C   UNL     1      -8.635  10.055  66.355  1.00  0.00    -0.136 A  
HETATM   25  C   UNL     1      -9.726   9.927  65.462  1.00  0.00    -0.370 A  
HETATM   26  C   UNL     1      -9.529   9.862  64.081  1.00  0.00    -0.254 A  
HETATM   27  C   UNL     1      -8.242   9.929  63.563  1.00  0.00    -0.163 A  
HETATM   28  C   UNL     1      -7.155  10.081  64.424  1.00  0.00    -0.135 A  
HETATM   29  C   UNL     1      -7.346  10.151  65.809  1.00  0.00    -0.128 A  
HETATM   30 CL   UNL     1      -5.940  10.367  66.787  1.00  0.00    -0.059 Cl 
ENDBRANCH  11  24
ENDBRANCH   4   6
ENDBRANCH   3   4
ENDBRANCH   2   3
TORSDOF 10
ENDMDL
MODEL      109
REMARK 921   NORMALIZED FREE ENERGY PREDICTED BY IDOCK:   -3.60 KCAL/MOL
REMARK 922        TOTAL FREE ENERGY PREDICTED BY IDOCK:   -7.44 KCAL/MOL
REMARK 923 INTER-LIGAND FREE ENERGY PREDICTED BY IDOCK:   -5.52 KCAL/MOL
REMARK 924 INTRA-LIGAND FREE ENERGY PREDICTED BY IDOCK:   -1.92 KCAL/MOL
REMARK 927      BINDING AFFINITY PREDICTED BY RF-SCORE:    0.00 PKD
ROOT
HETATM    1  C   UNL     1      -6.923   8.854  69.980  1.00  0.00    -0.044 C  
HETATM    2  C   UNL     1      -7.691  10.160  70.015  1.00  0.00    -0.136 C  
ENDROOT
BRANCH   2   3
HETATM    3  O   UNL     1      -8.014  10.447  68.659  1.00  0.00    -0.102 OA 
BRANCH   3   4
HETATM    4  C   UNL     1      -9.219  10.074  68.170  1.00  0.00    -0.128 C  
HETATM    5  O   UNL     1     -10.207   9.801  68.830  1.00  0.00    -0.179 OA 
BRANCH   4   6
HETATM    6  C   UNL     1      -9.198  10.258  66.689  1.00  0.00    -0.179 C  
HETATM    7  C   UNL     1      -9.955  11.197  66.068  1.00  0.00    -0.236 C  
HETATM    8  C   UNL     1      -8.462   9.459  64.354  1.00  0.00    -0.196 C  
HETATM    9  N   UNL     1      -9.937  11.287  64.687  1.00  0.00    -0.262 NA 
HETATM   10  C   UNL     1      -9.282  10.411  63.842  1.00  0.00    -0.266 C  
HETATM   11  C   UNL     1      -8.280   9.325  65.881  1.00  0.00    -0.116 C  
HETATM   12  C   UNL     1      -9.569  10.608  62.373  1.00  0.00    -0.181 C  
BRANCH   7  13
HETATM   13  C   UNL     1     -10.803  12.253  66.772  1.00  0.00    -0.253 C  
BRANCH  13  14
HETATM   14  O   UNL     1     -10.761  13.516  66.102  1.00  0.00    -0.284 OA 
BRANCH  14  15
HETATM   15  C   UNL     1     -12.067  14.019  65.801  1.00  0.00    -0.427 C  
BRANCH  15  16
HETATM   16  C   UNL     1     -12.093  14.560  64.370  1.00  0.00    -0.472 C  
HETATM   17  N   UNL     1     -12.367  13.499  63.399  1.00  0.00    -0.963 NA 
HETATM   18  H2  UNL     1     -13.228  13.000  63.624  1.00  0.00     0.000 HD 
HETATM   19  H1  UNL     1     -12.384  13.859  62.445  1.00  0.00     0.000 HD 
ENDBRANCH  15  16
ENDBRANCH  14  15
ENDBRANCH  13  14
ENDBRANCH   7  13
BRANCH   8  20
HETATM   20  C   UNL     1      -7.786   8.506  63.432  1.00  0.00    -0.150 C  
HETATM   21  O   UNL     1      -8.307   7.499  62.971  1.00  0.00    -0.040 OA 
BRANCH  20  22
HETATM   22  O   UNL     1      -6.518   8.901  63.157  1.00  0.00    -0.090 OA 
HETATM   23  C   UNL     1      -5.578   7.822  63.152  1.00  0.00    -0.054 C  
ENDBRANCH  20  22
ENDBRANCH   8  20
BRANCH  11  24
HETATM   24  C   UNL     1      -8.332   7.862  66.365  1.00  0.00    -0.129 A  
HETATM   25  C   UNL     1      -9.596   7.226  66.384  1.00  0.00    -0.169 A  
HETATM   26  C   UNL     1      -9.741   5.915  66.843  1.00  0.00    -0.168 A  
HETATM   27  C   UNL     1      -8.628   5.211  67.285  1.00  0.00    -0.104 A  
HETATM   28  C   UNL     1      -7.369   5.810  67.251  1.00  0.00    -0.077 A  
HETATM   29  C   UNL     1      -7.217   7.123  66.788  1.00  0.00    -0.083 A  
HETATM   30 CL   UNL     1      -5.615   7.766  66.758  1.00  0.00    -0.028 Cl 
ENDBRANCH  11  24
ENDBRANCH   4   6
ENDBRANCH   3   4
ENDBRANCH   2   3
TORSDOF 10
ENDMDL
MODEL      110
REMARK 921   NORMALIZED FREE ENERGY PREDICTED BY IDOCK:   -3.60 KCAL/MOL
REMARK 922        TOTAL FREE ENERGY PREDICTED BY IDOCK:   -7.44 KCAL/MOL
REMARK 923 INTER-LIGAND FREE ENERGY PREDICTED BY IDOCK:   -5.43 KCAL/MOL
REMARK 924 INTRA-LIGAND FREE ENERGY PREDICTED BY IDOCK:   -2.01 KCAL/MOL
REMARK 927      BINDING AFFINITY PREDICTED BY RF-SCORE:    0.00 PKD
ROOT
HETATM    1  C   UNL     1     -14.051   7.937  71.641  1.00  0.00    -0.528 C  
HETATM    2  C   UNL     1     -12.834   7.035  71.687  1.00  0.00    -0.364 C  
ENDROOT
BRANCH   2   3
HETATM    3  O   UNL     1     -11.876   7.646  70.830  1.00  0.00    -0.279 OA 
BRANCH   3   4
HETATM    4  C   UNL     1     -11.090   6.868  70.050  1.00  0.00    -0.299 C  
HETATM    5  O   UNL     1     -11.476   6.067  69.216  1.00  0.00    -0.345 OA 
BRANCH   4   6
HETATM    6  C   UNL     1      -9.675   7.305  70.232  1.00  0.00    -0.175 C  
HETATM    7  C   UNL     1      -8.997   7.974  69.265  1.00  0.00    -0.148 C  
HETATM    8  C   UNL     1      -7.492   7.280  71.596  1.00  0.00    -0.085 C  
HETATM    9  N   UNL     1      -7.669   8.307  69.466  1.00  0.00    -0.099 NA 
HETATM   10  C   UNL     1      -6.907   7.916  70.551  1.00  0.00    -0.041 C  
HETATM   11  C   UNL     1      -9.001   6.957  71.570  1.00  0.00    -0.140 C  
HETATM   12  C   UNL     1      -5.438   8.244  70.449  1.00  0.00    -0.022 C  
BRANCH   7  13
HETATM   13  C   UNL     1      -9.597   8.478  67.955  1.00  0.00    -0.152 C  
BRANCH  13  14
HETATM   14  O   UNL     1      -9.842   9.887  67.978  1.00  0.00    -0.143 OA 
BRANCH  14  15
HETATM   15  C   UNL     1     -11.217  10.198  68.228  1.00  0.00    -0.183 C  
BRANCH  15  16
HETATM   16  C   UNL     1     -11.355  10.851  69.605  1.00  0.00    -0.292 C  
HETATM   17  N   UNL     1     -12.665  10.580  70.200  1.00  0.00    -0.508 NA 
HETATM   18  H2  UNL     1     -12.856   9.578  70.241  1.00  0.00     0.000 HD 
HETATM   19  H1  UNL     1     -12.757  11.014  71.118  1.00  0.00     0.000 HD 
ENDBRANCH  15  16
ENDBRANCH  14  15
ENDBRANCH  13  14
ENDBRANCH   7  13
BRANCH   8  20
HETATM   20  C   UNL     1      -6.652   6.840  72.745  1.00  0.00    -0.066 C  
HETATM   21  O   UNL     1      -5.884   5.889  72.719  1.00  0.00    -0.034 OA 
BRANCH  20  22
HETATM   22  O   UNL     1      -6.839   7.639  73.826  1.00  0.00    -0.080 OA 
HETATM   23  C   UNL     1      -5.656   8.344  74.218  1.00  0.00    -0.100 C  
ENDBRANCH  20  22
ENDBRANCH   8  20
BRANCH  11  24
HETATM   24  C   UNL     1      -9.317   5.527  72.050  1.00  0.00    -0.164 A  
HETATM   25  C   UNL     1      -8.928   4.456  71.211  1.00  0.00    -0.166 A  
HETATM   26  C   UNL     1      -9.208   3.130  71.549  1.00  0.00    -0.188 A  
HETATM   27  C   UNL     1      -9.876   2.847  72.733  1.00  0.00    -0.197 A  
HETATM   28  C   UNL     1     -10.247   3.886  73.587  1.00  0.00    -0.213 A  
HETATM   29  C   UNL     1      -9.966   5.216  73.255  1.00  0.00    -0.160 A  
HETATM   30 CL   UNL     1     -10.440   6.428  74.390  1.00  0.00    -0.257 Cl 
ENDBRANCH  11  24
ENDBRANCH   4   6
ENDBRANCH   3   4
ENDBRANCH   2   3
TORSDOF 10
ENDMDL
MODEL      111
REMARK 921   NORMALIZED FREE ENERGY PREDICTED BY IDOCK:   -3.55 KCAL/MOL
REMARK 922        TOTAL FREE ENERGY PREDICTED BY IDOCK:   -7.35 KCAL/MOL
REMARK 923 INTER-LIGAND FREE ENERGY PREDICTED BY IDOCK:   -5.93 KCAL/MOL
REMARK 924 INTRA-LIGAND FREE ENERGY PREDICTED BY IDOCK:   -1.42 KCAL/MOL
REMARK 927      BINDING AFFINITY PREDICTED BY RF-SCORE:    0.00 PKD
ROOT
HETATM    1  C   UNL     1     -12.425   9.291  71.774  1.00  0.00    -0.458 C  
HETATM    2  C   UNL     1     -11.279   8.348  71.467  1.00  0.00    -0.267 C  
ENDROOT
BRANCH   2   3
HETATM    3  O   UNL     1     -10.843   8.693  70.157  1.00  0.00    -0.234 OA 
BRANCH   3   4
HETATM    4  C   UNL     1      -9.819   9.563  70.005  1.00  0.00    -0.233 C  
HETATM    5  O   UNL     1      -8.942   9.788  70.823  1.00  0.00    -0.149 OA 
BRANCH   4   6
HETATM    6  C   UNL     1      -9.819  10.043  68.593  1.00  0.00    -0.168 C  
HETATM    7  C   UNL     1     -10.787  10.863  68.110  1.00  0.00    -0.234 C  
HETATM    8  C   UNL     1      -8.855   9.952  66.207  1.00  0.00    -0.160 C  
HETATM    9  N   UNL     1     -10.769  11.232  66.776  1.00  0.00    -0.264 NA 
HETATM   10  C   UNL     1      -9.889  10.745  65.829  1.00  0.00    -0.240 C  
HETATM   11  C   UNL     1      -8.672   9.561  67.689  1.00  0.00    -0.122 C  
HETATM   12  C   UNL     1     -10.190  11.156  64.408  1.00  0.00    -0.390 C  
BRANCH   7  13
HETATM   13  C   UNL     1     -11.899  11.499  68.940  1.00  0.00    -0.341 C  
BRANCH  13  14
HETATM   14  O   UNL     1     -11.471  12.699  69.589  1.00  0.00    -0.250 OA 
BRANCH  14  15
HETATM   15  C   UNL     1     -11.839  13.876  68.861  1.00  0.00    -0.358 C  
BRANCH  15  16
HETATM   16  C   UNL     1     -10.594  14.722  68.587  1.00  0.00    -0.255 C  
HETATM   17  N   UNL     1     -10.880  16.154  68.702  1.00  0.00    -0.292 NA 
HETATM   18  H2  UNL     1     -11.293  16.380  69.607  1.00  0.00     0.000 HD 
HETATM   19  H1  UNL     1     -10.050  16.718  68.520  1.00  0.00     0.000 HD 
ENDBRANCH  15  16
ENDBRANCH  14  15
ENDBRANCH  13  14
ENDBRANCH   7  13
BRANCH   8  20
HETATM   20  C   UNL     1      -7.932   9.412  65.171  1.00  0.00    -0.116 C  
HETATM   21  O   UNL     1      -6.873   9.931  64.846  1.00  0.00    -0.114 OA 
BRANCH  20  22
HETATM   22  O   UNL     1      -8.411   8.260  64.637  1.00  0.00    -0.159 OA 
HETATM   23  C   UNL     1      -8.156   8.138  63.234  1.00  0.00    -0.121 C  
ENDBRANCH  20  22
ENDBRANCH   8  20
BRANCH  11  24
HETATM   24  C   UNL     1      -8.342   8.068  67.879  1.00  0.00    -0.129 A  
HETATM   25  C   UNL     1      -7.063   7.742  68.389  1.00  0.00    -0.077 A  
HETATM   26  C   UNL     1      -6.666   6.413  68.558  1.00  0.00    -0.068 A  
HETATM   27  C   UNL     1      -7.539   5.385  68.227  1.00  0.00    -0.081 A  
HETATM   28  C   UNL     1      -8.814   5.684  67.747  1.00  0.00    -0.105 A  
HETATM   29  C   UNL     1      -9.219   7.014  67.579  1.00  0.00    -0.124 A  
HETATM   30 CL   UNL     1     -10.825   7.280  67.005  1.00  0.00    -0.424 Cl 
ENDBRANCH  11  24
ENDBRANCH   4   6
ENDBRANCH   3   4
ENDBRANCH   2   3
TORSDOF 10
ENDMDL
MODEL      112
REMARK 921   NORMALIZED FREE ENERGY PREDICTED BY IDOCK:   -3.54 KCAL/MOL
REMARK 922        TOTAL FREE ENERGY PREDICTED BY IDOCK:   -7.35 KCAL/MOL
REMARK 923 INTER-LIGAND FREE ENERGY PREDICTED BY IDOCK:   -6.03 KCAL/MOL
REMARK 924 INTRA-LIGAND FREE ENERGY PREDICTED BY IDOCK:   -1.32 KCAL/MOL
REMARK 927      BINDING AFFINITY PREDICTED BY RF-SCORE:    0.00 PKD
ROOT
HETATM    1  C   UNL     1     -12.252  14.611  70.671  1.00  0.00    -0.394 C  
HETATM    2  C   UNL     1     -12.596  13.136  70.694  1.00  0.00    -0.211 C  
ENDROOT
BRANCH   2   3
HETATM    3  O   UNL     1     -11.444  12.469  70.190  1.00  0.00    -0.130 OA 
BRANCH   3   4
HETATM    4  C   UNL     1     -11.599  11.421  69.348  1.00  0.00    -0.323 C  
HETATM    5  O   UNL     1     -12.660  10.984  68.934  1.00  0.00    -0.366 OA 
BRANCH   4   6
HETATM    6  C   UNL     1     -10.252  11.025  68.844  1.00  0.00    -0.218 C  
HETATM    7  C   UNL     1      -9.759  11.484  67.665  1.00  0.00    -0.174 C  
HETATM    8  C   UNL     1      -8.142   9.561  69.034  1.00  0.00    -0.101 C  
HETATM    9  N   UNL     1      -8.525  11.040  67.220  1.00  0.00    -0.128 NA 
HETATM   10  C   UNL     1      -7.767  10.060  67.829  1.00  0.00    -0.090 C  
HETATM   11  C   UNL     1      -9.433  10.059  69.717  1.00  0.00    -0.239 C  
HETATM   12  C   UNL     1      -6.551   9.618  67.051  1.00  0.00    -0.067 C  
BRANCH   7  13
HETATM   13  C   UNL     1     -10.424  12.535  66.780  1.00  0.00    -0.225 C  
BRANCH  13  14
HETATM   14  O   UNL     1     -10.343  13.847  67.343  1.00  0.00    -0.249 OA 
BRANCH  14  15
HETATM   15  C   UNL     1      -9.058  14.119  67.913  1.00  0.00    -0.189 C  
BRANCH  15  16
HETATM   16  C   UNL     1      -9.213  15.074  69.099  1.00  0.00    -0.183 C  
HETATM   17  N   UNL     1      -8.135  14.899  70.074  1.00  0.00    -0.320 NA 
HETATM   18  H2  UNL     1      -7.218  14.993  69.637  1.00  0.00     0.000 HD 
HETATM   19  H1  UNL     1      -8.238  15.535  70.865  1.00  0.00     0.000 HD 
ENDBRANCH  15  16
ENDBRANCH  14  15
ENDBRANCH  13  14
ENDBRANCH   7  13
BRANCH   8  20
HETATM   20  C   UNL     1      -7.330   8.484  69.663  1.00  0.00    -0.060 C  
HETATM   21  O   UNL     1      -7.323   7.317  69.299  1.00  0.00    -0.082 OA 
BRANCH  20  22
HETATM   22  O   UNL     1      -6.584   8.966  70.690  1.00  0.00    -0.040 OA 
HETATM   23  C   UNL     1      -5.886   7.943  71.410  1.00  0.00    -0.034 C  
ENDBRANCH  20  22
ENDBRANCH   8  20
BRANCH  11  24
HETATM   24  C   UNL     1     -10.281   8.914  70.305  1.00  0.00    -0.230 A  
HETATM   25  C   UNL     1     -10.555   8.951  71.692  1.00  0.00    -0.422 A  
HETATM   26  C   UNL     1     -11.284   7.936  72.316  1.00  0.00    -0.389 A  
HETATM   27  C   UNL     1     -11.759   6.868  71.566  1.00  0.00    -0.351 A  
HETATM   28  C   UNL     1     -11.522   6.824  70.192  1.00  0.00    -0.404 A  
HETATM   29  C   UNL     1     -10.796   7.841  69.562  1.00  0.00    -0.153 A  
HETATM   30 CL   UNL     1     -10.580   7.710  67.853  1.00  0.00    -0.259 Cl 
ENDBRANCH  11  24
ENDBRANCH   4   6
ENDBRANCH   3   4
ENDBRANCH   2   3
TORSDOF 10
ENDMDL
MODEL      113
REMARK 921   NORMALIZED FREE ENERGY PREDICTED BY IDOCK:   -3.54 KCAL/MOL
REMARK 922        TOTAL FREE ENERGY PREDICTED BY IDOCK:   -7.34 KCAL/MOL
REMARK 923 INTER-LIGAND FREE ENERGY PREDICTED BY IDOCK:   -6.45 KCAL/MOL
REMARK 924 INTRA-LIGAND FREE ENERGY PREDICTED BY IDOCK:   -0.90 KCAL/MOL
REMARK 927      BINDING AFFINITY PREDICTED BY RF-SCORE:    0.00 PKD
ROOT
HETATM    1  C   UNL     1      -7.521  13.366  67.907  1.00  0.00    -0.149 C  
HETATM    2  C   UNL     1      -9.005  13.645  67.769  1.00  0.00    -0.196 C  
ENDROOT
BRANCH   2   3
HETATM    3  O   UNL     1      -9.656  12.590  68.470  1.00  0.00    -0.194 OA 
BRANCH   3   4
HETATM    4  C   UNL     1     -10.828  12.105  67.999  1.00  0.00    -0.222 C  
HETATM    5  O   UNL     1     -11.532  12.628  67.151  1.00  0.00    -0.305 OA 
BRANCH   4   6
HETATM    6  C   UNL     1     -11.009  10.724  68.534  1.00  0.00    -0.291 C  
HETATM    7  C   UNL     1     -11.522  10.490  69.768  1.00  0.00    -0.294 C  
HETATM    8  C   UNL     1     -10.628   8.186  68.328  1.00  0.00    -0.153 C  
HETATM    9  N   UNL     1     -11.616   9.190  70.235  1.00  0.00    -0.156 NA 
HETATM   10  C   UNL     1     -11.123   8.075  69.585  1.00  0.00    -0.015 C  
HETATM   11  C   UNL     1     -10.579   9.559  67.626  1.00  0.00    -0.329 C  
HETATM   12  C   UNL     1     -11.180   6.795  70.384  1.00  0.00    -0.378 C  
BRANCH   7  13
HETATM   13  C   UNL     1     -12.093  11.554  70.703  1.00  0.00    -0.353 C  
BRANCH  13  14
HETATM   14  O   UNL     1     -12.314  12.798  70.035  1.00  0.00    -0.223 OA 
BRANCH  14  15
HETATM   15  C   UNL     1     -12.357  13.905  70.942  1.00  0.00    -0.377 C  
BRANCH  15  16
HETATM   16  C   UNL     1     -12.609  15.199  70.163  1.00  0.00    -0.279 C  
HETATM   17  N   UNL     1     -12.320  15.032  68.737  1.00  0.00    -0.598 NA 
HETATM   18  H2  UNL     1     -12.841  14.250  68.340  1.00  0.00     0.000 HD 
HETATM   19  H1  UNL     1     -12.488  15.894  68.218  1.00  0.00     0.000 HD 
ENDBRANCH  15  16
ENDBRANCH  14  15
ENDBRANCH  13  14
ENDBRANCH   7  13
BRANCH   8  20
HETATM   20  C   UNL     1     -10.074   6.980  67.653  1.00  0.00    -0.172 C  
HETATM   21  O   UNL     1      -8.979   6.490  67.895  1.00  0.00    -0.118 OA 
BRANCH  20  22
HETATM   22  O   UNL     1     -10.945   6.482  66.739  1.00  0.00    -0.354 OA 
HETATM   23  C   UNL     1     -10.656   5.133  66.359  1.00  0.00    -0.276 C  
ENDBRANCH  20  22
ENDBRANCH   8  20
BRANCH  11  24
HETATM   24  C   UNL     1      -9.241   9.819  66.906  1.00  0.00    -0.174 A  
HETATM   25  C   UNL     1      -8.052   9.598  67.640  1.00  0.00    -0.113 A  
HETATM   26  C   UNL     1      -6.797   9.843  67.079  1.00  0.00    -0.083 A  
HETATM   27  C   UNL     1      -6.703  10.308  65.774  1.00  0.00    -0.120 A  
HETATM   28  C   UNL     1      -7.862  10.509  65.023  1.00  0.00    -0.055 A  
HETATM   29  C   UNL     1      -9.122  10.261  65.580  1.00  0.00    -0.176 A  
HETATM   30 CL   UNL     1     -10.494  10.513  64.561  1.00  0.00    -0.294 Cl 
ENDBRANCH  11  24
ENDBRANCH   4   6
ENDBRANCH   3   4
ENDBRANCH   2   3
TORSDOF 10
ENDMDL
MODEL      114
REMARK 921   NORMALIZED FREE ENERGY PREDICTED BY IDOCK:   -3.53 KCAL/MOL
REMARK 922        TOTAL FREE ENERGY PREDICTED BY IDOCK:   -7.34 KCAL/MOL
REMARK 923 INTER-LIGAND FREE ENERGY PREDICTED BY IDOCK:   -5.60 KCAL/MOL
REMARK 924 INTRA-LIGAND FREE ENERGY PREDICTED BY IDOCK:   -1.74 KCAL/MOL
REMARK 927      BINDING AFFINITY PREDICTED BY RF-SCORE:    0.00 PKD
ROOT
HETATM    1  C   UNL     1      -5.622   9.644  66.393  1.00  0.00    -0.052 C  
HETATM    2  C   UNL     1      -6.851  10.529  66.328  1.00  0.00    -0.127 C  
ENDROOT
BRANCH   2   3
HETATM    3  O   UNL     1      -7.722  10.045  67.344  1.00  0.00    -0.095 OA 
BRANCH   3   4
HETATM    4  C   UNL     1      -7.747  10.663  68.547  1.00  0.00    -0.107 C  
HETATM    5  O   UNL     1      -7.147  11.683  68.842  1.00  0.00    -0.102 OA 
BRANCH   4   6
HETATM    6  C   UNL     1      -8.793  10.009  69.385  1.00  0.00    -0.200 C  
HETATM    7  C   UNL     1      -8.647   8.749  69.870  1.00  0.00    -0.133 C  
HETATM    8  C   UNL     1     -11.165  10.004  70.389  1.00  0.00    -0.393 C  
HETATM    9  N   UNL     1      -9.674   8.171  70.596  1.00  0.00    -0.170 NA 
HETATM   10  C   UNL     1     -10.921   8.732  70.793  1.00  0.00    -0.247 C  
HETATM   11  C   UNL     1     -10.066  10.822  69.678  1.00  0.00    -0.053 C  
HETATM   12  C   UNL     1     -11.929   7.827  71.457  1.00  0.00    -0.329 C  
BRANCH   7  13
HETATM   13  C   UNL     1      -7.385   7.899  69.748  1.00  0.00    -0.078 C  
BRANCH  13  14
HETATM   14  O   UNL     1      -7.678   6.539  69.419  1.00  0.00    -0.097 OA 
BRANCH  14  15
HETATM   15  C   UNL     1      -8.183   6.395  68.087  1.00  0.00    -0.116 C  
BRANCH  15  16
HETATM   16  C   UNL     1      -9.260   5.308  68.059  1.00  0.00    -0.113 C  
HETATM   17  N   UNL     1     -10.570   5.839  68.441  1.00  0.00    -0.226 NA 
HETATM   18  H2  UNL     1     -10.832   6.638  67.863  1.00  0.00     0.000 HD 
HETATM   19  H1  UNL     1     -11.288   5.115  68.423  1.00  0.00     0.000 HD 
ENDBRANCH  15  16
ENDBRANCH  14  15
ENDBRANCH  13  14
ENDBRANCH   7  13
BRANCH   8  20
HETATM   20  C   UNL     1     -12.522  10.584  70.583  1.00  0.00    -0.366 C  
HETATM   21  O   UNL     1     -13.399  10.598  69.730  1.00  0.00     0.090 OA 
BRANCH  20  22
HETATM   22  O   UNL     1     -12.669  11.087  71.835  1.00  0.00    -0.355 OA 
HETATM   23  C   UNL     1     -13.110  12.449  71.848  1.00  0.00    -0.366 C  
ENDBRANCH  20  22
ENDBRANCH   8  20
BRANCH  11  24
HETATM   24  C   UNL     1     -10.589  11.586  68.446  1.00  0.00    -0.227 A  
HETATM   25  C   UNL     1     -10.662  12.996  68.536  1.00  0.00    -0.275 A  
HETATM   26  C   UNL     1     -11.159  13.765  67.481  1.00  0.00    -0.295 A  
HETATM   27  C   UNL     1     -11.586  13.143  66.315  1.00  0.00    -0.399 A  
HETATM   28  C   UNL     1     -11.498  11.756  66.195  1.00  0.00    -0.288 A  
HETATM   29  C   UNL     1     -10.998  10.981  67.248  1.00  0.00    -0.297 A  
HETATM   30 CL   UNL     1     -10.904   9.276  66.992  1.00  0.00    -0.185 Cl 
ENDBRANCH  11  24
ENDBRANCH   4   6
ENDBRANCH   3   4
ENDBRANCH   2   3
TORSDOF 10
ENDMDL
MODEL      115
REMARK 921   NORMALIZED FREE ENERGY PREDICTED BY IDOCK:   -3.53 KCAL/MOL
REMARK 922        TOTAL FREE ENERGY PREDICTED BY IDOCK:   -7.34 KCAL/MOL
REMARK 923 INTER-LIGAND FREE ENERGY PREDICTED BY IDOCK:   -5.51 KCAL/MOL
REMARK 924 INTRA-LIGAND FREE ENERGY PREDICTED BY IDOCK:   -1.83 KCAL/MOL
REMARK 927      BINDING AFFINITY PREDICTED BY RF-SCORE:    0.00 PKD
ROOT
HETATM    1  C   UNL     1      -9.604   9.993  68.095  1.00  0.00    -0.152 C  
HETATM    2  C   UNL     1      -9.113   9.154  66.933  1.00  0.00    -0.135 C  
ENDROOT
BRANCH   2   3
HETATM    3  O   UNL     1      -9.078   7.817  67.419  1.00  0.00    -0.125 OA 
BRANCH   3   4
HETATM    4  C   UNL     1      -7.904   7.297  67.848  1.00  0.00    -0.118 C  
HETATM    5  O   UNL     1      -6.854   7.904  67.974  1.00  0.00    -0.068 OA 
BRANCH   4   6
HETATM    6  C   UNL     1      -8.160   5.913  68.341  1.00  0.00    -0.109 C  
HETATM    7  C   UNL     1      -8.293   4.858  67.497  1.00  0.00    -0.105 C  
HETATM    8  C   UNL     1      -8.726   4.301  70.269  1.00  0.00    -0.118 C  
HETATM    9  N   UNL     1      -8.584   3.605  68.006  1.00  0.00    -0.094 NA 
HETATM   10  C   UNL     1      -8.869   3.332  69.330  1.00  0.00    -0.095 C  
HETATM   11  C   UNL     1      -8.278   5.722  69.863  1.00  0.00    -0.115 C  
HETATM   12  C   UNL     1      -9.340   1.925  69.605  1.00  0.00    -0.158 C  
BRANCH   7  13
HETATM   13  C   UNL     1      -8.075   4.906  65.986  1.00  0.00    -0.108 C  
BRANCH  13  14
HETATM   14  O   UNL     1      -8.749   3.843  65.308  1.00  0.00    -0.112 OA 
BRANCH  14  15
HETATM   15  C   UNL     1      -9.185   4.220  63.998  1.00  0.00    -0.148 C  
BRANCH  15  16
HETATM   16  C   UNL     1     -10.654   3.832  63.813  1.00  0.00    -0.256 C  
HETATM   17  N   UNL     1     -11.506   4.455  64.827  1.00  0.00    -1.021 NA 
HETATM   18  H2  UNL     1     -11.387   5.468  64.844  1.00  0.00     0.000 HD 
HETATM   19  H1  UNL     1     -12.485   4.197  64.704  1.00  0.00     0.000 HD 
ENDBRANCH  15  16
ENDBRANCH  14  15
ENDBRANCH  13  14
ENDBRANCH   7  13
BRANCH   8  20
HETATM   20  C   UNL     1      -9.064   4.000  71.687  1.00  0.00    -0.123 C  
HETATM   21  O   UNL     1      -8.240   3.806  72.571  1.00  0.00    -0.086 OA 
BRANCH  20  22
HETATM   22  O   UNL     1     -10.407   3.978  71.880  1.00  0.00    -0.133 OA 
HETATM   23  C   UNL     1     -10.815   4.637  73.083  1.00  0.00    -0.264 C  
ENDBRANCH  20  22
ENDBRANCH   8  20
BRANCH  11  24
HETATM   24  C   UNL     1      -9.103   6.829  70.547  1.00  0.00    -0.156 A  
HETATM   25  C   UNL     1      -8.423   7.697  71.433  1.00  0.00    -0.121 A  
HETATM   26  C   UNL     1      -9.099   8.705  72.124  1.00  0.00    -0.301 A  
HETATM   27  C   UNL     1     -10.466   8.871  71.939  1.00  0.00    -0.415 A  
HETATM   28  C   UNL     1     -11.152   8.043  71.051  1.00  0.00    -0.275 A  
HETATM   29  C   UNL     1     -10.478   7.034  70.353  1.00  0.00    -0.206 A  
HETATM   30 CL   UNL     1     -11.410   6.081  69.255  1.00  0.00    -0.394 Cl 
ENDBRANCH  11  24
ENDBRANCH   4   6
ENDBRANCH   3   4
ENDBRANCH   2   3
TORSDOF 10
ENDMDL
MODEL      116
REMARK 921   NORMALIZED FREE ENERGY PREDICTED BY IDOCK:   -3.51 KCAL/MOL
REMARK 922        TOTAL FREE ENERGY PREDICTED BY IDOCK:   -7.30 KCAL/MOL
REMARK 923 INTER-LIGAND FREE ENERGY PREDICTED BY IDOCK:   -5.35 KCAL/MOL
REMARK 924 INTRA-LIGAND FREE ENERGY PREDICTED BY IDOCK:   -1.95 KCAL/MOL
REMARK 927      BINDING AFFINITY PREDICTED BY RF-SCORE:    0.00 PKD
ROOT
HETATM    1  C   UNL     1      -8.486   9.754  64.163  1.00  0.00    -0.182 C  
HETATM    2  C   UNL     1      -7.363   8.830  64.592  1.00  0.00    -0.098 C  
ENDROOT
BRANCH   2   3
HETATM    3  O   UNL     1      -7.860   8.129  65.726  1.00  0.00    -0.088 OA 
BRANCH   3   4
HETATM    4  C   UNL     1      -7.167   8.170  66.888  1.00  0.00    -0.083 C  
HETATM    5  O   UNL     1      -6.145   8.804  67.091  1.00  0.00    -0.053 OA 
BRANCH   4   6
HETATM    6  C   UNL     1      -7.974   7.481  67.937  1.00  0.00    -0.119 C  
HETATM    7  C   UNL     1      -8.162   6.137  67.936  1.00  0.00    -0.117 C  
HETATM    8  C   UNL     1      -9.565   7.594  69.958  1.00  0.00    -0.164 C  
HETATM    9  N   UNL     1      -8.965   5.557  68.902  1.00  0.00    -0.113 NA 
HETATM   10  C   UNL     1      -9.708   6.251  69.839  1.00  0.00    -0.166 C  
HETATM   11  C   UNL     1      -8.601   8.363  69.030  1.00  0.00    -0.131 C  
HETATM   12  C   UNL     1     -10.649   5.404  70.660  1.00  0.00    -0.302 C  
BRANCH   7  13
HETATM   13  C   UNL     1      -7.493   5.153  66.979  1.00  0.00    -0.087 C  
BRANCH  13  14
HETATM   14  O   UNL     1      -8.423   4.223  66.419  1.00  0.00    -0.111 OA 
BRANCH  14  15
HETATM   15  C   UNL     1      -9.217   4.804  65.379  1.00  0.00    -0.155 C  
BRANCH  15  16
HETATM   16  C   UNL     1     -10.702   4.658  65.722  1.00  0.00    -0.149 C  
HETATM   17  N   UNL     1     -11.201   5.823  66.455  1.00  0.00    -0.717 NA 
HETATM   18  H2  UNL     1     -11.018   6.690  65.947  1.00  0.00     0.000 HD 
HETATM   19  H1  UNL     1     -12.190   5.727  66.684  1.00  0.00     0.000 HD 
ENDBRANCH  15  16
ENDBRANCH  14  15
ENDBRANCH  13  14
ENDBRANCH   7  13
BRANCH   8  20
HETATM   20  C   UNL     1     -10.393   8.331  70.952  1.00  0.00    -0.192 C  
HETATM   21  O   UNL     1      -9.954   8.863  71.963  1.00  0.00    -0.329 OA 
BRANCH  20  22
HETATM   22  O   UNL     1     -11.701   8.349  70.589  1.00  0.00    -0.254 OA 
HETATM   23  C   UNL     1     -12.594   8.488  71.699  1.00  0.00    -0.333 C  
ENDBRANCH  20  22
ENDBRANCH   8  20
BRANCH  11  24
HETATM   24  C   UNL     1      -9.211   9.665  68.476  1.00  0.00    -0.137 A  
HETATM   25  C   UNL     1     -10.398   9.557  67.714  1.00  0.00    -0.291 A  
HETATM   26  C   UNL     1     -10.998  10.681  67.142  1.00  0.00    -0.312 A  
HETATM   27  C   UNL     1     -10.430  11.935  67.326  1.00  0.00    -0.248 A  
HETATM   28  C   UNL     1      -9.274  12.068  68.095  1.00  0.00    -0.195 A  
HETATM   29  C   UNL     1      -8.670  10.945  68.673  1.00  0.00    -0.154 A  
HETATM   30 CL   UNL     1      -7.260  11.217  69.631  1.00  0.00    -0.073 Cl 
ENDBRANCH  11  24
ENDBRANCH   4   6
ENDBRANCH   3   4
ENDBRANCH   2   3
TORSDOF 10
ENDMDL
MODEL      117
REMARK 921   NORMALIZED FREE ENERGY PREDICTED BY IDOCK:   -3.50 KCAL/MOL
REMARK 922        TOTAL FREE ENERGY PREDICTED BY IDOCK:   -7.28 KCAL/MOL
REMARK 923 INTER-LIGAND FREE ENERGY PREDICTED BY IDOCK:   -5.90 KCAL/MOL
REMARK 924 INTRA-LIGAND FREE ENERGY PREDICTED BY IDOCK:   -1.38 KCAL/MOL
REMARK 927      BINDING AFFINITY PREDICTED BY RF-SCORE:    0.00 PKD
ROOT
HETATM    1  C   UNL     1      -8.711   4.650  68.731  1.00  0.00    -0.113 C  
HETATM    2  C   UNL     1      -7.606   5.637  69.050  1.00  0.00    -0.088 C  
ENDROOT
BRANCH   2   3
HETATM    3  O   UNL     1      -8.151   6.921  68.767  1.00  0.00    -0.118 OA 
BRANCH   3   4
HETATM    4  C   UNL     1      -7.827   7.968  69.560  1.00  0.00    -0.105 C  
HETATM    5  O   UNL     1      -6.701   8.390  69.767  1.00  0.00    -0.039 OA 
BRANCH   4   6
HETATM    6  C   UNL     1      -9.089   8.651  69.969  1.00  0.00    -0.157 C  
HETATM    7  C   UNL     1      -9.940   8.111  70.878  1.00  0.00    -0.187 C  
HETATM    8  C   UNL     1     -10.804  10.545  69.648  1.00  0.00    -0.320 C  
HETATM    9  N   UNL     1     -11.123   8.762  71.179  1.00  0.00    -0.258 NA 
HETATM   10  C   UNL     1     -11.590   9.896  70.543  1.00  0.00    -0.309 C  
HETATM   11  C   UNL     1      -9.399  10.005  69.308  1.00  0.00    -0.224 C  
HETATM   12  C   UNL     1     -12.993  10.306  70.920  1.00  0.00    -0.456 C  
BRANCH   7  13
HETATM   13  C   UNL     1      -9.678   6.841  71.685  1.00  0.00    -0.162 C  
BRANCH  13  14
HETATM   14  O   UNL     1      -9.977   7.011  73.073  1.00  0.00    -0.170 OA 
BRANCH  14  15
HETATM   15  C   UNL     1      -8.973   7.764  73.761  1.00  0.00    -0.277 C  
BRANCH  15  16
HETATM   16  C   UNL     1      -7.585   7.308  73.304  1.00  0.00    -0.082 C  
HETATM   17  N   UNL     1      -6.702   7.051  74.444  1.00  0.00    -0.086 NA 
HETATM   18  H2  UNL     1      -7.118   6.386  75.096  1.00  0.00     0.000 HD 
HETATM   19  H1  UNL     1      -5.777   6.747  74.140  1.00  0.00     0.000 HD 
ENDBRANCH  15  16
ENDBRANCH  14  15
ENDBRANCH  13  14
ENDBRANCH   7  13
BRANCH   8  20
HETATM   20  C   UNL     1     -11.333  11.749  68.950  1.00  0.00    -0.267 C  
HETATM   21  O   UNL     1     -11.152  12.901  69.321  1.00  0.00    -0.218 OA 
BRANCH  20  22
HETATM   22  O   UNL     1     -12.034  11.407  67.839  1.00  0.00    -0.626 OA 
HETATM   23  C   UNL     1     -11.786  12.273  66.727  1.00  0.00    -0.342 C  
ENDBRANCH  20  22
ENDBRANCH   8  20
BRANCH  11  24
HETATM   24  C   UNL     1      -9.101  10.019  67.796  1.00  0.00    -0.137 A  
HETATM   25  C   UNL     1      -8.161  10.965  67.325  1.00  0.00    -0.123 A  
HETATM   26  C   UNL     1      -7.858  11.073  65.966  1.00  0.00    -0.077 A  
HETATM   27  C   UNL     1      -8.482  10.235  65.051  1.00  0.00    -0.177 A  
HETATM   28  C   UNL     1      -9.393   9.277  65.496  1.00  0.00    -0.303 A  
HETATM   29  C   UNL     1      -9.697   9.162  66.858  1.00  0.00    -0.194 A  
HETATM   30 CL   UNL     1     -10.816   7.927  67.312  1.00  0.00    -0.285 Cl 
ENDBRANCH  11  24
ENDBRANCH   4   6
ENDBRANCH   3   4
ENDBRANCH   2   3
TORSDOF 10
ENDMDL
MODEL      118
REMARK 921   NORMALIZED FREE ENERGY PREDICTED BY IDOCK:   -3.46 KCAL/MOL
REMARK 922        TOTAL FREE ENERGY PREDICTED BY IDOCK:   -7.21 KCAL/MOL
REMARK 923 INTER-LIGAND FREE ENERGY PREDICTED BY IDOCK:   -6.18 KCAL/MOL
REMARK 924 INTRA-LIGAND FREE ENERGY PREDICTED BY IDOCK:   -1.04 KCAL/MOL
REMARK 927      BINDING AFFINITY PREDICTED BY RF-SCORE:    0.00 PKD
ROOT
HETATM    1  C   UNL     1      -5.919   8.691  68.407  1.00  0.00    -0.042 C  
HETATM    2  C   UNL     1      -6.979   8.262  67.412  1.00  0.00    -0.075 C  
ENDROOT
BRANCH   2   3
HETATM    3  O   UNL     1      -8.135   9.027  67.735  1.00  0.00    -0.108 OA 
BRANCH   3   4
HETATM    4  C   UNL     1      -9.357   8.562  67.387  1.00  0.00    -0.148 C  
HETATM    5  O   UNL     1      -9.618   7.905  66.394  1.00  0.00    -0.209 OA 
BRANCH   4   6
HETATM    6  C   UNL     1     -10.290   8.807  68.526  1.00  0.00    -0.231 C  
HETATM    7  C   UNL     1     -10.793  10.039  68.795  1.00  0.00    -0.219 C  
HETATM    8  C   UNL     1     -11.475   7.976  70.656  1.00  0.00    -0.237 C  
HETATM    9  N   UNL     1     -11.611  10.218  69.896  1.00  0.00    -0.261 NA 
HETATM   10  C   UNL     1     -11.890   9.253  70.845  1.00  0.00    -0.282 C  
HETATM   11  C   UNL     1     -10.660   7.597  69.400  1.00  0.00    -0.217 C  
HETATM   12  C   UNL     1     -12.653   9.746  72.050  1.00  0.00    -0.432 C  
BRANCH   7  13
HETATM   13  C   UNL     1     -10.595  11.281  67.929  1.00  0.00    -0.194 C  
BRANCH  13  14
HETATM   14  O   UNL     1     -11.443  11.279  66.778  1.00  0.00    -0.407 OA 
BRANCH  14  15
HETATM   15  C   UNL     1     -10.909  12.062  65.705  1.00  0.00    -0.282 C  
BRANCH  15  16
HETATM   16  C   UNL     1      -9.797  12.971  66.235  1.00  0.00    -0.278 C  
HETATM   17  N   UNL     1      -9.605  14.141  65.376  1.00  0.00    -0.548 NA 
HETATM   18  H2  UNL     1     -10.477  14.656  65.246  1.00  0.00     0.000 HD 
HETATM   19  H1  UNL     1      -8.864  14.747  65.729  1.00  0.00     0.000 HD 
ENDBRANCH  15  16
ENDBRANCH  14  15
ENDBRANCH  13  14
ENDBRANCH   7  13
BRANCH   8  20
HETATM   20  C   UNL     1     -11.759   6.953  71.700  1.00  0.00    -0.304 C  
HETATM   21  O   UNL     1     -12.871   6.513  71.955  1.00  0.00    -0.276 OA 
BRANCH  20  22
HETATM   22  O   UNL     1     -10.622   6.560  72.327  1.00  0.00    -0.204 OA 
HETATM   23  C   UNL     1     -10.444   7.171  73.610  1.00  0.00    -0.370 C  
ENDBRANCH  20  22
ENDBRANCH   8  20
BRANCH  11  24
HETATM   24  C   UNL     1      -9.454   6.692  69.718  1.00  0.00    -0.150 A  
HETATM   25  C   UNL     1      -9.454   5.388  69.169  1.00  0.00    -0.177 A  
HETATM   26  C   UNL     1      -8.419   4.489  69.435  1.00  0.00    -0.093 A  
HETATM   27  C   UNL     1      -7.362   4.874  70.249  1.00  0.00    -0.055 A  
HETATM   28  C   UNL     1      -7.329   6.164  70.780  1.00  0.00    -0.082 A  
HETATM   29  C   UNL     1      -8.362   7.070  70.513  1.00  0.00    -0.132 A  
HETATM   30 CL   UNL     1      -8.215   8.651  71.194  1.00  0.00    -0.165 Cl 
ENDBRANCH  11  24
ENDBRANCH   4   6
ENDBRANCH   3   4
ENDBRANCH   2   3
TORSDOF 10
ENDMDL
MODEL      119
REMARK 921   NORMALIZED FREE ENERGY PREDICTED BY IDOCK:   -3.45 KCAL/MOL
REMARK 922        TOTAL FREE ENERGY PREDICTED BY IDOCK:   -7.20 KCAL/MOL
REMARK 923 INTER-LIGAND FREE ENERGY PREDICTED BY IDOCK:   -6.16 KCAL/MOL
REMARK 924 INTRA-LIGAND FREE ENERGY PREDICTED BY IDOCK:   -1.04 KCAL/MOL
REMARK 927      BINDING AFFINITY PREDICTED BY RF-SCORE:    0.00 PKD
ROOT
HETATM    1  C   UNL     1     -12.045  13.118  65.187  1.00  0.00    -0.463 C  
HETATM    2  C   UNL     1     -11.554  11.684  65.209  1.00  0.00    -0.035 C  
ENDROOT
BRANCH   2   3
HETATM    3  O   UNL     1     -10.520  11.652  66.187  1.00  0.00    -0.232 OA 
BRANCH   3   4
HETATM    4  C   UNL     1     -10.834  11.391  67.477  1.00  0.00    -0.244 C  
HETATM    5  O   UNL     1     -11.936  11.083  67.898  1.00  0.00    -0.620 OA 
BRANCH   4   6
HETATM    6  C   UNL     1      -9.568  11.337  68.263  1.00  0.00    -0.193 C  
HETATM    7  C   UNL     1      -8.660  12.347  68.239  1.00  0.00    -0.172 C  
HETATM    8  C   UNL     1      -7.911  10.025  69.734  1.00  0.00    -0.185 C  
HETATM    9  N   UNL     1      -7.477  12.219  68.945  1.00  0.00    -0.062 NA 
HETATM   10  C   UNL     1      -7.067  11.079  69.610  1.00  0.00    -0.087 C  
HETATM   11  C   UNL     1      -9.320  10.075  69.107  1.00  0.00    -0.200 C  
HETATM   12  C   UNL     1      -5.655  11.125  70.143  1.00  0.00    -0.101 C  
BRANCH   7  13
HETATM   13  C   UNL     1      -8.853  13.690  67.541  1.00  0.00    -0.205 C  
BRANCH  13  14
HETATM   14  O   UNL     1      -9.752  14.545  68.252  1.00  0.00    -0.206 OA 
BRANCH  14  15
HETATM   15  C   UNL     1     -10.089  15.723  67.510  1.00  0.00    -0.245 C  
BRANCH  15  16
HETATM   16  C   UNL     1     -11.211  16.478  68.225  1.00  0.00    -0.265 C  
HETATM   17  N   UNL     1     -12.103  15.564  68.942  1.00  0.00    -0.595 NA 
HETATM   18  H2  UNL     1     -11.584  14.967  69.587  1.00  0.00     0.000 HD 
HETATM   19  H1  UNL     1     -12.851  16.067  69.420  1.00  0.00     0.000 HD 
ENDBRANCH  15  16
ENDBRANCH  14  15
ENDBRANCH  13  14
ENDBRANCH   7  13
BRANCH   8  20
HETATM   20  C   UNL     1      -7.444   8.794  70.428  1.00  0.00    -0.072 C  
HETATM   21  O   UNL     1      -6.893   7.852  69.875  1.00  0.00    -0.044 OA 
BRANCH  20  22
HETATM   22  O   UNL     1      -7.696   8.852  71.760  1.00  0.00    -0.289 OA 
HETATM   23  C   UNL     1      -6.543   8.589  72.566  1.00  0.00    -0.078 C  
ENDBRANCH  20  22
ENDBRANCH   8  20
BRANCH  11  24
HETATM   24  C   UNL     1      -9.696   8.775  68.369  1.00  0.00    -0.175 A  
HETATM   25  C   UNL     1      -9.118   8.557  67.096  1.00  0.00    -0.164 A  
HETATM   26  C   UNL     1      -9.432   7.424  66.342  1.00  0.00    -0.194 A  
HETATM   27  C   UNL     1     -10.322   6.485  66.845  1.00  0.00    -0.311 A  
HETATM   28  C   UNL     1     -10.884   6.667  68.109  1.00  0.00    -0.334 A  
HETATM   29  C   UNL     1     -10.570   7.799  68.871  1.00  0.00    -0.150 A  
HETATM   30 CL   UNL     1     -11.295   7.920  70.433  1.00  0.00    -0.242 Cl 
ENDBRANCH  11  24
ENDBRANCH   4   6
ENDBRANCH   3   4
ENDBRANCH   2   3
TORSDOF 10
ENDMDL
MODEL      120
REMARK 921   NORMALIZED FREE ENERGY PREDICTED BY IDOCK:   -3.44 KCAL/MOL
REMARK 922        TOTAL FREE ENERGY PREDICTED BY IDOCK:   -7.19 KCAL/MOL
REMARK 923 INTER-LIGAND FREE ENERGY PREDICTED BY IDOCK:   -5.75 KCAL/MOL
REMARK 924 INTRA-LIGAND FREE ENERGY PREDICTED BY IDOCK:   -1.44 KCAL/MOL
REMARK 927      BINDING AFFINITY PREDICTED BY RF-SCORE:    0.00 PKD
ROOT
HETATM    1  C   UNL     1     -12.531  10.107  71.213  1.00  0.00    -0.510 C  
HETATM    2  C   UNL     1     -11.474   9.148  70.703  1.00  0.00    -0.262 C  
ENDROOT
BRANCH   2   3
HETATM    3  O   UNL     1     -10.292   9.927  70.559  1.00  0.00    -0.286 OA 
BRANCH   3   4
HETATM    4  C   UNL     1      -9.093   9.305  70.473  1.00  0.00    -0.259 C  
HETATM    5  O   UNL     1      -8.277   9.193  71.372  1.00  0.00    -0.316 OA 
BRANCH   4   6
HETATM    6  C   UNL     1      -9.029   8.598  69.161  1.00  0.00    -0.142 C  
HETATM    7  C   UNL     1      -8.782   7.266  69.070  1.00  0.00    -0.132 C  
HETATM    8  C   UNL     1      -8.979   8.673  66.587  1.00  0.00    -0.174 C  
HETATM    9  N   UNL     1      -8.679   6.672  67.825  1.00  0.00    -0.117 NA 
HETATM   10  C   UNL     1      -8.697   7.347  66.619  1.00  0.00    -0.135 C  
HETATM   11  C   UNL     1      -9.247   9.446  67.896  1.00  0.00    -0.139 C  
HETATM   12  C   UNL     1      -8.378   6.501  65.410  1.00  0.00    -0.140 C  
BRANCH   7  13
HETATM   13  C   UNL     1      -8.672   6.307  70.253  1.00  0.00    -0.142 C  
BRANCH  13  14
HETATM   14  O   UNL     1      -9.948   5.996  70.818  1.00  0.00    -0.183 OA 
BRANCH  14  15
HETATM   15  C   UNL     1      -9.868   5.690  72.214  1.00  0.00    -0.159 C  
BRANCH  15  16
HETATM   16  C   UNL     1     -11.235   5.221  72.717  1.00  0.00    -0.284 C  
HETATM   17  N   UNL     1     -12.231   6.292  72.646  1.00  0.00    -0.515 NA 
HETATM   18  H2  UNL     1     -12.293   6.681  71.704  1.00  0.00     0.000 HD 
HETATM   19  H1  UNL     1     -13.142   5.980  72.981  1.00  0.00     0.000 HD 
ENDBRANCH  15  16
ENDBRANCH  14  15
ENDBRANCH  13  14
ENDBRANCH   7  13
BRANCH   8  20
HETATM   20  C   UNL     1      -8.967   9.391  65.283  1.00  0.00    -0.204 C  
HETATM   21  O   UNL     1      -7.980   9.525  64.574  1.00  0.00    -0.120 OA 
BRANCH  20  22
HETATM   22  O   UNL     1     -10.199   9.871  64.973  1.00  0.00    -0.221 OA 
HETATM   23  C   UNL     1     -10.161  11.148  64.328  1.00  0.00    -0.340 C  
ENDBRANCH  20  22
ENDBRANCH   8  20
BRANCH  11  24
HETATM   24  C   UNL     1      -8.523  10.805  67.951  1.00  0.00    -0.122 A  
HETATM   25  C   UNL     1      -7.109  10.789  68.002  1.00  0.00    -0.081 A  
HETATM   26  C   UNL     1      -6.372  11.972  68.091  1.00  0.00    -0.053 A  
HETATM   27  C   UNL     1      -7.031  13.194  68.123  1.00  0.00    -0.108 A  
HETATM   28  C   UNL     1      -8.424  13.235  68.048  1.00  0.00    -0.170 A  
HETATM   29  C   UNL     1      -9.167  12.051  67.955  1.00  0.00    -0.192 A  
HETATM   30 CL   UNL     1     -10.882  12.208  67.838  1.00  0.00    -0.239 Cl 
ENDBRANCH  11  24
ENDBRANCH   4   6
ENDBRANCH   3   4
ENDBRANCH   2   3
TORSDOF 10
ENDMDL
MODEL      121
REMARK 921   NORMALIZED FREE ENERGY PREDICTED BY IDOCK:   -3.43 KCAL/MOL
REMARK 922        TOTAL FREE ENERGY PREDICTED BY IDOCK:   -7.17 KCAL/MOL
REMARK 923 INTER-LIGAND FREE ENERGY PREDICTED BY IDOCK:   -5.31 KCAL/MOL
REMARK 924 INTRA-LIGAND FREE ENERGY PREDICTED BY IDOCK:   -1.86 KCAL/MOL
REMARK 927      BINDING AFFINITY PREDICTED BY RF-SCORE:    0.00 PKD
ROOT
HETATM    1  C   UNL     1      -7.541   8.938  64.401  1.00  0.00    -0.114 C  
HETATM    2  C   UNL     1      -8.648   8.690  65.405  1.00  0.00    -0.181 C  
ENDROOT
BRANCH   2   3
HETATM    3  O   UNL     1      -9.171   9.976  65.718  1.00  0.00    -0.156 OA 
BRANCH   3   4
HETATM    4  C   UNL     1      -9.616  10.225  66.972  1.00  0.00    -0.171 C  
HETATM    5  O   UNL     1     -10.633   9.777  67.474  1.00  0.00    -0.246 OA 
BRANCH   4   6
HETATM    6  C   UNL     1      -8.549  10.965  67.706  1.00  0.00    -0.128 C  
HETATM    7  C   UNL     1      -7.709  10.347  68.575  1.00  0.00    -0.101 C  
HETATM    8  C   UNL     1      -7.439  13.189  68.381  1.00  0.00    -0.124 C  
HETATM    9  N   UNL     1      -6.773  11.093  69.271  1.00  0.00    -0.092 NA 
HETATM   10  C   UNL     1      -6.678  12.471  69.245  1.00  0.00    -0.060 C  
HETATM   11  C   UNL     1      -8.439  12.477  67.445  1.00  0.00    -0.181 C  
HETATM   12  C   UNL     1      -5.701  13.061  70.233  1.00  0.00    -0.159 C  
BRANCH   7  13
HETATM   13  C   UNL     1      -7.644   8.842  68.820  1.00  0.00    -0.095 C  
BRANCH  13  14
HETATM   14  O   UNL     1      -8.131   8.482  70.115  1.00  0.00    -0.103 OA 
BRANCH  14  15
HETATM   15  C   UNL     1      -9.544   8.253  70.124  1.00  0.00    -0.167 C  
BRANCH  15  16
HETATM   16  C   UNL     1     -10.216   9.223  71.099  1.00  0.00    -0.317 C  
HETATM   17  N   UNL     1     -10.675  10.436  70.420  1.00  0.00    -0.441 NA 
HETATM   18  H2  UNL     1     -11.286  10.214  69.634  1.00  0.00     0.000 HD 
HETATM   19  H1  UNL     1     -11.123  11.082  71.070  1.00  0.00     0.000 HD 
ENDBRANCH  15  16
ENDBRANCH  14  15
ENDBRANCH  13  14
ENDBRANCH   7  13
BRANCH   8  20
HETATM   20  C   UNL     1      -7.345  14.675  68.386  1.00  0.00    -0.115 C  
HETATM   21  O   UNL     1      -7.677  15.388  69.322  1.00  0.00    -0.187 OA 
BRANCH  20  22
HETATM   22  O   UNL     1      -6.830  15.140  67.219  1.00  0.00    -0.233 OA 
HETATM   23  C   UNL     1      -7.572  16.234  66.671  1.00  0.00    -0.232 C  
ENDBRANCH  20  22
ENDBRANCH   8  20
BRANCH  11  24
HETATM   24  C   UNL     1      -9.810  13.179  67.387  1.00  0.00    -0.226 A  
HETATM   25  C   UNL     1     -10.438  13.487  68.617  1.00  0.00    -0.242 A  
HETATM   26  C   UNL     1     -11.698  14.089  68.658  1.00  0.00    -0.389 A  
HETATM   27  C   UNL     1     -12.352  14.401  67.473  1.00  0.00    -0.044 A  
HETATM   28  C   UNL     1     -11.741  14.129  66.249  1.00  0.00    -0.402 A  
HETATM   29  C   UNL     1     -10.476  13.529  66.203  1.00  0.00    -0.296 A  
HETATM   30 CL   UNL     1      -9.792  13.259  64.641  1.00  0.00    -0.107 Cl 
ENDBRANCH  11  24
ENDBRANCH   4   6
ENDBRANCH   3   4
ENDBRANCH   2   3
TORSDOF 10
ENDMDL
MODEL      122
REMARK 921   NORMALIZED FREE ENERGY PREDICTED BY IDOCK:   -3.42 KCAL/MOL
REMARK 922        TOTAL FREE ENERGY PREDICTED BY IDOCK:   -7.16 KCAL/MOL
REMARK 923 INTER-LIGAND FREE ENERGY PREDICTED BY IDOCK:   -5.71 KCAL/MOL
REMARK 924 INTRA-LIGAND FREE ENERGY PREDICTED BY IDOCK:   -1.45 KCAL/MOL
REMARK 927      BINDING AFFINITY PREDICTED BY RF-SCORE:    0.00 PKD
ROOT
HETATM    1  C   UNL     1      -6.996   9.644  70.455  1.00  0.00    -0.128 C  
HETATM    2  C   UNL     1      -7.597   8.505  69.657  1.00  0.00    -0.088 C  
ENDROOT
BRANCH   2   3
HETATM    3  O   UNL     1      -7.869   9.045  68.369  1.00  0.00    -0.100 OA 
BRANCH   3   4
HETATM    4  C   UNL     1      -8.997   8.676  67.718  1.00  0.00    -0.136 C  
HETATM    5  O   UNL     1      -9.984   8.171  68.225  1.00  0.00    -0.174 OA 
BRANCH   4   6
HETATM    6  C   UNL     1      -8.914   9.183  66.318  1.00  0.00    -0.194 C  
HETATM    7  C   UNL     1      -7.953   8.765  65.454  1.00  0.00    -0.112 C  
HETATM    8  C   UNL     1      -9.694  10.820  64.489  1.00  0.00    -0.351 C  
HETATM    9  N   UNL     1      -7.891   9.309  64.184  1.00  0.00    -0.119 NA 
HETATM   10  C   UNL     1      -8.674  10.352  63.727  1.00  0.00    -0.193 C  
HETATM   11  C   UNL     1      -9.967  10.216  65.883  1.00  0.00    -0.334 C  
HETATM   12  C   UNL     1      -8.288  10.892  62.371  1.00  0.00    -0.293 C  
BRANCH   7  13
HETATM   13  C   UNL     1      -6.938   7.659  65.733  1.00  0.00    -0.060 C  
BRANCH  13  14
HETATM   14  O   UNL     1      -7.235   6.458  65.017  1.00  0.00    -0.062 OA 
BRANCH  14  15
HETATM   15  C   UNL     1      -8.203   5.645  65.690  1.00  0.00    -0.126 C  
BRANCH  15  16
HETATM   16  C   UNL     1      -7.518   4.407  66.273  1.00  0.00    -0.085 C  
HETATM   17  N   UNL     1      -6.955   3.558  65.220  1.00  0.00    -0.059 NA 
HETATM   18  H2  UNL     1      -6.323   4.084  64.615  1.00  0.00     0.000 HD 
HETATM   19  H1  UNL     1      -6.498   2.733  65.608  1.00  0.00     0.000 HD 
ENDBRANCH  15  16
ENDBRANCH  14  15
ENDBRANCH  13  14
ENDBRANCH   7  13
BRANCH   8  20
HETATM   20  C   UNL     1     -10.510  11.962  63.995  1.00  0.00    -0.373 C  
HETATM   21  O   UNL     1     -10.209  13.140  64.131  1.00  0.00    -0.391 OA 
BRANCH  20  22
HETATM   22  O   UNL     1     -11.630  11.531  63.361  1.00  0.00    -0.363 OA 
HETATM   23  C   UNL     1     -12.821  12.183  63.812  1.00  0.00    -0.333 C  
ENDBRANCH  20  22
ENDBRANCH   8  20
BRANCH  11  24
HETATM   24  C   UNL     1     -10.238  11.287  66.958  1.00  0.00    -0.250 A  
HETATM   25  C   UNL     1     -11.552  11.374  67.476  1.00  0.00    -0.298 A  
HETATM   26  C   UNL     1     -11.896  12.339  68.425  1.00  0.00    -0.358 A  
HETATM   27  C   UNL     1     -10.935  13.231  68.881  1.00  0.00    -0.278 A  
HETATM   28  C   UNL     1      -9.627  13.148  68.403  1.00  0.00    -0.186 A  
HETATM   29  C   UNL     1      -9.276  12.180  67.454  1.00  0.00    -0.182 A  
HETATM   30 CL   UNL     1      -7.626  12.139  66.946  1.00  0.00    -0.084 Cl 
ENDBRANCH  11  24
ENDBRANCH   4   6
ENDBRANCH   3   4
ENDBRANCH   2   3
TORSDOF 10
ENDMDL
MODEL      123
REMARK 921   NORMALIZED FREE ENERGY PREDICTED BY IDOCK:   -3.42 KCAL/MOL
REMARK 922        TOTAL FREE ENERGY PREDICTED BY IDOCK:   -7.16 KCAL/MOL
REMARK 923 INTER-LIGAND FREE ENERGY PREDICTED BY IDOCK:   -6.03 KCAL/MOL
REMARK 924 INTRA-LIGAND FREE ENERGY PREDICTED BY IDOCK:   -1.12 KCAL/MOL
REMARK 927      BINDING AFFINITY PREDICTED BY RF-SCORE:    0.00 PKD
ROOT
HETATM    1  C   UNL     1     -12.154  15.082  71.153  1.00  0.00    -0.375 C  
HETATM    2  C   UNL     1     -11.861  13.806  70.390  1.00  0.00    -0.253 C  
ENDROOT
BRANCH   2   3
HETATM    3  O   UNL     1     -12.152  14.103  69.029  1.00  0.00    -0.343 OA 
BRANCH   3   4
HETATM    4  C   UNL     1     -11.277  14.841  68.308  1.00  0.00    -0.286 C  
HETATM    5  O   UNL     1     -11.398  16.021  68.024  1.00  0.00    -0.340 OA 
BRANCH   4   6
HETATM    6  C   UNL     1     -10.043  14.030  68.100  1.00  0.00    -0.244 C  
HETATM    7  C   UNL     1      -8.864  14.344  68.696  1.00  0.00    -0.167 C  
HETATM    8  C   UNL     1      -8.794  12.148  66.864  1.00  0.00    -0.202 C  
HETATM    9  N   UNL     1      -7.737  13.588  68.424  1.00  0.00    -0.130 NA 
HETATM   10  C   UNL     1      -7.667  12.573  67.489  1.00  0.00    -0.165 C  
HETATM   11  C   UNL     1     -10.153  12.813  67.166  1.00  0.00    -0.234 C  
HETATM   12  C   UNL     1      -6.282  12.028  67.242  1.00  0.00    -0.149 C  
BRANCH   7  13
HETATM   13  C   UNL     1      -8.666  15.448  69.732  1.00  0.00    -0.009 C  
BRANCH  13  14
HETATM   14  O   UNL     1      -7.684  16.403  69.323  1.00  0.00    -0.241 OA 
BRANCH  14  15
HETATM   15  C   UNL     1      -8.227  17.414  68.467  1.00  0.00    -0.268 C  
BRANCH  15  16
HETATM   16  C   UNL     1      -7.182  18.508  68.235  1.00  0.00    -0.264 C  
HETATM   17  N   UNL     1      -5.828  18.027  68.521  1.00  0.00    -0.180 NA 
HETATM   18  H2  UNL     1      -5.611  17.185  67.988  1.00  0.00     0.000 HD 
HETATM   19  H1  UNL     1      -5.131  18.756  68.366  1.00  0.00     0.000 HD 
ENDBRANCH  15  16
ENDBRANCH  14  15
ENDBRANCH  13  14
ENDBRANCH   7  13
BRANCH   8  20
HETATM   20  C   UNL     1      -8.698  11.073  65.838  1.00  0.00    -0.178 C  
HETATM   21  O   UNL     1      -8.448  11.263  64.656  1.00  0.00     0.182 OA 
BRANCH  20  22
HETATM   22  O   UNL     1      -8.911   9.849  66.385  1.00  0.00    -0.140 OA 
HETATM   23  C   UNL     1      -8.708   8.775  65.460  1.00  0.00    -0.185 C  
ENDBRANCH  20  22
ENDBRANCH   8  20
BRANCH  11  24
HETATM   24  C   UNL     1     -10.975  13.103  65.895  1.00  0.00    -0.288 A  
HETATM   25  C   UNL     1     -12.002  12.189  65.560  1.00  0.00    -0.290 A  
HETATM   26  C   UNL     1     -12.772  12.353  64.406  1.00  0.00    -0.434 A  
HETATM   27  C   UNL     1     -12.536  13.435  63.568  1.00  0.00    -0.287 A  
HETATM   28  C   UNL     1     -11.545  14.362  63.892  1.00  0.00     0.110 A  
HETATM   29  C   UNL     1     -10.774  14.204  65.049  1.00  0.00    -0.416 A  
HETATM   30 CL   UNL     1      -9.592  15.420  65.378  1.00  0.00    -0.259 Cl 
ENDBRANCH  11  24
ENDBRANCH   4   6
ENDBRANCH   3   4
ENDBRANCH   2   3
TORSDOF 10
ENDMDL
MODEL      124
REMARK 921   NORMALIZED FREE ENERGY PREDICTED BY IDOCK:   -3.42 KCAL/MOL
REMARK 922        TOTAL FREE ENERGY PREDICTED BY IDOCK:   -7.15 KCAL/MOL
REMARK 923 INTER-LIGAND FREE ENERGY PREDICTED BY IDOCK:   -5.46 KCAL/MOL
REMARK 924 INTRA-LIGAND FREE ENERGY PREDICTED BY IDOCK:   -1.69 KCAL/MOL
REMARK 927      BINDING AFFINITY PREDICTED BY RF-SCORE:    0.00 PKD
ROOT
HETATM    1  C   UNL     1      -5.685   8.160  68.697  1.00  0.00    -0.036 C  
HETATM    2  C   UNL     1      -6.090   6.714  68.496  1.00  0.00    -0.026 C  
ENDROOT
BRANCH   2   3
HETATM    3  O   UNL     1      -7.512   6.707  68.546  1.00  0.00    -0.088 OA 
BRANCH   3   4
HETATM    4  C   UNL     1      -8.163   5.544  68.783  1.00  0.00    -0.102 C  
HETATM    5  O   UNL     1      -7.710   4.423  68.622  1.00  0.00    -0.070 OA 
BRANCH   4   6
HETATM    6  C   UNL     1      -9.447   5.861  69.472  1.00  0.00    -0.166 C  
HETATM    7  C   UNL     1     -10.506   6.398  68.813  1.00  0.00    -0.221 C  
HETATM    8  C   UNL     1     -10.818   6.088  71.640  1.00  0.00    -0.314 C  
HETATM    9  N   UNL     1     -11.655   6.722  69.514  1.00  0.00    -0.186 NA 
HETATM   10  C   UNL     1     -11.796   6.648  70.886  1.00  0.00    -0.377 C  
HETATM   11  C   UNL     1      -9.527   5.560  70.978  1.00  0.00    -0.203 C  
HETATM   12  C   UNL     1     -13.077   7.235  71.428  1.00  0.00    -0.412 C  
BRANCH   7  13
HETATM   13  C   UNL     1     -10.585   6.624  67.306  1.00  0.00    -0.317 C  
BRANCH  13  14
HETATM   14  O   UNL     1      -9.814   7.753  66.886  1.00  0.00    -0.194 OA 
BRANCH  14  15
HETATM   15  C   UNL     1     -10.614   8.927  66.713  1.00  0.00    -0.142 C  
BRANCH  15  16
HETATM   16  C   UNL     1     -10.495   9.818  67.952  1.00  0.00    -0.239 C  
HETATM   17  N   UNL     1     -11.790  10.388  68.330  1.00  0.00    -0.752 NA 
HETATM   18  H2  UNL     1     -12.494   9.660  68.460  1.00  0.00     0.000 HD 
HETATM   19  H1  UNL     1     -11.711  10.981  69.156  1.00  0.00     0.000 HD 
ENDBRANCH  15  16
ENDBRANCH  14  15
ENDBRANCH  13  14
ENDBRANCH   7  13
BRANCH   8  20
HETATM   20  C   UNL     1     -10.972   6.042  73.120  1.00  0.00    -0.239 C  
HETATM   21  O   UNL     1     -10.748   6.982  73.871  1.00  0.00    -0.324 OA 
BRANCH  20  22
HETATM   22  O   UNL     1     -11.407   4.825  73.533  1.00  0.00    -0.332 OA 
HETATM   23  C   UNL     1     -10.544   4.214  74.498  1.00  0.00    -0.178 C  
ENDBRANCH  20  22
ENDBRANCH   8  20
BRANCH  11  24
HETATM   24  C   UNL     1      -8.251   5.965  71.741  1.00  0.00    -0.119 A  
HETATM   25  C   UNL     1      -7.927   7.341  71.785  1.00  0.00    -0.095 A  
HETATM   26  C   UNL     1      -6.769   7.794  72.422  1.00  0.00    -0.065 A  
HETATM   27  C   UNL     1      -5.917   6.883  73.034  1.00  0.00    -0.056 A  
HETATM   28  C   UNL     1      -6.231   5.524  73.024  1.00  0.00    -0.058 A  
HETATM   29  C   UNL     1      -7.392   5.066  72.390  1.00  0.00    -0.092 A  
HETATM   30 CL   UNL     1      -7.706   3.369  72.458  1.00  0.00    -0.061 Cl 
ENDBRANCH  11  24
ENDBRANCH   4   6
ENDBRANCH   3   4
ENDBRANCH   2   3
TORSDOF 10
ENDMDL
MODEL      125
REMARK 921   NORMALIZED FREE ENERGY PREDICTED BY IDOCK:   -3.39 KCAL/MOL
REMARK 922        TOTAL FREE ENERGY PREDICTED BY IDOCK:   -7.10 KCAL/MOL
REMARK 923 INTER-LIGAND FREE ENERGY PREDICTED BY IDOCK:   -5.43 KCAL/MOL
REMARK 924 INTRA-LIGAND FREE ENERGY PREDICTED BY IDOCK:   -1.67 KCAL/MOL
REMARK 927      BINDING AFFINITY PREDICTED BY RF-SCORE:    0.00 PKD
ROOT
HETATM    1  C   UNL     1      -7.463   7.955  74.530  1.00  0.00    -0.220 C  
HETATM    2  C   UNL     1      -7.718   8.154  73.049  1.00  0.00    -0.148 C  
ENDROOT
BRANCH   2   3
HETATM    3  O   UNL     1      -9.123   8.348  72.929  1.00  0.00    -0.254 OA 
BRANCH   3   4
HETATM    4  C   UNL     1      -9.935   7.272  72.815  1.00  0.00    -0.194 C  
HETATM    5  O   UNL     1     -10.513   6.709  73.729  1.00  0.00    -0.303 OA 
BRANCH   4   6
HETATM    6  C   UNL     1     -10.172   7.019  71.364  1.00  0.00    -0.208 C  
HETATM    7  C   UNL     1     -11.167   7.636  70.677  1.00  0.00    -0.266 C  
HETATM    8  C   UNL     1      -9.675   5.675  69.224  1.00  0.00    -0.205 C  
HETATM    9  N   UNL     1     -11.377   7.322  69.345  1.00  0.00     0.014 NA 
HETATM   10  C   UNL     1     -10.716   6.327  68.650  1.00  0.00    -0.298 C  
HETATM   11  C   UNL     1      -9.241   6.013  70.666  1.00  0.00    -0.161 C  
HETATM   12  C   UNL     1     -11.254   6.052  67.267  1.00  0.00    -0.071 C  
BRANCH   7  13
HETATM   13  C   UNL     1     -12.069   8.736  71.230  1.00  0.00    -0.296 C  
BRANCH  13  14
HETATM   14  O   UNL     1     -11.365   9.965  71.427  1.00  0.00    -0.364 OA 
BRANCH  14  15
HETATM   15  C   UNL     1     -10.701  10.412  70.240  1.00  0.00    -0.187 C  
BRANCH  15  16
HETATM   16  C   UNL     1     -11.714  11.076  69.304  1.00  0.00    -0.326 C  
HETATM   17  N   UNL     1     -11.793  10.380  68.018  1.00  0.00    -0.681 NA 
HETATM   18  H2  UNL     1     -11.996   9.388  68.142  1.00  0.00     0.000 HD 
HETATM   19  H1  UNL     1     -12.468  10.823  67.394  1.00  0.00     0.000 HD 
ENDBRANCH  15  16
ENDBRANCH  14  15
ENDBRANCH  13  14
ENDBRANCH   7  13
BRANCH   8  20
HETATM   20  C   UNL     1      -8.991   4.587  68.472  1.00  0.00    -0.112 C  
HETATM   21  O   UNL     1      -9.385   3.430  68.415  1.00  0.00    -0.165 OA 
BRANCH  20  22
HETATM   22  O   UNL     1      -7.878   5.044  67.845  1.00  0.00    -0.089 OA 
HETATM   23  C   UNL     1      -7.431   4.185  66.791  1.00  0.00    -0.080 C  
ENDBRANCH  20  22
ENDBRANCH   8  20
BRANCH  11  24
HETATM   24  C   UNL     1      -8.963   4.759  71.519  1.00  0.00    -0.162 A  
HETATM   25  C   UNL     1     -10.069   3.949  71.868  1.00  0.00    -0.204 A  
HETATM   26  C   UNL     1      -9.914   2.815  72.668  1.00  0.00    -0.219 A  
HETATM   27  C   UNL     1      -8.652   2.464  73.131  1.00  0.00    -0.070 A  
HETATM   28  C   UNL     1      -7.544   3.235  72.778  1.00  0.00    -0.051 A  
HETATM   29  C   UNL     1      -7.693   4.370  71.973  1.00  0.00    -0.081 A  
HETATM   30 CL   UNL     1      -6.258   5.241  71.568  1.00  0.00    -0.029 Cl 
ENDBRANCH  11  24
ENDBRANCH   4   6
ENDBRANCH   3   4
ENDBRANCH   2   3
TORSDOF 10
ENDMDL
MODEL      126
REMARK 921   NORMALIZED FREE ENERGY PREDICTED BY IDOCK:   -3.38 KCAL/MOL
REMARK 922        TOTAL FREE ENERGY PREDICTED BY IDOCK:   -7.10 KCAL/MOL
REMARK 923 INTER-LIGAND FREE ENERGY PREDICTED BY IDOCK:   -5.80 KCAL/MOL
REMARK 924 INTRA-LIGAND FREE ENERGY PREDICTED BY IDOCK:   -1.30 KCAL/MOL
REMARK 927      BINDING AFFINITY PREDICTED BY RF-SCORE:    0.00 PKD
ROOT
HETATM    1  C   UNL     1      -7.494  12.174  68.796  1.00  0.00    -0.075 C  
HETATM    2  C   UNL     1      -8.547  12.859  67.949  1.00  0.00    -0.185 C  
ENDROOT
BRANCH   2   3
HETATM    3  O   UNL     1      -8.806  11.968  66.870  1.00  0.00    -0.186 OA 
BRANCH   3   4
HETATM    4  C   UNL     1     -10.069  11.533  66.657  1.00  0.00    -0.210 C  
HETATM    5  O   UNL     1     -10.909  12.080  65.961  1.00  0.00    -0.268 OA 
BRANCH   4   6
HETATM    6  C   UNL     1     -10.197  10.167  67.243  1.00  0.00    -0.273 C  
HETATM    7  C   UNL     1     -10.776   9.951  68.452  1.00  0.00    -0.232 C  
HETATM    8  C   UNL     1      -9.641   7.653  67.180  1.00  0.00    -0.211 C  
HETATM    9  N   UNL     1     -10.818   8.669  68.971  1.00  0.00    -0.093 NA 
HETATM   10  C   UNL     1     -10.212   7.563  68.407  1.00  0.00    -0.185 C  
HETATM   11  C   UNL     1      -9.634   8.996  66.419  1.00  0.00    -0.309 C  
HETATM   12  C   UNL     1     -10.241   6.317  69.259  1.00  0.00    -0.236 C  
BRANCH   7  13
HETATM   13  C   UNL     1     -11.475  11.013  69.297  1.00  0.00    -0.300 C  
BRANCH  13  14
HETATM   14  O   UNL     1     -11.464  10.690  70.690  1.00  0.00    -0.324 OA 
BRANCH  14  15
HETATM   15  C   UNL     1     -12.753  10.837  71.295  1.00  0.00    -0.441 C  
BRANCH  15  16
HETATM   16  C   UNL     1     -13.165   9.518  71.953  1.00  0.00    -0.439 C  
HETATM   17  N   UNL     1     -13.111   8.404  71.004  1.00  0.00    -0.501 NA 
HETATM   18  H2  UNL     1     -12.193   8.331  70.566  1.00  0.00     0.000 HD 
HETATM   19  H1  UNL     1     -13.385   7.524  71.443  1.00  0.00     0.000 HD 
ENDBRANCH  15  16
ENDBRANCH  14  15
ENDBRANCH  13  14
ENDBRANCH   7  13
BRANCH   8  20
HETATM   20  C   UNL     1      -8.968   6.460  66.599  1.00  0.00    -0.140 C  
HETATM   21  O   UNL     1      -9.411   5.796  65.672  1.00  0.00    -0.098 OA 
BRANCH  20  22
HETATM   22  O   UNL     1      -7.788   6.208  67.221  1.00  0.00    -0.100 OA 
HETATM   23  C   UNL     1      -7.440   4.820  67.230  1.00  0.00    -0.082 C  
ENDBRANCH  20  22
ENDBRANCH   8  20
BRANCH  11  24
HETATM   24  C   UNL     1      -8.270   9.314  65.776  1.00  0.00    -0.117 A  
HETATM   25  C   UNL     1      -7.120   9.192  66.590  1.00  0.00    -0.082 A  
HETATM   26  C   UNL     1      -5.848   9.496  66.100  1.00  0.00    -0.057 A  
HETATM   27  C   UNL     1      -5.698   9.921  64.787  1.00  0.00    -0.093 A  
HETATM   28  C   UNL     1      -6.816  10.025  63.958  1.00  0.00    -0.126 A  
HETATM   29  C   UNL     1      -8.093   9.718  64.444  1.00  0.00    -0.150 A  
HETATM   30 CL   UNL     1      -9.408   9.850  63.333  1.00  0.00    -0.289 Cl 
ENDBRANCH  11  24
ENDBRANCH   4   6
ENDBRANCH   3   4
ENDBRANCH   2   3
TORSDOF 10
ENDMDL
MODEL      127
REMARK 921   NORMALIZED FREE ENERGY PREDICTED BY IDOCK:   -3.35 KCAL/MOL
REMARK 922        TOTAL FREE ENERGY PREDICTED BY IDOCK:   -7.04 KCAL/MOL
REMARK 923 INTER-LIGAND FREE ENERGY PREDICTED BY IDOCK:   -5.27 KCAL/MOL
REMARK 924 INTRA-LIGAND FREE ENERGY PREDICTED BY IDOCK:   -1.77 KCAL/MOL
REMARK 927      BINDING AFFINITY PREDICTED BY RF-SCORE:    0.00 PKD
ROOT
HETATM    1  C   UNL     1     -10.449  10.358  66.451  1.00  0.00    -0.246 C  
HETATM    2  C   UNL     1      -9.029   9.930  66.138  1.00  0.00    -0.150 C  
ENDROOT
BRANCH   2   3
HETATM    3  O   UNL     1      -8.316  10.055  67.363  1.00  0.00    -0.118 OA 
BRANCH   3   4
HETATM    4  C   UNL     1      -7.733   8.962  67.907  1.00  0.00    -0.101 C  
HETATM    5  O   UNL     1      -6.817   8.321  67.420  1.00  0.00    -0.068 OA 
BRANCH   4   6
HETATM    6  C   UNL     1      -8.254   8.798  69.295  1.00  0.00    -0.108 C  
HETATM    7  C   UNL     1      -7.599   9.296  70.375  1.00  0.00    -0.127 C  
HETATM    8  C   UNL     1      -9.937   7.746  70.935  1.00  0.00    -0.190 C  
HETATM    9  N   UNL     1      -8.100   9.067  71.645  1.00  0.00    -0.347 NA 
HETATM   10  C   UNL     1      -9.183   8.261  71.938  1.00  0.00    -0.208 C  
HETATM   11  C   UNL     1      -9.574   8.027  69.462  1.00  0.00    -0.164 C  
HETATM   12  C   UNL     1      -9.417   8.019  73.409  1.00  0.00    -0.307 C  
BRANCH   7  13
HETATM   13  C   UNL     1      -6.354  10.177  70.322  1.00  0.00    -0.117 C  
BRANCH  13  14
HETATM   14  O   UNL     1      -6.650  11.508  69.892  1.00  0.00    -0.132 OA 
BRANCH  14  15
HETATM   15  C   UNL     1      -5.658  12.029  69.001  1.00  0.00    -0.052 C  
BRANCH  15  16
HETATM   16  C   UNL     1      -6.198  13.281  68.305  1.00  0.00    -0.099 C  
HETATM   17  N   UNL     1      -6.418  13.049  66.876  1.00  0.00    -0.381 NA 
HETATM   18  H2  UNL     1      -7.024  12.243  66.718  1.00  0.00     0.000 HD 
HETATM   19  H1  UNL     1      -6.778  13.883  66.412  1.00  0.00     0.000 HD 
ENDBRANCH  15  16
ENDBRANCH  14  15
ENDBRANCH  13  14
ENDBRANCH   7  13
BRANCH   8  20
HETATM   20  C   UNL     1     -11.084   6.857  71.267  1.00  0.00    -0.258 C  
HETATM   21  O   UNL     1     -12.258   7.131  71.058  1.00  0.00    -0.342 OA 
BRANCH  20  22
HETATM   22  O   UNL     1     -10.661   5.693  71.822  1.00  0.00    -0.234 OA 
HETATM   23  C   UNL     1     -11.554   5.185  72.819  1.00  0.00    -0.163 C  
ENDBRANCH  20  22
ENDBRANCH   8  20
BRANCH  11  24
HETATM   24  C   UNL     1      -9.653   6.770  68.574  1.00  0.00    -0.130 A  
HETATM   25  C   UNL     1     -10.609   6.766  67.531  1.00  0.00    -0.348 A  
HETATM   26  C   UNL     1     -10.775   5.654  66.702  1.00  0.00    -0.339 A  
HETATM   27  C   UNL     1      -9.986   4.528  66.893  1.00  0.00    -0.229 A  
HETATM   28  C   UNL     1      -9.020   4.519  67.900  1.00  0.00    -0.133 A  
HETATM   29  C   UNL     1      -8.847   5.632  68.731  1.00  0.00    -0.108 A  
HETATM   30 CL   UNL     1      -7.606   5.534  69.928  1.00  0.00    -0.073 Cl 
ENDBRANCH  11  24
ENDBRANCH   4   6
ENDBRANCH   3   4
ENDBRANCH   2   3
TORSDOF 10
ENDMDL
MODEL      128
REMARK 921   NORMALIZED FREE ENERGY PREDICTED BY IDOCK:   -3.34 KCAL/MOL
REMARK 922        TOTAL FREE ENERGY PREDICTED BY IDOCK:   -7.03 KCAL/MOL
REMARK 923 INTER-LIGAND FREE ENERGY PREDICTED BY IDOCK:   -4.91 KCAL/MOL
REMARK 924 INTRA-LIGAND FREE ENERGY PREDICTED BY IDOCK:   -2.12 KCAL/MOL
REMARK 927      BINDING AFFINITY PREDICTED BY RF-SCORE:    0.00 PKD
ROOT
HETATM    1  C   UNL     1     -13.762   7.816  71.583  1.00  0.00    -0.434 C  
HETATM    2  C   UNL     1     -12.663   8.646  72.213  1.00  0.00    -0.391 C  
ENDROOT
BRANCH   2   3
HETATM    3  O   UNL     1     -11.659   7.715  72.603  1.00  0.00    -0.339 OA 
BRANCH   3   4
HETATM    4  C   UNL     1     -10.371   7.945  72.259  1.00  0.00    -0.253 C  
HETATM    5  O   UNL     1      -9.632   8.776  72.761  1.00  0.00    -0.198 OA 
BRANCH   4   6
HETATM    6  C   UNL     1      -9.942   6.872  71.315  1.00  0.00    -0.189 C  
HETATM    7  C   UNL     1      -9.268   5.770  71.732  1.00  0.00    -0.145 C  
HETATM    8  C   UNL     1      -9.647   6.009  68.907  1.00  0.00    -0.147 C  
HETATM    9  N   UNL     1      -8.846   4.834  70.805  1.00  0.00    -0.118 NA 
HETATM   10  C   UNL     1      -8.955   4.968  69.434  1.00  0.00    -0.092 C  
HETATM   11  C   UNL     1     -10.289   7.067  69.829  1.00  0.00    -0.225 C  
HETATM   12  C   UNL     1      -8.252   3.901  68.631  1.00  0.00    -0.083 C  
BRANCH   7  13
HETATM   13  C   UNL     1      -8.978   5.412  73.188  1.00  0.00    -0.118 C  
BRANCH  13  14
HETATM   14  O   UNL     1     -10.008   4.604  73.762  1.00  0.00    -0.142 OA 
BRANCH  14  15
HETATM   15  C   UNL     1      -9.492   3.429  74.396  1.00  0.00    -0.095 C  
BRANCH  15  16
HETATM   16  C   UNL     1      -9.172   2.371  73.337  1.00  0.00    -0.083 C  
HETATM   17  N   UNL     1     -10.235   2.276  72.334  1.00  0.00    -0.157 NA 
HETATM   18  H2  UNL     1     -10.427   3.184  71.908  1.00  0.00     0.000 HD 
HETATM   19  H1  UNL     1     -10.021   1.572  71.628  1.00  0.00     0.000 HD 
ENDBRANCH  15  16
ENDBRANCH  14  15
ENDBRANCH  13  14
ENDBRANCH   7  13
BRANCH   8  20
HETATM   20  C   UNL     1      -9.731   6.155  67.428  1.00  0.00    -0.120 C  
HETATM   21  O   UNL     1      -8.912   6.750  66.742  1.00  0.00    -0.125 OA 
BRANCH  20  22
HETATM   22  O   UNL     1     -10.831   5.533  66.932  1.00  0.00    -0.266 OA 
HETATM   23  C   UNL     1     -10.531   4.613  65.877  1.00  0.00    -0.268 C  
ENDBRANCH  20  22
ENDBRANCH   8  20
BRANCH  11  24
HETATM   24  C   UNL     1     -10.054   8.510  69.341  1.00  0.00    -0.205 A  
HETATM   25  C   UNL     1     -11.189   9.257  68.944  1.00  0.00     0.151 A  
HETATM   26  C   UNL     1     -11.065  10.559  68.454  1.00  0.00    -0.335 A  
HETATM   27  C   UNL     1      -9.809  11.143  68.355  1.00  0.00    -0.188 A  
HETATM   28  C   UNL     1      -8.680  10.434  68.764  1.00  0.00    -0.146 A  
HETATM   29  C   UNL     1      -8.798   9.130  69.260  1.00  0.00    -0.144 A  
HETATM   30 CL   UNL     1      -7.345   8.347  69.766  1.00  0.00    -0.059 Cl 
ENDBRANCH  11  24
ENDBRANCH   4   6
ENDBRANCH   3   4
ENDBRANCH   2   3
TORSDOF 10
ENDMDL
MODEL      129
REMARK 921   NORMALIZED FREE ENERGY PREDICTED BY IDOCK:   -3.33 KCAL/MOL
REMARK 922        TOTAL FREE ENERGY PREDICTED BY IDOCK:   -7.02 KCAL/MOL
REMARK 923 INTER-LIGAND FREE ENERGY PREDICTED BY IDOCK:   -5.67 KCAL/MOL
REMARK 924 INTRA-LIGAND FREE ENERGY PREDICTED BY IDOCK:   -1.35 KCAL/MOL
REMARK 927      BINDING AFFINITY PREDICTED BY RF-SCORE:    0.00 PKD
ROOT
HETATM    1  C   UNL     1      -7.346  11.323  69.094  1.00  0.00    -0.104 C  
HETATM    2  C   UNL     1      -8.393  12.092  68.314  1.00  0.00    -0.163 C  
ENDROOT
BRANCH   2   3
HETATM    3  O   UNL     1      -8.874  11.186  67.327  1.00  0.00    -0.142 OA 
BRANCH   3   4
HETATM    4  C   UNL     1     -10.184  10.849  67.317  1.00  0.00    -0.205 C  
HETATM    5  O   UNL     1     -11.089  11.502  66.823  1.00  0.00    -0.286 OA 
BRANCH   4   6
HETATM    6  C   UNL     1     -10.310   9.451  67.823  1.00  0.00    -0.291 C  
HETATM    7  C   UNL     1     -10.583   9.176  69.124  1.00  0.00    -0.208 C  
HETATM    8  C   UNL     1     -10.073   6.915  67.447  1.00  0.00    -0.237 C  
HETATM    9  N   UNL     1     -10.634   7.860  69.549  1.00  0.00    -0.230 NA 
HETATM   10  C   UNL     1     -10.319   6.762  68.772  1.00  0.00    -0.196 C  
HETATM   11  C   UNL     1     -10.110   8.317  66.803  1.00  0.00    -0.373 C  
HETATM   12  C   UNL     1     -10.269   5.449  69.516  1.00  0.00    -0.336 C  
BRANCH   7  13
HETATM   13  C   UNL     1     -10.921  10.213  70.192  1.00  0.00    -0.316 C  
BRANCH  13  14
HETATM   14  O   UNL     1     -12.204  10.807  69.984  1.00  0.00    -0.312 OA 
BRANCH  14  15
HETATM   15  C   UNL     1     -12.347  12.055  70.670  1.00  0.00    -0.304 C  
BRANCH  15  16
HETATM   16  C   UNL     1     -12.033  13.207  69.713  1.00  0.00    -0.314 C  
HETATM   17  N   UNL     1     -11.206  14.231  70.356  1.00  0.00    -0.487 NA 
HETATM   18  H2  UNL     1     -10.354  13.829  70.748  1.00  0.00     0.000 HD 
HETATM   19  H1  UNL     1     -10.997  14.998  69.717  1.00  0.00     0.000 HD 
ENDBRANCH  15  16
ENDBRANCH  14  15
ENDBRANCH  13  14
ENDBRANCH   7  13
BRANCH   8  20
HETATM   20  C   UNL     1      -9.707   5.725  66.630  1.00  0.00    -0.157 C  
HETATM   21  O   UNL     1      -8.577   5.265  66.542  1.00  0.00    -0.112 OA 
BRANCH  20  22
HETATM   22  O   UNL     1     -10.792   5.205  66.002  1.00  0.00    -0.252 OA 
HETATM   23  C   UNL     1     -10.461   4.183  65.057  1.00  0.00    -0.167 C  
ENDBRANCH  20  22
ENDBRANCH   8  20
BRANCH  11  24
HETATM   24  C   UNL     1      -8.928   8.570  65.847  1.00  0.00    -0.235 A  
HETATM   25  C   UNL     1      -9.233   8.945  64.517  1.00  0.00     0.258 A  
HETATM   26  C   UNL     1      -8.225   9.157  63.574  1.00  0.00    -0.178 A  
HETATM   27  C   UNL     1      -6.894   9.005  63.940  1.00  0.00    -0.088 A  
HETATM   28  C   UNL     1      -6.570   8.660  65.252  1.00  0.00    -0.064 A  
HETATM   29  C   UNL     1      -7.576   8.450  66.202  1.00  0.00    -0.089 A  
HETATM   30 CL   UNL     1      -7.071   8.055  67.806  1.00  0.00    -0.084 Cl 
ENDBRANCH  11  24
ENDBRANCH   4   6
ENDBRANCH   3   4
ENDBRANCH   2   3
TORSDOF 10
ENDMDL
MODEL      130
REMARK 921   NORMALIZED FREE ENERGY PREDICTED BY IDOCK:   -3.33 KCAL/MOL
REMARK 922        TOTAL FREE ENERGY PREDICTED BY IDOCK:   -7.02 KCAL/MOL
REMARK 923 INTER-LIGAND FREE ENERGY PREDICTED BY IDOCK:   -5.18 KCAL/MOL
REMARK 924 INTRA-LIGAND FREE ENERGY PREDICTED BY IDOCK:   -1.83 KCAL/MOL
REMARK 927      BINDING AFFINITY PREDICTED BY RF-SCORE:    0.00 PKD
ROOT
HETATM    1  C   UNL     1     -11.527   8.409  72.014  1.00  0.00    -0.418 C  
HETATM    2  C   UNL     1     -10.075   8.832  72.112  1.00  0.00    -0.292 C  
ENDROOT
BRANCH   2   3
HETATM    3  O   UNL     1      -9.754   9.389  70.843  1.00  0.00    -0.272 OA 
BRANCH   3   4
HETATM    4  C   UNL     1      -8.457   9.512  70.480  1.00  0.00    -0.169 C  
HETATM    5  O   UNL     1      -7.513   9.669  71.236  1.00  0.00    -0.310 OA 
BRANCH   4   6
HETATM    6  C   UNL     1      -8.350   9.214  69.022  1.00  0.00    -0.127 C  
HETATM    7  C   UNL     1      -8.703  10.117  68.073  1.00  0.00    -0.122 C  
HETATM    8  C   UNL     1      -7.923   7.537  67.115  1.00  0.00    -0.117 C  
HETATM    9  N   UNL     1      -8.635   9.767  66.735  1.00  0.00    -0.127 NA 
HETATM   10  C   UNL     1      -8.332   8.506  66.259  1.00  0.00    -0.116 C  
HETATM   11  C   UNL     1      -7.825   7.823  68.629  1.00  0.00    -0.120 C  
HETATM   12  C   UNL     1      -8.507   8.328  64.770  1.00  0.00    -0.089 C  
BRANCH   7  13
HETATM   13  C   UNL     1      -9.118  11.562  68.341  1.00  0.00    -0.185 C  
BRANCH  13  14
HETATM   14  O   UNL     1     -10.146  12.004  67.451  1.00  0.00    -0.193 OA 
BRANCH  14  15
HETATM   15  C   UNL     1     -10.075  13.410  67.189  1.00  0.00    -0.240 C  
BRANCH  15  16
HETATM   16  C   UNL     1     -10.133  13.656  65.679  1.00  0.00    -0.284 C  
HETATM   17  N   UNL     1      -9.750  12.460  64.925  1.00  0.00    -0.467 NA 
HETATM   18  H2  UNL     1     -10.313  11.653  65.194  1.00  0.00     0.000 HD 
HETATM   19  H1  UNL     1      -9.789  12.624  63.919  1.00  0.00     0.000 HD 
ENDBRANCH  15  16
ENDBRANCH  14  15
ENDBRANCH  13  14
ENDBRANCH   7  13
BRANCH   8  20
HETATM   20  C   UNL     1      -7.629   6.175  66.590  1.00  0.00    -0.095 C  
HETATM   21  O   UNL     1      -6.507   5.753  66.346  1.00  0.00    -0.043 OA 
BRANCH  20  22
HETATM   22  O   UNL     1      -8.766   5.453  66.426  1.00  0.00    -0.117 OA 
HETATM   23  C   UNL     1      -8.697   4.530  65.335  1.00  0.00    -0.129 C  
ENDBRANCH  20  22
ENDBRANCH   8  20
BRANCH  11  24
HETATM   24  C   UNL     1      -8.413   6.691  69.493  1.00  0.00    -0.132 A  
HETATM   25  C   UNL     1      -7.520   5.972  70.323  1.00  0.00    -0.090 A  
HETATM   26  C   UNL     1      -7.961   4.907  71.111  1.00  0.00    -0.092 A  
HETATM   27  C   UNL     1      -9.300   4.541  71.092  1.00  0.00    -0.212 A  
HETATM   28  C   UNL     1     -10.202   5.252  70.300  1.00  0.00    -0.345 A  
HETATM   29  C   UNL     1      -9.767   6.323  69.511  1.00  0.00    -0.146 A  
HETATM   30 CL   UNL     1     -10.965   7.157  68.588  1.00  0.00    -0.133 Cl 
ENDBRANCH  11  24
ENDBRANCH   4   6
ENDBRANCH   3   4
ENDBRANCH   2   3
TORSDOF 10
ENDMDL
MODEL      131
REMARK 921   NORMALIZED FREE ENERGY PREDICTED BY IDOCK:   -3.33 KCAL/MOL
REMARK 922        TOTAL FREE ENERGY PREDICTED BY IDOCK:   -7.00 KCAL/MOL
REMARK 923 INTER-LIGAND FREE ENERGY PREDICTED BY IDOCK:   -5.68 KCAL/MOL
REMARK 924 INTRA-LIGAND FREE ENERGY PREDICTED BY IDOCK:   -1.32 KCAL/MOL
REMARK 927      BINDING AFFINITY PREDICTED BY RF-SCORE:    0.00 PKD
ROOT
HETATM    1  C   UNL     1      -5.908   7.127  66.976  1.00  0.00    -0.026 C  
HETATM    2  C   UNL     1      -7.302   7.637  67.281  1.00  0.00    -0.091 C  
ENDROOT
BRANCH   2   3
HETATM    3  O   UNL     1      -7.414   7.612  68.699  1.00  0.00    -0.098 OA 
BRANCH   3   4
HETATM    4  C   UNL     1      -7.377   8.775  69.389  1.00  0.00    -0.072 C  
HETATM    5  O   UNL     1      -6.497   9.618  69.326  1.00  0.00    -0.043 OA 
BRANCH   4   6
HETATM    6  C   UNL     1      -8.689   8.953  70.075  1.00  0.00    -0.151 C  
HETATM    7  C   UNL     1      -9.125   8.094  71.032  1.00  0.00    -0.152 C  
HETATM    8  C   UNL     1     -10.958  10.155  70.272  1.00  0.00    -0.380 C  
HETATM    9  N   UNL     1     -10.375   8.276  71.597  1.00  0.00    -0.208 NA 
HETATM   10  C   UNL     1     -11.301   9.218  71.192  1.00  0.00    -0.342 C  
HETATM   11  C   UNL     1      -9.546  10.156  69.648  1.00  0.00    -0.237 C  
HETATM   12  C   UNL     1     -12.660   9.094  71.835  1.00  0.00    -0.463 C  
BRANCH   7  13
HETATM   13  C   UNL     1      -8.312   6.943  71.621  1.00  0.00    -0.109 C  
BRANCH  13  14
HETATM   14  O   UNL     1      -9.058   6.189  72.580  1.00  0.00    -0.141 OA 
BRANCH  14  15
HETATM   15  C   UNL     1      -8.812   4.783  72.480  1.00  0.00    -0.118 C  
BRANCH  15  16
HETATM   16  C   UNL     1      -9.915   4.126  71.646  1.00  0.00    -0.170 C  
HETATM   17  N   UNL     1      -9.552   2.764  71.251  1.00  0.00    -0.153 NA 
HETATM   18  H2  UNL     1      -9.306   2.193  72.061  1.00  0.00     0.000 HD 
HETATM   19  H1  UNL     1     -10.287   2.326  70.696  1.00  0.00     0.000 HD 
ENDBRANCH  15  16
ENDBRANCH  14  15
ENDBRANCH  13  14
ENDBRANCH   7  13
BRANCH   8  20
HETATM   20  C   UNL     1     -11.975  11.145  69.825  1.00  0.00    -0.357 C  
HETATM   21  O   UNL     1     -12.742  10.977  68.886  1.00  0.00    -0.216 OA 
BRANCH  20  22
HETATM   22  O   UNL     1     -11.954  12.259  70.601  1.00  0.00    -0.318 OA 
HETATM   23  C   UNL     1     -11.986  13.474  69.845  1.00  0.00    -0.348 C  
ENDBRANCH  20  22
ENDBRANCH   8  20
BRANCH  11  24
HETATM   24  C   UNL     1      -9.565  10.370  68.122  1.00  0.00    -0.155 A  
HETATM   25  C   UNL     1      -8.943  11.537  67.619  1.00  0.00    -0.160 A  
HETATM   26  C   UNL     1      -8.946  11.829  66.253  1.00  0.00    -0.176 A  
HETATM   27  C   UNL     1      -9.563  10.961  65.363  1.00  0.00    -0.271 A  
HETATM   28  C   UNL     1     -10.160   9.791  65.834  1.00  0.00    -0.314 A  
HETATM   29  C   UNL     1     -10.157   9.492  67.201  1.00  0.00    -0.229 A  
HETATM   30 CL   UNL     1     -10.897   8.007  67.682  1.00  0.00    -0.186 Cl 
ENDBRANCH  11  24
ENDBRANCH   4   6
ENDBRANCH   3   4
ENDBRANCH   2   3
TORSDOF 10
ENDMDL
MODEL      132
REMARK 921   NORMALIZED FREE ENERGY PREDICTED BY IDOCK:   -3.31 KCAL/MOL
REMARK 922        TOTAL FREE ENERGY PREDICTED BY IDOCK:   -6.98 KCAL/MOL
REMARK 923 INTER-LIGAND FREE ENERGY PREDICTED BY IDOCK:   -5.61 KCAL/MOL
REMARK 924 INTRA-LIGAND FREE ENERGY PREDICTED BY IDOCK:   -1.38 KCAL/MOL
REMARK 927      BINDING AFFINITY PREDICTED BY RF-SCORE:    0.00 PKD
ROOT
HETATM    1  C   UNL     1     -11.151  16.490  68.807  1.00  0.00    -0.309 C  
HETATM    2  C   UNL     1     -10.072  15.655  69.466  1.00  0.00    -0.277 C  
ENDROOT
BRANCH   2   3
HETATM    3  O   UNL     1      -8.905  15.848  68.674  1.00  0.00    -0.185 OA 
BRANCH   3   4
HETATM    4  C   UNL     1      -8.655  15.005  67.645  1.00  0.00    -0.171 C  
HETATM    5  O   UNL     1      -8.656  15.297  66.461  1.00  0.00    -0.276 OA 
BRANCH   4   6
HETATM    6  C   UNL     1      -8.173  13.711  68.210  1.00  0.00    -0.156 C  
HETATM    7  C   UNL     1      -6.894  13.540  68.632  1.00  0.00    -0.098 C  
HETATM    8  C   UNL     1      -8.557  11.214  68.709  1.00  0.00    -0.133 C  
HETATM    9  N   UNL     1      -6.486  12.302  69.096  1.00  0.00    -0.093 NA 
HETATM   10  C   UNL     1      -7.252  11.152  69.072  1.00  0.00    -0.118 C  
HETATM   11  C   UNL     1      -9.189  12.559  68.290  1.00  0.00    -0.186 C  
HETATM   12  C   UNL     1      -6.520   9.890  69.458  1.00  0.00    -0.048 C  
BRANCH   7  13
HETATM   13  C   UNL     1      -5.838  14.640  68.715  1.00  0.00    -0.085 C  
BRANCH  13  14
HETATM   14  O   UNL     1      -5.599  15.060  70.061  1.00  0.00    -0.110 OA 
BRANCH  14  15
HETATM   15  C   UNL     1      -5.129  16.410  70.136  1.00  0.00    -0.163 C  
BRANCH  15  16
HETATM   16  C   UNL     1      -6.185  17.356  69.557  1.00  0.00    -0.249 C  
HETATM   17  N   UNL     1      -5.574  18.413  68.748  1.00  0.00    -0.185 NA 
HETATM   18  H2  UNL     1      -4.979  18.025  68.016  1.00  0.00     0.000 HD 
HETATM   19  H1  UNL     1      -6.278  19.042  68.362  1.00  0.00     0.000 HD 
ENDBRANCH  15  16
ENDBRANCH  14  15
ENDBRANCH  13  14
ENDBRANCH   7  13
BRANCH   8  20
HETATM   20  C   UNL     1      -9.361   9.962  68.660  1.00  0.00    -0.149 C  
HETATM   21  O   UNL     1      -9.447   9.230  67.683  1.00  0.00    -0.131 OA 
BRANCH  20  22
HETATM   22  O   UNL     1      -9.982   9.727  69.844  1.00  0.00    -0.217 OA 
HETATM   23  C   UNL     1     -11.366  10.090  69.838  1.00  0.00    -0.250 C  
ENDBRANCH  20  22
ENDBRANCH   8  20
BRANCH  11  24
HETATM   24  C   UNL     1     -10.067  12.442  67.028  1.00  0.00    -0.223 A  
HETATM   25  C   UNL     1      -9.447  11.986  65.842  1.00  0.00    -0.207 A  
HETATM   26  C   UNL     1     -10.158  11.885  64.644  1.00  0.00    -0.301 A  
HETATM   27  C   UNL     1     -11.502  12.232  64.608  1.00  0.00    -0.392 A  
HETATM   28  C   UNL     1     -12.140  12.661  65.772  1.00  0.00    -0.484 A  
HETATM   29  C   UNL     1     -11.433  12.760  66.977  1.00  0.00    -0.341 A  
HETATM   30 CL   UNL     1     -12.317  13.273  68.368  1.00  0.00    -0.067 Cl 
ENDBRANCH  11  24
ENDBRANCH   4   6
ENDBRANCH   3   4
ENDBRANCH   2   3
TORSDOF 10
ENDMDL
MODEL      133
REMARK 921   NORMALIZED FREE ENERGY PREDICTED BY IDOCK:   -3.31 KCAL/MOL
REMARK 922        TOTAL FREE ENERGY PREDICTED BY IDOCK:   -6.97 KCAL/MOL
REMARK 923 INTER-LIGAND FREE ENERGY PREDICTED BY IDOCK:   -5.08 KCAL/MOL
REMARK 924 INTRA-LIGAND FREE ENERGY PREDICTED BY IDOCK:   -1.90 KCAL/MOL
REMARK 927      BINDING AFFINITY PREDICTED BY RF-SCORE:    0.00 PKD
ROOT
HETATM    1  C   UNL     1      -7.890  12.406  68.247  1.00  0.00    -0.150 C  
HETATM    2  C   UNL     1      -9.372  12.117  68.374  1.00  0.00    -0.170 C  
ENDROOT
BRANCH   2   3
HETATM    3  O   UNL     1      -9.462  10.919  69.137  1.00  0.00    -0.176 OA 
BRANCH   3   4
HETATM    4  C   UNL     1     -10.664  10.315  69.287  1.00  0.00    -0.234 C  
HETATM    5  O   UNL     1     -11.753  10.861  69.226  1.00  0.00    -0.283 OA 
BRANCH   4   6
HETATM    6  C   UNL     1     -10.443   8.841  69.328  1.00  0.00    -0.228 C  
HETATM    7  C   UNL     1     -10.225   8.175  70.491  1.00  0.00    -0.198 C  
HETATM    8  C   UNL     1     -10.043   6.611  68.102  1.00  0.00    -0.174 C  
HETATM    9  N   UNL     1      -9.972   6.815  70.464  1.00  0.00    -0.183 NA 
HETATM   10  C   UNL     1      -9.808   6.060  69.319  1.00  0.00    -0.152 C  
HETATM   11  C   UNL     1     -10.463   8.092  67.984  1.00  0.00    -0.243 C  
HETATM   12  C   UNL     1      -9.352   4.640  69.552  1.00  0.00    -0.208 C  
BRANCH   7  13
HETATM   13  C   UNL     1     -10.305   8.789  71.886  1.00  0.00    -0.344 C  
BRANCH  13  14
HETATM   14  O   UNL     1     -10.479   7.800  72.904  1.00  0.00    -0.292 OA 
BRANCH  14  15
HETATM   15  C   UNL     1      -9.341   7.697  73.766  1.00  0.00    -0.267 C  
BRANCH  15  16
HETATM   16  C   UNL     1      -8.805   6.264  73.741  1.00  0.00    -0.124 C  
HETATM   17  N   UNL     1      -7.846   6.068  72.651  1.00  0.00    -0.103 NA 
HETATM   18  H2  UNL     1      -7.088   6.750  72.694  1.00  0.00     0.000 HD 
HETATM   19  H1  UNL     1      -7.489   5.113  72.634  1.00  0.00     0.000 HD 
ENDBRANCH  15  16
ENDBRANCH  14  15
ENDBRANCH  13  14
ENDBRANCH   7  13
BRANCH   8  20
HETATM   20  C   UNL     1      -9.834   5.792  66.877  1.00  0.00    -0.157 C  
HETATM   21  O   UNL     1     -10.733   5.361  66.168  1.00  0.00    -0.229 OA 
BRANCH  20  22
HETATM   22  O   UNL     1      -8.513   5.594  66.636  1.00  0.00    -0.112 OA 
HETATM   23  C   UNL     1      -8.187   5.595  65.242  1.00  0.00    -0.134 C  
ENDBRANCH  20  22
ENDBRANCH   8  20
BRANCH  11  24
HETATM   24  C   UNL     1      -9.713   8.841  66.866  1.00  0.00    -0.273 A  
HETATM   25  C   UNL     1     -10.489   9.428  65.839  1.00  0.00     0.231 A  
HETATM   26  C   UNL     1      -9.890  10.094  64.767  1.00  0.00    -0.382 A  
HETATM   27  C   UNL     1      -8.507  10.192  64.702  1.00  0.00    -0.178 A  
HETATM   28  C   UNL     1      -7.723   9.642  65.717  1.00  0.00    -0.106 A  
HETATM   29  C   UNL     1      -8.318   8.977  66.795  1.00  0.00    -0.115 A  
HETATM   30 CL   UNL     1      -7.264   8.356  68.014  1.00  0.00    -0.089 Cl 
ENDBRANCH  11  24
ENDBRANCH   4   6
ENDBRANCH   3   4
ENDBRANCH   2   3
TORSDOF 10
ENDMDL
MODEL      134
REMARK 921   NORMALIZED FREE ENERGY PREDICTED BY IDOCK:   -3.30 KCAL/MOL
REMARK 922        TOTAL FREE ENERGY PREDICTED BY IDOCK:   -6.96 KCAL/MOL
REMARK 923 INTER-LIGAND FREE ENERGY PREDICTED BY IDOCK:   -5.10 KCAL/MOL
REMARK 924 INTRA-LIGAND FREE ENERGY PREDICTED BY IDOCK:   -1.86 KCAL/MOL
REMARK 927      BINDING AFFINITY PREDICTED BY RF-SCORE:    0.00 PKD
ROOT
HETATM    1  C   UNL     1      -8.999   9.662  65.111  1.00  0.00    -0.249 C  
HETATM    2  C   UNL     1      -9.413   9.709  66.568  1.00  0.00    -0.181 C  
ENDROOT
BRANCH   2   3
HETATM    3  O   UNL     1      -8.994   8.467  67.122  1.00  0.00    -0.133 OA 
BRANCH   3   4
HETATM    4  C   UNL     1      -9.900   7.477  67.294  1.00  0.00    -0.179 C  
HETATM    5  O   UNL     1     -11.015   7.432  66.804  1.00  0.00    -0.249 OA 
BRANCH   4   6
HETATM    6  C   UNL     1      -9.230   6.351  68.008  1.00  0.00    -0.110 C  
HETATM    7  C   UNL     1      -8.881   5.201  67.377  1.00  0.00    -0.105 C  
HETATM    8  C   UNL     1      -8.432   5.263  70.202  1.00  0.00    -0.109 C  
HETATM    9  N   UNL     1      -8.312   4.168  68.101  1.00  0.00    -0.092 NA 
HETATM   10  C   UNL     1      -8.156   4.152  69.474  1.00  0.00    -0.059 C  
HETATM   11  C   UNL     1      -8.953   6.540  69.509  1.00  0.00    -0.137 C  
HETATM   12  C   UNL     1      -7.685   2.837  70.046  1.00  0.00    -0.045 C  
BRANCH   7  13
HETATM   13  C   UNL     1      -8.994   4.951  65.875  1.00  0.00    -0.134 C  
BRANCH  13  14
HETATM   14  O   UNL     1      -8.247   3.804  65.460  1.00  0.00    -0.100 OA 
BRANCH  14  15
HETATM   15  C   UNL     1      -9.029   2.897  64.676  1.00  0.00    -0.121 C  
BRANCH  15  16
HETATM   16  C   UNL     1      -8.948   1.493  65.281  1.00  0.00    -0.124 C  
HETATM   17  N   UNL     1      -9.364   1.487  66.685  1.00  0.00    -0.337 NA 
HETATM   18  H2  UNL     1     -10.295   1.890  66.799  1.00  0.00     0.000 HD 
HETATM   19  H1  UNL     1      -9.311   0.552  67.088  1.00  0.00     0.000 HD 
ENDBRANCH  15  16
ENDBRANCH  14  15
ENDBRANCH  13  14
ENDBRANCH   7  13
BRANCH   8  20
HETATM   20  C   UNL     1      -8.287   5.220  71.683  1.00  0.00    -0.118 C  
HETATM   21  O   UNL     1      -9.067   4.660  72.441  1.00  0.00    -0.123 OA 
BRANCH  20  22
HETATM   22  O   UNL     1      -7.168   5.873  72.087  1.00  0.00    -0.085 OA 
HETATM   23  C   UNL     1      -7.446   7.044  72.862  1.00  0.00    -0.080 C  
ENDBRANCH  20  22
ENDBRANCH   8  20
BRANCH  11  24
HETATM   24  C   UNL     1     -10.130   7.193  70.261  1.00  0.00    -0.195 A  
HETATM   25  C   UNL     1     -11.277   6.398  70.492  1.00  0.00    -0.414 A  
HETATM   26  C   UNL     1     -12.404   6.920  71.133  1.00  0.00    -0.419 A  
HETATM   27  C   UNL     1     -12.405   8.241  71.560  1.00  0.00    -0.336 A  
HETATM   28  C   UNL     1     -11.275   9.035  71.364  1.00  0.00    -0.394 A  
HETATM   29  C   UNL     1     -10.142   8.517  70.726  1.00  0.00    -0.198 A  
HETATM   30 CL   UNL     1      -8.784   9.570  70.557  1.00  0.00    -0.272 Cl 
ENDBRANCH  11  24
ENDBRANCH   4   6
ENDBRANCH   3   4
ENDBRANCH   2   3
TORSDOF 10
ENDMDL
MODEL      135
REMARK 921   NORMALIZED FREE ENERGY PREDICTED BY IDOCK:   -3.29 KCAL/MOL
REMARK 922        TOTAL FREE ENERGY PREDICTED BY IDOCK:   -6.95 KCAL/MOL
REMARK 923 INTER-LIGAND FREE ENERGY PREDICTED BY IDOCK:   -5.73 KCAL/MOL
REMARK 924 INTRA-LIGAND FREE ENERGY PREDICTED BY IDOCK:   -1.23 KCAL/MOL
REMARK 927      BINDING AFFINITY PREDICTED BY RF-SCORE:    0.00 PKD
ROOT
HETATM    1  C   UNL     1     -11.134   6.640  68.412  1.00  0.00    -0.281 C  
HETATM    2  C   UNL     1     -10.276   7.606  67.619  1.00  0.00    -0.214 C  
ENDROOT
BRANCH   2   3
HETATM    3  O   UNL     1     -11.133   8.695  67.294  1.00  0.00     0.031 OA 
BRANCH   3   4
HETATM    4  C   UNL     1     -11.103   9.813  68.056  1.00  0.00    -0.106 C  
HETATM    5  O   UNL     1     -12.074  10.410  68.491  1.00  0.00    -0.220 OA 
BRANCH   4   6
HETATM    6  C   UNL     1      -9.688  10.073  68.449  1.00  0.00    -0.157 C  
HETATM    7  C   UNL     1      -9.255   9.925  69.727  1.00  0.00    -0.227 C  
HETATM    8  C   UNL     1      -7.337  10.950  67.868  1.00  0.00    -0.088 C  
HETATM    9  N   UNL     1      -7.944  10.232  70.046  1.00  0.00    -0.096 NA 
HETATM   10  C   UNL     1      -7.027  10.797  69.180  1.00  0.00    -0.091 C  
HETATM   11  C   UNL     1      -8.725  10.528  67.339  1.00  0.00    -0.125 C  
HETATM   12  C   UNL     1      -5.722  11.212  69.815  1.00  0.00    -0.073 C  
BRANCH   7  13
HETATM   13  C   UNL     1     -10.084   9.364  70.879  1.00  0.00    -0.296 C  
BRANCH  13  14
HETATM   14  O   UNL     1      -9.320   8.505  71.729  1.00  0.00    -0.203 OA 
BRANCH  14  15
HETATM   15  C   UNL     1      -9.924   7.217  71.890  1.00  0.00    -0.166 C  
BRANCH  15  16
HETATM   16  C   UNL     1     -11.250   7.362  72.642  1.00  0.00    -0.332 C  
HETATM   17  N   UNL     1     -12.076   6.160  72.512  1.00  0.00    -0.537 NA 
HETATM   18  H2  UNL     1     -11.568   5.325  72.808  1.00  0.00     0.000 HD 
HETATM   19  H1  UNL     1     -12.959   6.256  73.014  1.00  0.00     0.000 HD 
ENDBRANCH  15  16
ENDBRANCH  14  15
ENDBRANCH  13  14
ENDBRANCH   7  13
BRANCH   8  20
HETATM   20  C   UNL     1      -6.350  11.586  66.954  1.00  0.00    -0.146 C  
HETATM   21  O   UNL     1      -6.159  12.792  66.868  1.00  0.00    -0.207 OA 
BRANCH  20  22
HETATM   22  O   UNL     1      -5.675  10.656  66.233  1.00  0.00    -0.072 OA 
HETATM   23  C   UNL     1      -6.115  10.565  64.874  1.00  0.00    -0.068 C  
ENDBRANCH  20  22
ENDBRANCH   8  20
BRANCH  11  24
HETATM   24  C   UNL     1      -9.348  11.571  66.391  1.00  0.00    -0.222 A  
HETATM   25  C   UNL     1      -9.553  11.189  65.045  1.00  0.00    -0.278 A  
HETATM   26  C   UNL     1     -10.078  12.082  64.108  1.00  0.00    -0.340 A  
HETATM   27  C   UNL     1     -10.415  13.371  64.499  1.00  0.00    -0.431 A  
HETATM   28  C   UNL     1     -10.246  13.762  65.827  1.00  0.00    -0.322 A  
HETATM   29  C   UNL     1      -9.723  12.869  66.770  1.00  0.00    -0.246 A  
HETATM   30 CL   UNL     1      -9.579  13.437  68.394  1.00  0.00    -0.212 Cl 
ENDBRANCH  11  24
ENDBRANCH   4   6
ENDBRANCH   3   4
ENDBRANCH   2   3
TORSDOF 10
ENDMDL
MODEL      136
REMARK 921   NORMALIZED FREE ENERGY PREDICTED BY IDOCK:   -3.27 KCAL/MOL
REMARK 922        TOTAL FREE ENERGY PREDICTED BY IDOCK:   -6.92 KCAL/MOL
REMARK 923 INTER-LIGAND FREE ENERGY PREDICTED BY IDOCK:   -5.42 KCAL/MOL
REMARK 924 INTRA-LIGAND FREE ENERGY PREDICTED BY IDOCK:   -1.50 KCAL/MOL
REMARK 927      BINDING AFFINITY PREDICTED BY RF-SCORE:    0.00 PKD
ROOT
HETATM    1  C   UNL     1      -9.344  10.273  63.653  1.00  0.00    -0.338 C  
HETATM    2  C   UNL     1      -8.218   9.452  64.247  1.00  0.00    -0.153 C  
ENDROOT
BRANCH   2   3
HETATM    3  O   UNL     1      -8.817   8.673  65.276  1.00  0.00    -0.187 OA 
BRANCH   3   4
HETATM    4  C   UNL     1      -8.045   8.182  66.273  1.00  0.00    -0.107 C  
HETATM    5  O   UNL     1      -6.827   8.223  66.323  1.00  0.00    -0.063 OA 
BRANCH   4   6
HETATM    6  C   UNL     1      -8.937   7.774  67.396  1.00  0.00    -0.128 C  
HETATM    7  C   UNL     1      -9.812   6.742  67.284  1.00  0.00    -0.145 C  
HETATM    8  C   UNL     1      -9.918   8.211  69.737  1.00  0.00    -0.191 C  
HETATM    9  N   UNL     1     -10.655   6.441  68.340  1.00  0.00    -0.228 NA 
HETATM   10  C   UNL     1     -10.771   7.183  69.500  1.00  0.00    -0.239 C  
HETATM   11  C   UNL     1      -8.835   8.581  68.702  1.00  0.00    -0.136 C  
HETATM   12  C   UNL     1     -11.893   6.760  70.417  1.00  0.00    -0.395 C  
BRANCH   7  13
HETATM   13  C   UNL     1      -9.914   5.798  66.089  1.00  0.00    -0.019 C  
BRANCH  13  14
HETATM   14  O   UNL     1     -10.234   4.461  66.480  1.00  0.00    -0.232 OA 
BRANCH  14  15
HETATM   15  C   UNL     1      -9.151   3.551  66.254  1.00  0.00    -0.157 C  
BRANCH  15  16
HETATM   16  C   UNL     1      -8.595   3.071  67.597  1.00  0.00    -0.098 C  
HETATM   17  N   UNL     1      -9.504   3.387  68.700  1.00  0.00    -0.164 NA 
HETATM   18  H2  UNL     1     -10.440   3.016  68.530  1.00  0.00     0.000 HD 
HETATM   19  H1  UNL     1      -9.134   3.066  69.595  1.00  0.00     0.000 HD 
ENDBRANCH  15  16
ENDBRANCH  14  15
ENDBRANCH  13  14
ENDBRANCH   7  13
BRANCH   8  20
HETATM   20  C   UNL     1     -10.075   9.018  70.978  1.00  0.00    -0.282 C  
HETATM   21  O   UNL     1      -9.499   8.788  72.033  1.00  0.00    -0.281 OA 
BRANCH  20  22
HETATM   22  O   UNL     1     -10.931  10.054  70.787  1.00  0.00    -0.313 OA 
HETATM   23  C   UNL     1     -12.134   9.941  71.554  1.00  0.00    -0.410 C  
ENDBRANCH  20  22
ENDBRANCH   8  20
BRANCH  11  24
HETATM   24  C   UNL     1      -8.726  10.099  68.463  1.00  0.00    -0.123 A  
HETATM   25  C   UNL     1      -7.520  10.735  68.844  1.00  0.00    -0.116 A  
HETATM   26  C   UNL     1      -7.349  12.113  68.699  1.00  0.00    -0.109 A  
HETATM   27  C   UNL     1      -8.375  12.883  68.166  1.00  0.00    -0.168 A  
HETATM   28  C   UNL     1      -9.562  12.274  67.760  1.00  0.00    -0.200 A  
HETATM   29  C   UNL     1      -9.737  10.892  67.900  1.00  0.00    -0.165 A  
HETATM   30 CL   UNL     1     -11.231  10.229  67.342  1.00  0.00    -0.268 Cl 
ENDBRANCH  11  24
ENDBRANCH   4   6
ENDBRANCH   3   4
ENDBRANCH   2   3
TORSDOF 10
ENDMDL
MODEL      137
REMARK 921   NORMALIZED FREE ENERGY PREDICTED BY IDOCK:   -3.24 KCAL/MOL
REMARK 922        TOTAL FREE ENERGY PREDICTED BY IDOCK:   -6.87 KCAL/MOL
REMARK 923 INTER-LIGAND FREE ENERGY PREDICTED BY IDOCK:   -4.95 KCAL/MOL
REMARK 924 INTRA-LIGAND FREE ENERGY PREDICTED BY IDOCK:   -1.92 KCAL/MOL
REMARK 927      BINDING AFFINITY PREDICTED BY RF-SCORE:    0.00 PKD
ROOT
HETATM    1  C   UNL     1      -6.583   8.854  68.298  1.00  0.00    -0.060 C  
HETATM    2  C   UNL     1      -6.421   7.347  68.295  1.00  0.00    -0.045 C  
ENDROOT
BRANCH   2   3
HETATM    3  O   UNL     1      -7.708   6.827  67.981  1.00  0.00    -0.107 OA 
BRANCH   3   4
HETATM    4  C   UNL     1      -8.095   5.646  68.515  1.00  0.00    -0.103 C  
HETATM    5  O   UNL     1      -7.446   4.614  68.520  1.00  0.00    -0.064 OA 
BRANCH   4   6
HETATM    6  C   UNL     1      -9.354   5.872  69.282  1.00  0.00    -0.147 C  
HETATM    7  C   UNL     1     -10.527   6.176  68.671  1.00  0.00    -0.236 C  
HETATM    8  C   UNL     1     -10.570   6.184  71.531  1.00  0.00    -0.288 C  
HETATM    9  N   UNL     1     -11.653   6.429  69.435  1.00  0.00    -0.315 NA 
HETATM   10  C   UNL     1     -11.674   6.510  70.814  1.00  0.00    -0.366 C  
HETATM   11  C   UNL     1      -9.273   5.754  70.814  1.00  0.00    -0.171 C  
HETATM   12  C   UNL     1     -12.980   6.984  71.405  1.00  0.00    -0.395 C  
BRANCH   7  13
HETATM   13  C   UNL     1     -10.755   6.198  67.161  1.00  0.00    -0.346 C  
BRANCH  13  14
HETATM   14  O   UNL     1     -10.743   4.887  66.592  1.00  0.00    -0.223 OA 
BRANCH  14  15
HETATM   15  C   UNL     1      -9.796   4.762  65.526  1.00  0.00    -0.145 C  
BRANCH  15  16
HETATM   16  C   UNL     1      -9.189   3.356  65.539  1.00  0.00    -0.153 C  
HETATM   17  N   UNL     1      -9.371   2.705  66.839  1.00  0.00    -0.368 NA 
HETATM   18  H2  UNL     1     -10.353   2.690  67.115  1.00  0.00     0.000 HD 
HETATM   19  H1  UNL     1      -8.967   1.769  66.848  1.00  0.00     0.000 HD 
ENDBRANCH  15  16
ENDBRANCH  14  15
ENDBRANCH  13  14
ENDBRANCH   7  13
BRANCH   8  20
HETATM   20  C   UNL     1     -10.600   6.304  73.015  1.00  0.00    -0.239 C  
HETATM   21  O   UNL     1     -10.889   7.326  73.623  1.00  0.00    -0.356 OA 
BRANCH  20  22
HETATM   22  O   UNL     1     -10.278   5.128  73.611  1.00  0.00    -0.173 OA 
HETATM   23  C   UNL     1     -11.363   4.195  73.643  1.00  0.00    -0.181 C  
ENDBRANCH  20  22
ENDBRANCH   8  20
BRANCH  11  24
HETATM   24  C   UNL     1      -8.013   6.419  71.402  1.00  0.00    -0.105 A  
HETATM   25  C   UNL     1      -8.002   7.830  71.493  1.00  0.00    -0.097 A  
HETATM   26  C   UNL     1      -6.887   8.518  71.979  1.00  0.00    -0.096 A  
HETATM   27  C   UNL     1      -5.765   7.810  72.389  1.00  0.00    -0.036 A  
HETATM   28  C   UNL     1      -5.763   6.416  72.331  1.00  0.00    -0.037 A  
HETATM   29  C   UNL     1      -6.879   5.722  71.849  1.00  0.00    -0.068 A  
HETATM   30 CL   UNL     1      -6.790   3.998  71.844  1.00  0.00    -0.029 Cl 
ENDBRANCH  11  24
ENDBRANCH   4   6
ENDBRANCH   3   4
ENDBRANCH   2   3
TORSDOF 10
ENDMDL
MODEL      138
REMARK 921   NORMALIZED FREE ENERGY PREDICTED BY IDOCK:   -3.23 KCAL/MOL
REMARK 922        TOTAL FREE ENERGY PREDICTED BY IDOCK:   -6.85 KCAL/MOL
REMARK 923 INTER-LIGAND FREE ENERGY PREDICTED BY IDOCK:   -5.15 KCAL/MOL
REMARK 924 INTRA-LIGAND FREE ENERGY PREDICTED BY IDOCK:   -1.69 KCAL/MOL
REMARK 927      BINDING AFFINITY PREDICTED BY RF-SCORE:    0.00 PKD
ROOT
HETATM    1  C   UNL     1      -5.140   8.996  67.601  1.00  0.00    -0.034 C  
HETATM    2  C   UNL     1      -6.607   9.289  67.844  1.00  0.00    -0.063 C  
ENDROOT
BRANCH   2   3
HETATM    3  O   UNL     1      -6.859   8.878  69.183  1.00  0.00    -0.053 OA 
BRANCH   3   4
HETATM    4  C   UNL     1      -7.244   9.797  70.098  1.00  0.00    -0.145 C  
HETATM    5  O   UNL     1      -7.019  10.995  70.050  1.00  0.00    -0.121 OA 
BRANCH   4   6
HETATM    6  C   UNL     1      -8.168   9.135  71.065  1.00  0.00    -0.186 C  
HETATM    7  C   UNL     1      -7.719   8.292  72.030  1.00  0.00    -0.119 C  
HETATM    8  C   UNL     1     -10.559   8.573  71.835  1.00  0.00    -0.392 C  
HETATM    9  N   UNL     1      -8.626   7.663  72.864  1.00  0.00    -0.130 NA 
HETATM   10  C   UNL     1     -10.000   7.729  72.738  1.00  0.00    -0.260 C  
HETATM   11  C   UNL     1      -9.668   9.440  70.921  1.00  0.00    -0.320 C  
HETATM   12  C   UNL     1     -10.769   6.805  73.651  1.00  0.00    -0.280 C  
BRANCH   7  13
HETATM   13  C   UNL     1      -6.252   8.013  72.344  1.00  0.00    -0.052 C  
BRANCH  13  14
HETATM   14  O   UNL     1      -5.957   6.613  72.355  1.00  0.00    -0.038 OA 
BRANCH  14  15
HETATM   15  C   UNL     1      -5.909   6.054  71.038  1.00  0.00    -0.022 C  
BRANCH  15  16
HETATM   16  C   UNL     1      -6.773   4.791  70.984  1.00  0.00    -0.031 C  
HETATM   17  N   UNL     1      -8.199   5.112  71.071  1.00  0.00    -0.109 NA 
HETATM   18  H2  UNL     1      -8.475   5.784  70.354  1.00  0.00     0.000 HD 
HETATM   19  H1  UNL     1      -8.775   4.271  71.034  1.00  0.00     0.000 HD 
ENDBRANCH  15  16
ENDBRANCH  14  15
ENDBRANCH  13  14
ENDBRANCH   7  13
BRANCH   8  20
HETATM   20  C   UNL     1     -12.041   8.611  71.691  1.00  0.00    -0.326 C  
HETATM   21  O   UNL     1     -12.749   9.540  72.054  1.00  0.00    -0.380 OA 
BRANCH  20  22
HETATM   22  O   UNL     1     -12.507   7.486  71.093  1.00  0.00    -0.319 OA 
HETATM   23  C   UNL     1     -13.842   7.149  71.486  1.00  0.00    -0.305 C  
ENDBRANCH  20  22
ENDBRANCH   8  20
BRANCH  11  24
HETATM   24  C   UNL     1     -10.143   9.450  69.454  1.00  0.00    -0.204 A  
HETATM   25  C   UNL     1      -9.945   8.271  68.697  1.00  0.00    -0.203 A  
HETATM   26  C   UNL     1     -10.311   8.204  67.351  1.00  0.00    -0.351 A  
HETATM   27  C   UNL     1     -10.885   9.308  66.736  1.00  0.00     0.012 A  
HETATM   28  C   UNL     1     -11.112  10.473  67.470  1.00  0.00    -0.358 A  
HETATM   29  C   UNL     1     -10.751  10.544  68.821  1.00  0.00    -0.216 A  
HETATM   30 CL   UNL     1     -11.099  12.018  69.650  1.00  0.00    -0.148 Cl 
ENDBRANCH  11  24
ENDBRANCH   4   6
ENDBRANCH   3   4
ENDBRANCH   2   3
TORSDOF 10
ENDMDL
MODEL      139
REMARK 921   NORMALIZED FREE ENERGY PREDICTED BY IDOCK:   -3.20 KCAL/MOL
REMARK 922        TOTAL FREE ENERGY PREDICTED BY IDOCK:   -6.81 KCAL/MOL
REMARK 923 INTER-LIGAND FREE ENERGY PREDICTED BY IDOCK:   -6.09 KCAL/MOL
REMARK 924 INTRA-LIGAND FREE ENERGY PREDICTED BY IDOCK:   -0.72 KCAL/MOL
REMARK 927      BINDING AFFINITY PREDICTED BY RF-SCORE:    0.00 PKD
ROOT
HETATM    1  C   UNL     1      -9.931   5.303  65.899  1.00  0.00    -0.103 C  
HETATM    2  C   UNL     1     -10.817   6.124  66.815  1.00  0.00    -0.285 C  
ENDROOT
BRANCH   2   3
HETATM    3  O   UNL     1     -10.384   7.470  66.657  1.00  0.00    -0.264 OA 
BRANCH   3   4
HETATM    4  C   UNL     1      -9.421   7.958  67.473  1.00  0.00    -0.145 C  
HETATM    5  O   UNL     1      -8.230   7.704  67.409  1.00  0.00    -0.114 OA 
BRANCH   4   6
HETATM    6  C   UNL     1     -10.028   9.020  68.327  1.00  0.00    -0.198 C  
HETATM    7  C   UNL     1     -10.808   8.726  69.398  1.00  0.00    -0.110 C  
HETATM    8  C   UNL     1     -10.554  11.503  68.759  1.00  0.00    -0.241 C  
HETATM    9  N   UNL     1     -11.390   9.752  70.123  1.00  0.00    -0.254 NA 
HETATM   10  C   UNL     1     -11.339  11.091  69.786  1.00  0.00    -0.292 C  
HETATM   11  C   UNL     1      -9.740  10.480  67.939  1.00  0.00    -0.171 C  
HETATM   12  C   UNL     1     -12.209  11.993  70.627  1.00  0.00    -0.409 C  
BRANCH   7  13
HETATM   13  C   UNL     1     -11.061   7.324  69.947  1.00  0.00    -0.212 C  
BRANCH  13  14
HETATM   14  O   UNL     1     -10.025   6.896  70.835  1.00  0.00    -0.189 OA 
BRANCH  14  15
HETATM   15  C   UNL     1     -10.469   5.883  71.744  1.00  0.00    -0.227 C  
BRANCH  15  16
HETATM   16  C   UNL     1     -10.745   6.507  73.114  1.00  0.00    -0.269 C  
HETATM   17  N   UNL     1     -10.341   7.914  73.156  1.00  0.00    -0.336 NA 
HETATM   18  H2  UNL     1     -10.779   8.450  72.406  1.00  0.00     0.000 HD 
HETATM   19  H1  UNL     1     -10.525   8.330  74.068  1.00  0.00     0.000 HD 
ENDBRANCH  15  16
ENDBRANCH  14  15
ENDBRANCH  13  14
ENDBRANCH   7  13
BRANCH   8  20
HETATM   20  C   UNL     1     -10.532  12.945  68.391  1.00  0.00    -0.251 C  
HETATM   21  O   UNL     1      -9.581  13.694  68.572  1.00  0.00    -0.217 OA 
BRANCH  20  22
HETATM   22  O   UNL     1     -11.701  13.325  67.814  1.00  0.00    -0.319 OA 
HETATM   23  C   UNL     1     -11.550  14.410  66.893  1.00  0.00    -0.388 C  
ENDBRANCH  20  22
ENDBRANCH   8  20
BRANCH  11  24
HETATM   24  C   UNL     1      -9.822  10.727  66.420  1.00  0.00    -0.254 A  
HETATM   25  C   UNL     1     -11.104  10.945  65.863  1.00  0.00     0.037 A  
HETATM   26  C   UNL     1     -11.275  11.140  64.490  1.00  0.00    -0.064 A  
HETATM   27  C   UNL     1     -10.171  11.127  63.649  1.00  0.00    -0.444 A  
HETATM   28  C   UNL     1      -8.895  10.939  64.180  1.00  0.00    -0.055 A  
HETATM   29  C   UNL     1      -8.717  10.747  65.555  1.00  0.00    -0.187 A  
HETATM   30 CL   UNL     1      -7.097  10.552  66.119  1.00  0.00    -0.130 Cl 
ENDBRANCH  11  24
ENDBRANCH   4   6
ENDBRANCH   3   4
ENDBRANCH   2   3
TORSDOF 10
ENDMDL
MODEL      140
REMARK 921   NORMALIZED FREE ENERGY PREDICTED BY IDOCK:   -3.20 KCAL/MOL
REMARK 922        TOTAL FREE ENERGY PREDICTED BY IDOCK:   -6.80 KCAL/MOL
REMARK 923 INTER-LIGAND FREE ENERGY PREDICTED BY IDOCK:   -4.80 KCAL/MOL
REMARK 924 INTRA-LIGAND FREE ENERGY PREDICTED BY IDOCK:   -2.00 KCAL/MOL
REMARK 927      BINDING AFFINITY PREDICTED BY RF-SCORE:    0.00 PKD
ROOT
HETATM    1  C   UNL     1      -5.678   9.330  66.707  1.00  0.00    -0.051 C  
HETATM    2  C   UNL     1      -6.813   9.765  67.612  1.00  0.00    -0.085 C  
ENDROOT
BRANCH   2   3
HETATM    3  O   UNL     1      -6.805   8.847  68.700  1.00  0.00    -0.061 OA 
BRANCH   3   4
HETATM    4  C   UNL     1      -7.105   9.288  69.943  1.00  0.00    -0.064 C  
HETATM    5  O   UNL     1      -6.848  10.391  70.395  1.00  0.00    -0.227 OA 
BRANCH   4   6
HETATM    6  C   UNL     1      -7.988   8.277  70.595  1.00  0.00    -0.094 C  
HETATM    7  C   UNL     1      -7.522   7.070  71.006  1.00  0.00    -0.081 C  
HETATM    8  C   UNL     1     -10.338   7.487  71.290  1.00  0.00    -0.203 C  
HETATM    9  N   UNL     1      -8.397   6.150  71.555  1.00  0.00    -0.126 NA 
HETATM   10  C   UNL     1      -9.768   6.304  71.632  1.00  0.00    -0.161 C  
HETATM   11  C   UNL     1      -9.467   8.655  70.782  1.00  0.00    -0.231 C  
HETATM   12  C   UNL     1     -10.522   5.083  72.100  1.00  0.00    -0.274 C  
BRANCH   7  13
HETATM   13  C   UNL     1      -6.058   6.636  70.985  1.00  0.00    -0.036 C  
BRANCH  13  14
HETATM   14  O   UNL     1      -5.875   5.382  70.324  1.00  0.00    -0.018 OA 
BRANCH  14  15
HETATM   15  C   UNL     1      -6.161   5.455  68.923  1.00  0.00    -0.033 C  
BRANCH  15  16
HETATM   16  C   UNL     1      -6.918   4.198  68.486  1.00  0.00    -0.051 C  
HETATM   17  N   UNL     1      -8.285   4.184  69.012  1.00  0.00    -0.070 NA 
HETATM   18  H2  UNL     1      -8.791   5.033  68.757  1.00  0.00     0.000 HD 
HETATM   19  H1  UNL     1      -8.790   3.347  68.721  1.00  0.00     0.000 HD 
ENDBRANCH  15  16
ENDBRANCH  14  15
ENDBRANCH  13  14
ENDBRANCH   7  13
BRANCH   8  20
HETATM   20  C   UNL     1     -11.818   7.628  71.352  1.00  0.00    -0.293 C  
HETATM   21  O   UNL     1     -12.603   7.040  70.620  1.00  0.00    -0.260 OA 
BRANCH  20  22
HETATM   22  O   UNL     1     -12.191   8.487  72.335  1.00  0.00    -0.376 OA 
HETATM   23  C   UNL     1     -13.497   9.039  72.137  1.00  0.00    -0.459 C  
ENDBRANCH  20  22
ENDBRANCH   8  20
BRANCH  11  24
HETATM   24  C   UNL     1     -10.068   9.360  69.550  1.00  0.00    -0.214 A  
HETATM   25  C   UNL     1     -10.470  10.708  69.701  1.00  0.00    -0.219 A  
HETATM   26  C   UNL     1     -11.059  11.412  68.648  1.00  0.00    -0.290 A  
HETATM   27  C   UNL     1     -11.251  10.787  67.423  1.00  0.00    -0.315 A  
HETATM   28  C   UNL     1     -10.839   9.466  67.244  1.00  0.00    -0.165 A  
HETATM   29  C   UNL     1     -10.245   8.757  68.295  1.00  0.00    -0.201 A  
HETATM   30 CL   UNL     1      -9.744   7.138  67.966  1.00  0.00    -0.143 Cl 
ENDBRANCH  11  24
ENDBRANCH   4   6
ENDBRANCH   3   4
ENDBRANCH   2   3
TORSDOF 10
ENDMDL
MODEL      141
REMARK 921   NORMALIZED FREE ENERGY PREDICTED BY IDOCK:   -3.18 KCAL/MOL
REMARK 922        TOTAL FREE ENERGY PREDICTED BY IDOCK:   -6.78 KCAL/MOL
REMARK 923 INTER-LIGAND FREE ENERGY PREDICTED BY IDOCK:   -4.81 KCAL/MOL
REMARK 924 INTRA-LIGAND FREE ENERGY PREDICTED BY IDOCK:   -1.97 KCAL/MOL
REMARK 927      BINDING AFFINITY PREDICTED BY RF-SCORE:    0.00 PKD
ROOT
HETATM    1  C   UNL     1     -11.781   9.787  71.379  1.00  0.00    -0.475 C  
HETATM    2  C   UNL     1     -11.535  10.693  70.189  1.00  0.00    -0.329 C  
ENDROOT
BRANCH   2   3
HETATM    3  O   UNL     1     -10.927   9.866  69.203  1.00  0.00    -0.224 OA 
BRANCH   3   4
HETATM    4  C   UNL     1      -9.586   9.916  69.030  1.00  0.00    -0.186 C  
HETATM    5  O   UNL     1      -8.815  10.664  69.608  1.00  0.00    -0.045 OA 
BRANCH   4   6
HETATM    6  C   UNL     1      -9.183   8.763  68.173  1.00  0.00    -0.145 C  
HETATM    7  C   UNL     1      -9.389   8.755  66.831  1.00  0.00    -0.167 C  
HETATM    8  C   UNL     1      -8.314   6.350  67.946  1.00  0.00    -0.118 C  
HETATM    9  N   UNL     1      -9.045   7.636  66.093  1.00  0.00    -0.168 NA 
HETATM   10  C   UNL     1      -8.595   6.442  66.623  1.00  0.00    -0.121 C  
HETATM   11  C   UNL     1      -8.525   7.564  68.876  1.00  0.00    -0.129 C  
HETATM   12  C   UNL     1      -8.469   5.311  65.630  1.00  0.00    -0.135 C  
BRANCH   7  13
HETATM   13  C   UNL     1      -9.918   9.930  66.012  1.00  0.00    -0.268 C  
BRANCH  13  14
HETATM   14  O   UNL     1      -9.932   9.650  64.610  1.00  0.00    -0.054 OA 
BRANCH  14  15
HETATM   15  C   UNL     1      -9.101  10.547  63.865  1.00  0.00    -0.233 C  
BRANCH  15  16
HETATM   16  C   UNL     1      -7.635  10.128  64.009  1.00  0.00    -0.128 C  
HETATM   17  N   UNL     1      -7.399   8.797  63.444  1.00  0.00    -0.098 NA 
HETATM   18  H2  UNL     1      -7.709   8.744  62.473  1.00  0.00     0.000 HD 
HETATM   19  H1  UNL     1      -6.422   8.518  63.539  1.00  0.00     0.000 HD 
ENDBRANCH  15  16
ENDBRANCH  14  15
ENDBRANCH  13  14
ENDBRANCH   7  13
BRANCH   8  20
HETATM   20  C   UNL     1      -7.857   5.049  68.507  1.00  0.00    -0.082 C  
HETATM   21  O   UNL     1      -8.513   4.016  68.488  1.00  0.00    -0.088 OA 
BRANCH  20  22
HETATM   22  O   UNL     1      -6.610   5.149  69.033  1.00  0.00    -0.047 OA 
HETATM   23  C   UNL     1      -5.579   5.190  68.040  1.00  0.00    -0.012 C  
ENDBRANCH  20  22
ENDBRANCH   8  20
BRANCH  11  24
HETATM   24  C   UNL     1      -9.214   7.192  70.203  1.00  0.00    -0.155 A  
HETATM   25  C   UNL     1      -8.540   7.521  71.403  1.00  0.00    -0.124 A  
HETATM   26  C   UNL     1      -9.074   7.188  72.650  1.00  0.00    -0.157 A  
HETATM   27  C   UNL     1     -10.292   6.525  72.724  1.00  0.00    -0.224 A  
HETATM   28  C   UNL     1     -10.985   6.212  71.554  1.00  0.00    -0.328 A  
HETATM   29  C   UNL     1     -10.456   6.548  70.302  1.00  0.00    -0.216 A  
HETATM   30 CL   UNL     1     -11.403   6.143  68.916  1.00  0.00    -0.355 Cl 
ENDBRANCH  11  24
ENDBRANCH   4   6
ENDBRANCH   3   4
ENDBRANCH   2   3
TORSDOF 10
ENDMDL
MODEL      142
REMARK 921   NORMALIZED FREE ENERGY PREDICTED BY IDOCK:   -3.15 KCAL/MOL
REMARK 922        TOTAL FREE ENERGY PREDICTED BY IDOCK:   -6.73 KCAL/MOL
REMARK 923 INTER-LIGAND FREE ENERGY PREDICTED BY IDOCK:   -5.07 KCAL/MOL
REMARK 924 INTRA-LIGAND FREE ENERGY PREDICTED BY IDOCK:   -1.67 KCAL/MOL
REMARK 927      BINDING AFFINITY PREDICTED BY RF-SCORE:    0.00 PKD
ROOT
HETATM    1  C   UNL     1      -9.364  10.473  63.431  1.00  0.00    -0.335 C  
HETATM    2  C   UNL     1      -9.345   9.613  64.679  1.00  0.00    -0.207 C  
ENDROOT
BRANCH   2   3
HETATM    3  O   UNL     1      -9.859  10.439  65.718  1.00  0.00    -0.210 OA 
BRANCH   3   4
HETATM    4  C   UNL     1      -9.067  10.757  66.767  1.00  0.00    -0.154 C  
HETATM    5  O   UNL     1      -8.090  11.487  66.733  1.00  0.00    -0.156 OA 
BRANCH   4   6
HETATM    6  C   UNL     1      -9.709  10.239  68.010  1.00  0.00    -0.167 C  
HETATM    7  C   UNL     1     -10.544  11.000  68.762  1.00  0.00    -0.202 C  
HETATM    8  C   UNL     1      -9.934   8.406  69.805  1.00  0.00    -0.191 C  
HETATM    9  N   UNL     1     -11.068  10.485  69.935  1.00  0.00    -0.288 NA 
HETATM   10  C   UNL     1     -10.728   9.267  70.491  1.00  0.00    -0.257 C  
HETATM   11  C   UNL     1      -9.379   8.793  68.418  1.00  0.00    -0.141 C  
HETATM   12  C   UNL     1     -11.291   9.014  71.868  1.00  0.00    -0.438 C  
BRANCH   7  13
HETATM   13  C   UNL     1     -11.038  12.396  68.393  1.00  0.00    -0.250 C  
BRANCH  13  14
HETATM   14  O   UNL     1     -10.371  13.420  69.134  1.00  0.00    -0.054 OA 
BRANCH  14  15
HETATM   15  C   UNL     1      -9.545  14.245  68.306  1.00  0.00    -0.221 C  
BRANCH  15  16
HETATM   16  C   UNL     1     -10.150  14.334  66.902  1.00  0.00    -0.264 C  
HETATM   17  N   UNL     1     -10.844  15.606  66.696  1.00  0.00    -0.299 NA 
HETATM   18  H2  UNL     1     -10.233  16.401  66.889  1.00  0.00     0.000 HD 
HETATM   19  H1  UNL     1     -11.247  15.666  65.760  1.00  0.00     0.000 HD 
ENDBRANCH  15  16
ENDBRANCH  14  15
ENDBRANCH  13  14
ENDBRANCH   7  13
BRANCH   8  20
HETATM   20  C   UNL     1      -9.553   7.110  70.429  1.00  0.00    -0.169 C  
HETATM   21  O   UNL     1      -8.891   7.000  71.452  1.00  0.00    -0.129 OA 
BRANCH  20  22
HETATM   22  O   UNL     1     -10.046   6.060  69.725  1.00  0.00    -0.171 OA 
HETATM   23  C   UNL     1     -10.231   4.883  70.519  1.00  0.00    -0.218 C  
ENDBRANCH  20  22
ENDBRANCH   8  20
BRANCH  11  24
HETATM   24  C   UNL     1      -7.886   8.446  68.251  1.00  0.00    -0.110 A  
HETATM   25  C   UNL     1      -7.554   7.409  67.348  1.00  0.00    -0.112 A  
HETATM   26  C   UNL     1      -6.230   7.004  67.162  1.00  0.00    -0.044 A  
HETATM   27  C   UNL     1      -5.212   7.630  67.870  1.00  0.00    -0.030 A  
HETATM   28  C   UNL     1      -5.514   8.671  68.747  1.00  0.00    -0.036 A  
HETATM   29  C   UNL     1      -6.839   9.084  68.934  1.00  0.00    -0.057 A  
HETATM   30 CL   UNL     1      -7.107  10.400  70.019  1.00  0.00    -0.157 Cl 
ENDBRANCH  11  24
ENDBRANCH   4   6
ENDBRANCH   3   4
ENDBRANCH   2   3
TORSDOF 10
ENDMDL
MODEL      143
REMARK 921   NORMALIZED FREE ENERGY PREDICTED BY IDOCK:   -3.15 KCAL/MOL
REMARK 922        TOTAL FREE ENERGY PREDICTED BY IDOCK:   -6.73 KCAL/MOL
REMARK 923 INTER-LIGAND FREE ENERGY PREDICTED BY IDOCK:   -5.52 KCAL/MOL
REMARK 924 INTRA-LIGAND FREE ENERGY PREDICTED BY IDOCK:   -1.21 KCAL/MOL
REMARK 927      BINDING AFFINITY PREDICTED BY RF-SCORE:    0.00 PKD
ROOT
HETATM    1  C   UNL     1     -12.156  12.162  63.639  1.00  0.00    -0.648 C  
HETATM    2  C   UNL     1     -12.356  12.928  64.931  1.00  0.00    -0.475 C  
ENDROOT
BRANCH   2   3
HETATM    3  O   UNL     1     -11.296  12.516  65.786  1.00  0.00    -0.306 OA 
BRANCH   3   4
HETATM    4  C   UNL     1     -11.502  12.463  67.122  1.00  0.00    -0.357 C  
HETATM    5  O   UNL     1     -12.514  12.069  67.676  1.00  0.00    -0.073 OA 
BRANCH   4   6
HETATM    6  C   UNL     1     -10.211  12.766  67.805  1.00  0.00    -0.223 C  
HETATM    7  C   UNL     1      -9.874  14.025  68.186  1.00  0.00    -0.235 C  
HETATM    8  C   UNL     1      -7.877  12.018  68.597  1.00  0.00    -0.091 C  
HETATM    9  N   UNL     1      -8.639  14.257  68.767  1.00  0.00    -0.143 NA 
HETATM   10  C   UNL     1      -7.637  13.317  68.905  1.00  0.00     0.032 C  
HETATM   11  C   UNL     1      -9.258  11.586  68.059  1.00  0.00    -0.175 C  
HETATM   12  C   UNL     1      -6.317  13.859  69.397  1.00  0.00    -0.110 C  
BRANCH   7  13
HETATM   13  C   UNL     1     -10.785  15.247  68.098  1.00  0.00    -0.257 C  
BRANCH  13  14
HETATM   14  O   UNL     1     -10.949  15.892  69.363  1.00  0.00    -0.262 OA 
BRANCH  14  15
HETATM   15  C   UNL     1     -12.194  15.561  69.988  1.00  0.00    -0.355 C  
BRANCH  15  16
HETATM   16  C   UNL     1     -11.960  14.507  71.073  1.00  0.00    -0.332 C  
HETATM   17  N   UNL     1     -11.595  15.124  72.351  1.00  0.00    -0.404 NA 
HETATM   18  H2  UNL     1     -12.288  15.814  72.643  1.00  0.00     0.000 HD 
HETATM   19  H1  UNL     1     -11.439  14.422  73.074  1.00  0.00     0.000 HD 
ENDBRANCH  15  16
ENDBRANCH  14  15
ENDBRANCH  13  14
ENDBRANCH   7  13
BRANCH   8  20
HETATM   20  C   UNL     1      -6.779  11.022  68.725  1.00  0.00    -0.065 C  
HETATM   21  O   UNL     1      -6.765  10.102  69.532  1.00  0.00    -0.050 OA 
BRANCH  20  22
HETATM   22  O   UNL     1      -5.794  11.255  67.820  1.00  0.00    -0.046 OA 
HETATM   23  C   UNL     1      -5.155  10.059  67.360  1.00  0.00    -0.038 C  
ENDBRANCH  20  22
ENDBRANCH   8  20
BRANCH  11  24
HETATM   24  C   UNL     1      -9.160  10.623  66.860  1.00  0.00    -0.168 A  
HETATM   25  C   UNL     1      -8.424  11.057  65.732  1.00  0.00    -0.119 A  
HETATM   26  C   UNL     1      -8.315  10.264  64.588  1.00  0.00    -0.169 A  
HETATM   27  C   UNL     1      -8.933   9.021  64.548  1.00  0.00    -0.069 A  
HETATM   28  C   UNL     1      -9.643   8.562  65.657  1.00  0.00     0.041 A  
HETATM   29  C   UNL     1      -9.752   9.351  66.809  1.00  0.00    -0.198 A  
HETATM   30 CL   UNL     1     -10.627   8.683  68.139  1.00  0.00    -0.229 Cl 
ENDBRANCH  11  24
ENDBRANCH   4   6
ENDBRANCH   3   4
ENDBRANCH   2   3
TORSDOF 10
ENDMDL
MODEL      144
REMARK 921   NORMALIZED FREE ENERGY PREDICTED BY IDOCK:   -3.14 KCAL/MOL
REMARK 922        TOTAL FREE ENERGY PREDICTED BY IDOCK:   -6.72 KCAL/MOL
REMARK 923 INTER-LIGAND FREE ENERGY PREDICTED BY IDOCK:   -5.31 KCAL/MOL
REMARK 924 INTRA-LIGAND FREE ENERGY PREDICTED BY IDOCK:   -1.41 KCAL/MOL
REMARK 927      BINDING AFFINITY PREDICTED BY RF-SCORE:    0.00 PKD
ROOT
HETATM    1  C   UNL     1     -11.717   8.504  72.282  1.00  0.00    -0.443 C  
HETATM    2  C   UNL     1     -10.221   8.712  72.407  1.00  0.00    -0.249 C  
ENDROOT
BRANCH   2   3
HETATM    3  O   UNL     1      -9.803   9.234  71.151  1.00  0.00    -0.285 OA 
BRANCH   3   4
HETATM    4  C   UNL     1      -8.496   9.168  70.806  1.00  0.00    -0.212 C  
HETATM    5  O   UNL     1      -7.550   9.438  71.527  1.00  0.00    -0.329 OA 
BRANCH   4   6
HETATM    6  C   UNL     1      -8.399   8.511  69.471  1.00  0.00    -0.118 C  
HETATM    7  C   UNL     1      -8.658   9.178  68.317  1.00  0.00    -0.129 C  
HETATM    8  C   UNL     1      -8.101   6.384  68.049  1.00  0.00    -0.116 C  
HETATM    9  N   UNL     1      -8.605   8.503  67.110  1.00  0.00    -0.121 NA 
HETATM   10  C   UNL     1      -8.411   7.143  66.968  1.00  0.00    -0.118 C  
HETATM   11  C   UNL     1      -7.996   7.026  69.448  1.00  0.00    -0.118 C  
HETATM   12  C   UNL     1      -8.583   6.618  65.563  1.00  0.00    -0.101 C  
BRANCH   7  13
HETATM   13  C   UNL     1      -8.944  10.673  68.208  1.00  0.00    -0.143 C  
BRANCH  13  14
HETATM   14  O   UNL     1     -10.116  10.945  67.436  1.00  0.00    -0.182 OA 
BRANCH  14  15
HETATM   15  C   UNL     1     -10.879  12.035  67.965  1.00  0.00    -0.216 C  
BRANCH  15  16
HETATM   16  C   UNL     1     -11.316  12.958  66.824  1.00  0.00    -0.322 C  
HETATM   17  N   UNL     1     -12.097  12.236  65.817  1.00  0.00    -0.603 NA 
HETATM   18  H2  UNL     1     -12.894  11.757  66.237  1.00  0.00     0.000 HD 
HETATM   19  H1  UNL     1     -12.388  12.851  65.058  1.00  0.00     0.000 HD 
ENDBRANCH  15  16
ENDBRANCH  14  15
ENDBRANCH  13  14
ENDBRANCH   7  13
BRANCH   8  20
HETATM   20  C   UNL     1      -7.924   4.916  67.884  1.00  0.00    -0.093 C  
HETATM   21  O   UNL     1      -6.847   4.337  67.933  1.00  0.00    -0.050 OA 
BRANCH  20  22
HETATM   22  O   UNL     1      -9.114   4.294  67.683  1.00  0.00    -0.118 OA 
HETATM   23  C   UNL     1      -8.984   3.017  67.051  1.00  0.00    -0.156 C  
ENDBRANCH  20  22
ENDBRANCH   8  20
BRANCH  11  24
HETATM   24  C   UNL     1      -8.694   6.197  70.544  1.00  0.00    -0.142 A  
HETATM   25  C   UNL     1     -10.041   5.825  70.322  1.00  0.00    -0.273 A  
HETATM   26  C   UNL     1     -10.762   5.105  71.277  1.00  0.00    -0.142 A  
HETATM   27  C   UNL     1     -10.152   4.737  72.469  1.00  0.00    -0.234 A  
HETATM   28  C   UNL     1      -8.817   5.071  72.698  1.00  0.00    -0.124 A  
HETATM   29  C   UNL     1      -8.089   5.789  71.742  1.00  0.00    -0.118 A  
HETATM   30 CL   UNL     1      -6.435   6.130  72.107  1.00  0.00    -0.056 Cl 
ENDBRANCH  11  24
ENDBRANCH   4   6
ENDBRANCH   3   4
ENDBRANCH   2   3
TORSDOF 10
ENDMDL
MODEL      145
REMARK 921   NORMALIZED FREE ENERGY PREDICTED BY IDOCK:   -3.13 KCAL/MOL
REMARK 922        TOTAL FREE ENERGY PREDICTED BY IDOCK:   -6.69 KCAL/MOL
REMARK 923 INTER-LIGAND FREE ENERGY PREDICTED BY IDOCK:   -5.53 KCAL/MOL
REMARK 924 INTRA-LIGAND FREE ENERGY PREDICTED BY IDOCK:   -1.15 KCAL/MOL
REMARK 927      BINDING AFFINITY PREDICTED BY RF-SCORE:    0.00 PKD
ROOT
HETATM    1  C   UNL     1      -7.627   5.045  65.841  1.00  0.00    -0.090 C  
HETATM    2  C   UNL     1      -8.843   5.875  66.202  1.00  0.00    -0.147 C  
ENDROOT
BRANCH   2   3
HETATM    3  O   UNL     1      -8.429   7.230  66.073  1.00  0.00    -0.132 OA 
BRANCH   3   4
HETATM    4  C   UNL     1      -7.887   7.864  67.138  1.00  0.00    -0.109 C  
HETATM    5  O   UNL     1      -6.753   7.717  67.560  1.00  0.00    -0.063 OA 
BRANCH   4   6
HETATM    6  C   UNL     1      -8.837   8.926  67.581  1.00  0.00    -0.137 C  
HETATM    7  C   UNL     1      -9.857   8.670  68.439  1.00  0.00    -0.172 C  
HETATM    8  C   UNL     1      -9.753  11.324  67.377  1.00  0.00    -0.190 C  
HETATM    9  N   UNL     1     -10.741   9.681  68.773  1.00  0.00    -0.221 NA 
HETATM   10  C   UNL     1     -10.750  10.945  68.215  1.00  0.00    -0.204 C  
HETATM   11  C   UNL     1      -8.621  10.340  67.015  1.00  0.00    -0.129 C  
HETATM   12  C   UNL     1     -11.927  11.806  68.605  1.00  0.00    -0.299 C  
BRANCH   7  13
HETATM   13  C   UNL     1     -10.094   7.343  69.156  1.00  0.00    -0.189 C  
BRANCH  13  14
HETATM   14  O   UNL     1     -10.498   7.527  70.516  1.00  0.00    -0.213 OA 
BRANCH  14  15
HETATM   15  C   UNL     1     -11.775   6.942  70.791  1.00  0.00    -0.369 C  
BRANCH  15  16
HETATM   16  C   UNL     1     -12.676   7.973  71.476  1.00  0.00    -0.307 C  
HETATM   17  N   UNL     1     -12.390   9.331  71.009  1.00  0.00    -0.418 NA 
HETATM   18  H2  UNL     1     -12.454   9.397  69.992  1.00  0.00     0.000 HD 
HETATM   19  H1  UNL     1     -12.990  10.018  71.465  1.00  0.00     0.000 HD 
ENDBRANCH  15  16
ENDBRANCH  14  15
ENDBRANCH  13  14
ENDBRANCH   7  13
BRANCH   8  20
HETATM   20  C   UNL     1      -9.792  12.679  66.762  1.00  0.00    -0.235 C  
HETATM   21  O   UNL     1      -9.019  13.588  67.033  1.00  0.00    -0.224 OA 
BRANCH  20  22
HETATM   22  O   UNL     1     -10.790  12.777  65.847  1.00  0.00    -0.264 OA 
HETATM   23  C   UNL     1     -10.484  13.666  64.769  1.00  0.00    -0.418 C  
ENDBRANCH  20  22
ENDBRANCH   8  20
BRANCH  11  24
HETATM   24  C   UNL     1      -8.283  10.341  65.511  1.00  0.00    -0.158 A  
HETATM   25  C   UNL     1      -9.341  10.094  64.605  1.00  0.00    -0.334 A  
HETATM   26  C   UNL     1      -9.118  10.040  63.227  1.00  0.00    -0.300 A  
HETATM   27  C   UNL     1      -7.837  10.237  62.727  1.00  0.00    -0.155 A  
HETATM   28  C   UNL     1      -6.784  10.506  63.601  1.00  0.00     0.071 A  
HETATM   29  C   UNL     1      -7.003  10.566  64.982  1.00  0.00     0.004 A  
HETATM   30 CL   UNL     1      -5.641  10.934  65.978  1.00  0.00    -0.131 Cl 
ENDBRANCH  11  24
ENDBRANCH   4   6
ENDBRANCH   3   4
ENDBRANCH   2   3
TORSDOF 10
ENDMDL
MODEL      146
REMARK 921   NORMALIZED FREE ENERGY PREDICTED BY IDOCK:   -3.12 KCAL/MOL
REMARK 922        TOTAL FREE ENERGY PREDICTED BY IDOCK:   -6.67 KCAL/MOL
REMARK 923 INTER-LIGAND FREE ENERGY PREDICTED BY IDOCK:   -5.39 KCAL/MOL
REMARK 924 INTRA-LIGAND FREE ENERGY PREDICTED BY IDOCK:   -1.28 KCAL/MOL
REMARK 927      BINDING AFFINITY PREDICTED BY RF-SCORE:    0.00 PKD
ROOT
HETATM    1  C   UNL     1     -13.019   7.213  71.447  1.00  0.00    -0.419 C  
HETATM    2  C   UNL     1     -11.875   6.342  70.968  1.00  0.00    -0.258 C  
ENDROOT
BRANCH   2   3
HETATM    3  O   UNL     1     -11.543   6.829  69.673  1.00  0.00    -0.266 OA 
BRANCH   3   4
HETATM    4  C   UNL     1     -10.568   6.216  68.963  1.00  0.00    -0.279 C  
HETATM    5  O   UNL     1     -10.718   5.600  67.921  1.00  0.00    -0.223 OA 
BRANCH   4   6
HETATM    6  C   UNL     1      -9.252   6.597  69.553  1.00  0.00    -0.143 C  
HETATM    7  C   UNL     1      -8.559   5.765  70.372  1.00  0.00    -0.133 C  
HETATM    8  C   UNL     1      -7.437   8.370  69.999  1.00  0.00    -0.063 C  
HETATM    9  N   UNL     1      -7.369   6.192  70.935  1.00  0.00    -0.078 NA 
HETATM   10  C   UNL     1      -6.852   7.468  70.825  1.00  0.00    -0.047 C  
HETATM   11  C   UNL     1      -8.703   7.991  69.201  1.00  0.00    -0.137 C  
HETATM   12  C   UNL     1      -5.640   7.740  71.684  1.00  0.00    -0.035 C  
BRANCH   7  13
HETATM   13  C   UNL     1      -8.942   4.322  70.690  1.00  0.00    -0.100 C  
BRANCH  13  14
HETATM   14  O   UNL     1      -8.215   3.380  69.897  1.00  0.00    -0.051 OA 
BRANCH  14  15
HETATM   15  C   UNL     1      -9.046   2.325  69.402  1.00  0.00    -0.117 C  
BRANCH  15  16
HETATM   16  C   UNL     1      -8.753   2.092  67.918  1.00  0.00    -0.102 C  
HETATM   17  N   UNL     1      -9.438   3.074  67.075  1.00  0.00    -0.383 NA 
HETATM   18  H2  UNL     1      -9.212   4.029  67.355  1.00  0.00     0.000 HD 
HETATM   19  H1  UNL     1      -9.243   2.920  66.085  1.00  0.00     0.000 HD 
ENDBRANCH  15  16
ENDBRANCH  14  15
ENDBRANCH  13  14
ENDBRANCH   7  13
BRANCH   8  20
HETATM   20  C   UNL     1      -6.884   9.749  69.914  1.00  0.00    -0.085 C  
HETATM   21  O   UNL     1      -7.003  10.599  70.786  1.00  0.00    -0.186 OA 
BRANCH  20  22
HETATM   22  O   UNL     1      -6.218   9.943  68.747  1.00  0.00    -0.042 OA 
HETATM   23  C   UNL     1      -5.287  11.028  68.802  1.00  0.00    -0.040 C  
ENDBRANCH  20  22
ENDBRANCH   8  20
BRANCH  11  24
HETATM   24  C   UNL     1      -9.785   9.088  69.234  1.00  0.00    -0.168 A  
HETATM   25  C   UNL     1     -10.209   9.623  67.994  1.00  0.00    -0.235 A  
HETATM   26  C   UNL     1     -11.157  10.647  67.932  1.00  0.00    -0.371 A  
HETATM   27  C   UNL     1     -11.704  11.153  69.104  1.00  0.00    -0.408 A  
HETATM   28  C   UNL     1     -11.319  10.623  70.335  1.00  0.00    -0.389 A  
HETATM   29  C   UNL     1     -10.372   9.594  70.403  1.00  0.00    -0.291 A  
HETATM   30 CL   UNL     1      -9.983   8.986  71.972  1.00  0.00    -0.338 Cl 
ENDBRANCH  11  24
ENDBRANCH   4   6
ENDBRANCH   3   4
ENDBRANCH   2   3
TORSDOF 10
ENDMDL
MODEL      147
REMARK 921   NORMALIZED FREE ENERGY PREDICTED BY IDOCK:   -3.11 KCAL/MOL
REMARK 922        TOTAL FREE ENERGY PREDICTED BY IDOCK:   -6.67 KCAL/MOL
REMARK 923 INTER-LIGAND FREE ENERGY PREDICTED BY IDOCK:   -5.86 KCAL/MOL
REMARK 924 INTRA-LIGAND FREE ENERGY PREDICTED BY IDOCK:   -0.81 KCAL/MOL
REMARK 927      BINDING AFFINITY PREDICTED BY RF-SCORE:    0.00 PKD
ROOT
HETATM    1  C   UNL     1     -10.053   5.926  72.908  1.00  0.00    -0.199 C  
HETATM    2  C   UNL     1      -9.615   6.204  71.484  1.00  0.00    -0.155 C  
ENDROOT
BRANCH   2   3
HETATM    3  O   UNL     1     -10.141   7.488  71.169  1.00  0.00    -0.189 OA 
BRANCH   3   4
HETATM    4  C   UNL     1      -9.295   8.533  71.018  1.00  0.00    -0.185 C  
HETATM    5  O   UNL     1      -8.292   8.746  71.678  1.00  0.00    -0.209 OA 
BRANCH   4   6
HETATM    6  C   UNL     1      -9.675   9.265  69.774  1.00  0.00    -0.202 C  
HETATM    7  C   UNL     1     -10.742  10.104  69.728  1.00  0.00    -0.279 C  
HETATM    8  C   UNL     1      -9.382   9.673  67.249  1.00  0.00    -0.163 C  
HETATM    9  N   UNL     1     -11.081  10.714  68.534  1.00  0.00    -0.244 NA 
HETATM   10  C   UNL     1     -10.483  10.462  67.314  1.00  0.00    -0.252 C  
HETATM   11  C   UNL     1      -8.808   9.025  68.527  1.00  0.00    -0.134 C  
HETATM   12  C   UNL     1     -11.154  11.110  66.128  1.00  0.00    -0.152 C  
BRANCH   7  13
HETATM   13  C   UNL     1     -11.595  10.512  70.926  1.00  0.00    -0.292 C  
BRANCH  13  14
HETATM   14  O   UNL     1     -12.974  10.181  70.746  1.00  0.00    -0.358 OA 
BRANCH  14  15
HETATM   15  C   UNL     1     -13.543   9.559  71.904  1.00  0.00    -0.391 C  
BRANCH  15  16
HETATM   16  C   UNL     1     -14.138   8.202  71.518  1.00  0.00    -0.383 C  
HETATM   17  N   UNL     1     -13.167   7.374  70.800  1.00  0.00    -0.552 NA 
HETATM   18  H2  UNL     1     -12.304   7.264  71.334  1.00  0.00     0.000 HD 
HETATM   19  H1  UNL     1     -13.563   6.470  70.544  1.00  0.00     0.000 HD 
ENDBRANCH  15  16
ENDBRANCH  14  15
ENDBRANCH  13  14
ENDBRANCH   7  13
BRANCH   8  20
HETATM   20  C   UNL     1      -8.766   9.387  65.924  1.00  0.00    -0.154 C  
HETATM   21  O   UNL     1      -8.480   8.269  65.518  1.00  0.00    -0.147 OA 
BRANCH  20  22
HETATM   22  O   UNL     1      -8.572  10.527  65.214  1.00  0.00    -0.170 OA 
HETATM   23  C   UNL     1      -8.318  10.291  63.825  1.00  0.00    -0.165 C  
ENDBRANCH  20  22
ENDBRANCH   8  20
BRANCH  11  24
HETATM   24  C   UNL     1      -8.431   7.544  68.332  1.00  0.00    -0.125 A  
HETATM   25  C   UNL     1      -7.071   7.189  68.499  1.00  0.00    -0.081 A  
HETATM   26  C   UNL     1      -6.635   5.876  68.305  1.00  0.00    -0.052 A  
HETATM   27  C   UNL     1      -7.546   4.892  67.947  1.00  0.00    -0.083 A  
HETATM   28  C   UNL     1      -8.896   5.214  67.802  1.00  0.00    -0.106 A  
HETATM   29  C   UNL     1      -9.339   6.527  67.999  1.00  0.00    -0.108 A  
HETATM   30 CL   UNL     1     -11.032   6.820  67.823  1.00  0.00    -0.326 Cl 
ENDBRANCH  11  24
ENDBRANCH   4   6
ENDBRANCH   3   4
ENDBRANCH   2   3
TORSDOF 10
ENDMDL
MODEL      148
REMARK 921   NORMALIZED FREE ENERGY PREDICTED BY IDOCK:   -3.11 KCAL/MOL
REMARK 922        TOTAL FREE ENERGY PREDICTED BY IDOCK:   -6.66 KCAL/MOL
REMARK 923 INTER-LIGAND FREE ENERGY PREDICTED BY IDOCK:   -4.62 KCAL/MOL
REMARK 924 INTRA-LIGAND FREE ENERGY PREDICTED BY IDOCK:   -2.04 KCAL/MOL
REMARK 927      BINDING AFFINITY PREDICTED BY RF-SCORE:    0.00 PKD
ROOT
HETATM    1  C   UNL     1      -7.678  11.619  68.030  1.00  0.00    -0.121 C  
HETATM    2  C   UNL     1      -8.949  11.346  68.808  1.00  0.00    -0.080 C  
ENDROOT
BRANCH   2   3
HETATM    3  O   UNL     1      -9.177   9.947  68.682  1.00  0.00    -0.132 OA 
BRANCH   3   4
HETATM    4  C   UNL     1     -10.110   9.502  67.808  1.00  0.00    -0.198 C  
HETATM    5  O   UNL     1     -10.829  10.198  67.111  1.00  0.00    -0.251 OA 
BRANCH   4   6
HETATM    6  C   UNL     1      -9.965   8.023  67.684  1.00  0.00    -0.234 C  
HETATM    7  C   UNL     1     -10.426   7.170  68.635  1.00  0.00    -0.197 C  
HETATM    8  C   UNL     1      -8.987   5.972  66.472  1.00  0.00    -0.137 C  
HETATM    9  N   UNL     1     -10.215   5.809  68.494  1.00  0.00    -0.175 NA 
HETATM   10  C   UNL     1      -9.461   5.221  67.497  1.00  0.00    -0.125 C  
HETATM   11  C   UNL     1      -9.256   7.491  66.427  1.00  0.00    -0.212 C  
HETATM   12  C   UNL     1      -9.224   3.740  67.667  1.00  0.00    -0.212 C  
BRANCH   7  13
HETATM   13  C   UNL     1     -11.248   7.572  69.857  1.00  0.00    -0.108 C  
BRANCH  13  14
HETATM   14  O   UNL     1     -10.425   7.894  70.981  1.00  0.00    -0.202 OA 
BRANCH  14  15
HETATM   15  C   UNL     1     -11.091   8.744  71.920  1.00  0.00    -0.364 C  
BRANCH  15  16
HETATM   16  C   UNL     1     -11.718   9.931  71.184  1.00  0.00    -0.396 C  
HETATM   17  N   UNL     1     -12.955  10.372  71.833  1.00  0.00    -0.456 NA 
HETATM   18  H2  UNL     1     -12.805  10.583  72.820  1.00  0.00     0.000 HD 
HETATM   19  H1  UNL     1     -13.374  11.163  71.343  1.00  0.00     0.000 HD 
ENDBRANCH  15  16
ENDBRANCH  14  15
ENDBRANCH  13  14
ENDBRANCH   7  13
BRANCH   8  20
HETATM   20  C   UNL     1      -8.151   5.328  65.421  1.00  0.00    -0.121 C  
HETATM   21  O   UNL     1      -7.014   4.912  65.597  1.00  0.00    -0.060 OA 
BRANCH  20  22
HETATM   22  O   UNL     1      -8.817   5.250  64.241  1.00  0.00    -0.088 OA 
HETATM   23  C   UNL     1      -8.119   5.870  63.156  1.00  0.00    -0.098 C  
ENDBRANCH  20  22
ENDBRANCH   8  20
BRANCH  11  24
HETATM   24  C   UNL     1      -8.008   8.311  66.047  1.00  0.00    -0.098 A  
HETATM   25  C   UNL     1      -6.834   8.103  66.809  1.00  0.00    -0.069 A  
HETATM   26  C   UNL     1      -5.668   8.830  66.559  1.00  0.00    -0.047 A  
HETATM   27  C   UNL     1      -5.649   9.774  65.540  1.00  0.00    -0.056 A  
HETATM   28  C   UNL     1      -6.787   9.977  64.760  1.00  0.00    -0.133 A  
HETATM   29  C   UNL     1      -7.957   9.248  65.004  1.00  0.00    -0.118 A  
HETATM   30 CL   UNL     1      -9.303   9.552  63.966  1.00  0.00    -0.131 Cl 
ENDBRANCH  11  24
ENDBRANCH   4   6
ENDBRANCH   3   4
ENDBRANCH   2   3
TORSDOF 10
ENDMDL
MODEL      149
REMARK 921   NORMALIZED FREE ENERGY PREDICTED BY IDOCK:   -3.09 KCAL/MOL
REMARK 922        TOTAL FREE ENERGY PREDICTED BY IDOCK:   -6.63 KCAL/MOL
REMARK 923 INTER-LIGAND FREE ENERGY PREDICTED BY IDOCK:   -5.37 KCAL/MOL
REMARK 924 INTRA-LIGAND FREE ENERGY PREDICTED BY IDOCK:   -1.26 KCAL/MOL
REMARK 927      BINDING AFFINITY PREDICTED BY RF-SCORE:    0.00 PKD
ROOT
HETATM    1  C   UNL     1     -12.247  15.797  70.532  1.00  0.00    -0.399 C  
HETATM    2  C   UNL     1     -11.310  15.214  69.493  1.00  0.00    -0.285 C  
ENDROOT
BRANCH   2   3
HETATM    3  O   UNL     1     -11.402  13.803  69.648  1.00  0.00    -0.243 OA 
BRANCH   3   4
HETATM    4  C   UNL     1     -11.806  13.045  68.603  1.00  0.00    -0.318 C  
HETATM    5  O   UNL     1     -12.552  13.400  67.706  1.00  0.00     0.113 OA 
BRANCH   4   6
HETATM    6  C   UNL     1     -11.023  11.775  68.617  1.00  0.00    -0.269 C  
HETATM    7  C   UNL     1     -11.366  10.724  69.406  1.00  0.00    -0.285 C  
HETATM    8  C   UNL     1      -8.942  10.431  67.916  1.00  0.00    -0.128 C  
HETATM    9  N   UNL     1     -10.572   9.591  69.419  1.00  0.00    -0.214 NA 
HETATM   10  C   UNL     1      -9.362   9.461  68.765  1.00  0.00    -0.146 C  
HETATM   11  C   UNL     1      -9.792  11.701  67.699  1.00  0.00    -0.195 C  
HETATM   12  C   UNL     1      -8.596   8.200  69.087  1.00  0.00    -0.136 C  
BRANCH   7  13
HETATM   13  C   UNL     1     -12.629  10.638  70.260  1.00  0.00    -0.260 C  
BRANCH  13  14
HETATM   14  O   UNL     1     -12.740   9.383  70.936  1.00  0.00    -0.236 OA 
BRANCH  14  15
HETATM   15  C   UNL     1     -14.099   8.954  71.073  1.00  0.00     0.097 C  
BRANCH  15  16
HETATM   16  C   UNL     1     -14.271   8.205  72.396  1.00  0.00    -0.165 C  
HETATM   17  N   UNL     1     -13.714   8.963  73.519  1.00  0.00    -0.693 NA 
HETATM   18  H2  UNL     1     -14.110   9.902  73.568  1.00  0.00     0.000 HD 
HETATM   19  H1  UNL     1     -13.829   8.464  74.401  1.00  0.00     0.000 HD 
ENDBRANCH  15  16
ENDBRANCH  14  15
ENDBRANCH  13  14
ENDBRANCH   7  13
BRANCH   8  20
HETATM   20  C   UNL     1      -7.622  10.289  67.241  1.00  0.00    -0.095 C  
HETATM   21  O   UNL     1      -6.543  10.298  67.817  1.00  0.00    -0.065 OA 
BRANCH  20  22
HETATM   22  O   UNL     1      -7.769  10.134  65.901  1.00  0.00    -0.115 OA 
HETATM   23  C   UNL     1      -7.928   8.768  65.504  1.00  0.00    -0.102 C  
ENDBRANCH  20  22
ENDBRANCH   8  20
BRANCH  11  24
HETATM   24  C   UNL     1      -8.953  12.994  67.712  1.00  0.00    -0.191 A  
HETATM   25  C   UNL     1      -8.024  13.159  68.766  1.00  0.00     0.050 A  
HETATM   26  C   UNL     1      -7.250  14.316  68.876  1.00  0.00    -0.125 A  
HETATM   27  C   UNL     1      -7.382  15.328  67.934  1.00  0.00    -0.155 A  
HETATM   28  C   UNL     1      -8.274  15.175  66.872  1.00  0.00    -0.234 A  
HETATM   29  C   UNL     1      -9.050  14.016  66.755  1.00  0.00    -0.232 A  
HETATM   30 CL   UNL     1     -10.103  13.910  65.390  1.00  0.00    -0.343 Cl 
ENDBRANCH  11  24
ENDBRANCH   4   6
ENDBRANCH   3   4
ENDBRANCH   2   3
TORSDOF 10
ENDMDL
MODEL      150
REMARK 921   NORMALIZED FREE ENERGY PREDICTED BY IDOCK:   -3.09 KCAL/MOL
REMARK 922        TOTAL FREE ENERGY PREDICTED BY IDOCK:   -6.63 KCAL/MOL
REMARK 923 INTER-LIGAND FREE ENERGY PREDICTED BY IDOCK:   -5.08 KCAL/MOL
REMARK 924 INTRA-LIGAND FREE ENERGY PREDICTED BY IDOCK:   -1.55 KCAL/MOL
REMARK 927      BINDING AFFINITY PREDICTED BY RF-SCORE:    0.00 PKD
ROOT
HETATM    1  C   UNL     1      -6.988  11.003  69.248  1.00  0.00    -0.116 C  
HETATM    2  C   UNL     1      -8.262  11.098  68.433  1.00  0.00    -0.144 C  
ENDROOT
BRANCH   2   3
HETATM    3  O   UNL     1      -8.581   9.759  68.069  1.00  0.00    -0.121 OA 
BRANCH   3   4
HETATM    4  C   UNL     1      -9.874   9.362  68.064  1.00  0.00    -0.164 C  
HETATM    5  O   UNL     1     -10.720   9.683  67.246  1.00  0.00    -0.263 OA 
BRANCH   4   6
HETATM    6  C   UNL     1     -10.040   8.302  69.101  1.00  0.00    -0.205 C  
HETATM    7  C   UNL     1     -10.494   8.579  70.350  1.00  0.00    -0.207 C  
HETATM    8  C   UNL     1      -9.690   5.874  69.883  1.00  0.00    -0.208 C  
HETATM    9  N   UNL     1     -10.577   7.565  71.288  1.00  0.00    -0.215 NA 
HETATM   10  C   UNL     1     -10.125   6.273  71.104  1.00  0.00    -0.183 C  
HETATM   11  C   UNL     1      -9.665   6.866  68.700  1.00  0.00    -0.136 C  
HETATM   12  C   UNL     1     -10.153   5.405  72.338  1.00  0.00    -0.225 C  
BRANCH   7  13
HETATM   13  C   UNL     1     -11.010   9.937  70.820  1.00  0.00    -0.337 C  
BRANCH  13  14
HETATM   14  O   UNL     1     -11.986   9.816  71.858  1.00  0.00    -0.365 OA 
BRANCH  14  15
HETATM   15  C   UNL     1     -13.326   9.917  71.364  1.00  0.00    -0.365 C  
BRANCH  15  16
HETATM   16  C   UNL     1     -14.185   8.809  71.977  1.00  0.00    -0.414 C  
HETATM   17  N   UNL     1     -13.485   7.522  71.976  1.00  0.00    -0.526 NA 
HETATM   18  H2  UNL     1     -12.578   7.591  72.440  1.00  0.00     0.000 HD 
HETATM   19  H1  UNL     1     -14.057   6.784  72.386  1.00  0.00     0.000 HD 
ENDBRANCH  15  16
ENDBRANCH  14  15
ENDBRANCH  13  14
ENDBRANCH   7  13
BRANCH   8  20
HETATM   20  C   UNL     1      -9.179   4.486  69.707  1.00  0.00    -0.125 C  
HETATM   21  O   UNL     1      -9.770   3.601  69.103  1.00  0.00    -0.151 OA 
BRANCH  20  22
HETATM   22  O   UNL     1      -7.965   4.330  70.293  1.00  0.00    -0.054 OA 
HETATM   23  C   UNL     1      -7.641   2.962  70.563  1.00  0.00    -0.043 C  
ENDBRANCH  20  22
ENDBRANCH   8  20
BRANCH  11  24
HETATM   24  C   UNL     1      -8.361   6.790  67.881  1.00  0.00    -0.120 A  
HETATM   25  C   UNL     1      -8.469   6.444  66.514  1.00  0.00    -0.118 A  
HETATM   26  C   UNL     1      -7.337   6.316  65.706  1.00  0.00    -0.080 A  
HETATM   27  C   UNL     1      -6.076   6.537  66.245  1.00  0.00    -0.033 A  
HETATM   28  C   UNL     1      -5.948   6.904  67.585  1.00  0.00    -0.028 A  
HETATM   29  C   UNL     1      -7.080   7.037  68.398  1.00  0.00    -0.082 A  
HETATM   30 CL   UNL     1      -6.820   7.523  70.034  1.00  0.00    -0.050 Cl 
ENDBRANCH  11  24
ENDBRANCH   4   6
ENDBRANCH   3   4
ENDBRANCH   2   3
TORSDOF 10
ENDMDL
MODEL      151
REMARK 921   NORMALIZED FREE ENERGY PREDICTED BY IDOCK:   -3.08 KCAL/MOL
REMARK 922        TOTAL FREE ENERGY PREDICTED BY IDOCK:   -6.62 KCAL/MOL
REMARK 923 INTER-LIGAND FREE ENERGY PREDICTED BY IDOCK:   -5.18 KCAL/MOL
REMARK 924 INTRA-LIGAND FREE ENERGY PREDICTED BY IDOCK:   -1.44 KCAL/MOL
REMARK 927      BINDING AFFINITY PREDICTED BY RF-SCORE:    0.00 PKD
ROOT
HETATM    1  C   UNL     1      -7.494   8.139  74.272  1.00  0.00    -0.247 C  
HETATM    2  C   UNL     1      -7.022   8.220  72.834  1.00  0.00    -0.099 C  
ENDROOT
BRANCH   2   3
HETATM    3  O   UNL     1      -7.974   9.041  72.167  1.00  0.00    -0.356 OA 
BRANCH   3   4
HETATM    4  C   UNL     1      -9.229   8.575  71.971  1.00  0.00    -0.256 C  
HETATM    5  O   UNL     1     -10.200   8.812  72.671  1.00  0.00    -0.188 OA 
BRANCH   4   6
HETATM    6  C   UNL     1      -9.274   7.900  70.642  1.00  0.00    -0.157 C  
HETATM    7  C   UNL     1      -9.656   8.551  69.514  1.00  0.00    -0.170 C  
HETATM    8  C   UNL     1      -9.126   5.755  69.225  1.00  0.00    -0.128 C  
HETATM    9  N   UNL     1      -9.731   7.860  68.317  1.00  0.00    -0.156 NA 
HETATM   10  C   UNL     1      -9.551   6.498  68.173  1.00  0.00    -0.123 C  
HETATM   11  C   UNL     1      -8.873   6.416  70.596  1.00  0.00    -0.144 C  
HETATM   12  C   UNL     1      -9.871   5.954  66.802  1.00  0.00    -0.191 C  
BRANCH   7  13
HETATM   13  C   UNL     1      -9.955  10.045  69.416  1.00  0.00    -0.223 C  
BRANCH  13  14
HETATM   14  O   UNL     1      -8.915  10.763  68.748  1.00  0.00    -0.158 OA 
BRANCH  14  15
HETATM   15  C   UNL     1      -9.413  11.580  67.682  1.00  0.00    -0.168 C  
BRANCH  15  16
HETATM   16  C   UNL     1      -8.716  12.942  67.710  1.00  0.00    -0.188 C  
HETATM   17  N   UNL     1      -9.256  13.800  68.766  1.00  0.00    -0.391 NA 
HETATM   18  H2  UNL     1      -9.215  13.342  69.677  1.00  0.00     0.000 HD 
HETATM   19  H1  UNL     1      -8.791  14.708  68.786  1.00  0.00     0.000 HD 
ENDBRANCH  15  16
ENDBRANCH  14  15
ENDBRANCH  13  14
ENDBRANCH   7  13
BRANCH   8  20
HETATM   20  C   UNL     1      -8.965   4.284  69.061  1.00  0.00    -0.108 C  
HETATM   21  O   UNL     1      -9.870   3.469  69.175  1.00  0.00    -0.052 OA 
BRANCH  20  22
HETATM   22  O   UNL     1      -7.682   3.959  68.757  1.00  0.00    -0.054 OA 
HETATM   23  C   UNL     1      -7.579   2.964  67.734  1.00  0.00    -0.057 C  
ENDBRANCH  20  22
ENDBRANCH   8  20
BRANCH  11  24
HETATM   24  C   UNL     1      -9.448   5.601  71.771  1.00  0.00    -0.169 A  
HETATM   25  C   UNL     1      -8.532   4.895  72.586  1.00  0.00    -0.119 A  
HETATM   26  C   UNL     1      -8.968   4.101  73.649  1.00  0.00    -0.092 A  
HETATM   27  C   UNL     1     -10.326   4.001  73.923  1.00  0.00    -0.241 A  
HETATM   28  C   UNL     1     -11.245   4.709  73.148  1.00  0.00    -0.367 A  
HETATM   29  C   UNL     1     -10.813   5.509  72.084  1.00  0.00    -0.235 A  
HETATM   30 CL   UNL     1     -12.025   6.367  71.203  1.00  0.00    -0.344 Cl 
ENDBRANCH  11  24
ENDBRANCH   4   6
ENDBRANCH   3   4
ENDBRANCH   2   3
TORSDOF 10
ENDMDL
MODEL      152
REMARK 921   NORMALIZED FREE ENERGY PREDICTED BY IDOCK:   -3.07 KCAL/MOL
REMARK 922        TOTAL FREE ENERGY PREDICTED BY IDOCK:   -6.60 KCAL/MOL
REMARK 923 INTER-LIGAND FREE ENERGY PREDICTED BY IDOCK:   -5.85 KCAL/MOL
REMARK 924 INTRA-LIGAND FREE ENERGY PREDICTED BY IDOCK:   -0.75 KCAL/MOL
REMARK 927      BINDING AFFINITY PREDICTED BY RF-SCORE:    0.00 PKD
ROOT
HETATM    1  C   UNL     1      -6.995  14.808  67.614  1.00  0.00    -0.204 C  
HETATM    2  C   UNL     1      -8.161  14.943  66.655  1.00  0.00     0.072 C  
ENDROOT
BRANCH   2   3
HETATM    3  O   UNL     1      -8.595  13.613  66.394  1.00  0.00     0.095 OA 
BRANCH   3   4
HETATM    4  C   UNL     1      -9.876  13.394  66.019  1.00  0.00    -0.263 C  
HETATM    5  O   UNL     1     -10.304  13.429  64.877  1.00  0.00    -0.354 OA 
BRANCH   4   6
HETATM    6  C   UNL     1     -10.631  12.895  67.205  1.00  0.00    -0.246 C  
HETATM    7  C   UNL     1     -11.463  13.696  67.919  1.00  0.00    -0.314 C  
HETATM    8  C   UNL     1     -11.094  11.048  68.938  1.00  0.00    -0.295 C  
HETATM    9  N   UNL     1     -12.096  13.195  69.043  1.00  0.00    -0.260 NA 
HETATM   10  C   UNL     1     -11.873  11.946  69.591  1.00  0.00    -0.337 C  
HETATM   11  C   UNL     1     -10.424  11.423  67.599  1.00  0.00    -0.225 C  
HETATM   12  C   UNL     1     -12.542  11.706  70.922  1.00  0.00    -0.409 C  
BRANCH   7  13
HETATM   13  C   UNL     1     -11.839  15.129  67.551  1.00  0.00    -0.094 C  
BRANCH  13  14
HETATM   14  O   UNL     1     -10.901  16.082  68.057  1.00  0.00    -0.312 OA 
BRANCH  14  15
HETATM   15  C   UNL     1     -10.601  17.111  67.107  1.00  0.00    -0.244 C  
BRANCH  15  16
HETATM   16  C   UNL     1     -10.379  18.437  67.839  1.00  0.00    -0.401 C  
HETATM   17  N   UNL     1     -10.274  18.241  69.287  1.00  0.00    -0.377 NA 
HETATM   18  H2  UNL     1      -9.551  17.560  69.520  1.00  0.00     0.000 HD 
HETATM   19  H1  UNL     1     -10.126  19.124  69.775  1.00  0.00     0.000 HD 
ENDBRANCH  15  16
ENDBRANCH  14  15
ENDBRANCH  13  14
ENDBRANCH   7  13
BRANCH   8  20
HETATM   20  C   UNL     1     -10.840   9.717  69.555  1.00  0.00    -0.240 C  
HETATM   21  O   UNL     1     -11.117   8.646  69.032  1.00  0.00     0.019 OA 
BRANCH  20  22
HETATM   22  O   UNL     1     -10.250   9.841  70.770  1.00  0.00    -0.280 OA 
HETATM   23  C   UNL     1      -9.196   8.896  70.986  1.00  0.00    -0.245 C  
ENDBRANCH  20  22
ENDBRANCH   8  20
BRANCH  11  24
HETATM   24  C   UNL     1      -8.949  10.981  67.521  1.00  0.00    -0.137 A  
HETATM   25  C   UNL     1      -8.091  11.383  68.572  1.00  0.00    -0.149 A  
HETATM   26  C   UNL     1      -6.733  11.058  68.564  1.00  0.00    -0.061 A  
HETATM   27  C   UNL     1      -6.205  10.323  67.511  1.00  0.00    -0.057 A  
HETATM   28  C   UNL     1      -7.038   9.895  66.477  1.00  0.00    -0.094 A  
HETATM   29  C   UNL     1      -8.401  10.214  66.482  1.00  0.00    -0.124 A  
HETATM   30 CL   UNL     1      -9.354   9.614  65.173  1.00  0.00    -0.309 Cl 
ENDBRANCH  11  24
ENDBRANCH   4   6
ENDBRANCH   3   4
ENDBRANCH   2   3
TORSDOF 10
ENDMDL
MODEL      153
REMARK 921   NORMALIZED FREE ENERGY PREDICTED BY IDOCK:   -3.03 KCAL/MOL
REMARK 922        TOTAL FREE ENERGY PREDICTED BY IDOCK:   -6.54 KCAL/MOL
REMARK 923 INTER-LIGAND FREE ENERGY PREDICTED BY IDOCK:   -5.31 KCAL/MOL
REMARK 924 INTRA-LIGAND FREE ENERGY PREDICTED BY IDOCK:   -1.23 KCAL/MOL
REMARK 927      BINDING AFFINITY PREDICTED BY RF-SCORE:    0.00 PKD
ROOT
HETATM    1  C   UNL     1      -6.918  12.481  68.931  1.00  0.00    -0.088 C  
HETATM    2  C   UNL     1      -7.963  11.770  68.095  1.00  0.00    -0.146 C  
ENDROOT
BRANCH   2   3
HETATM    3  O   UNL     1      -8.234  10.553  68.780  1.00  0.00    -0.116 OA 
BRANCH   3   4
HETATM    4  C   UNL     1      -9.185   9.719  68.300  1.00  0.00    -0.129 C  
HETATM    5  O   UNL     1      -9.151   9.130  67.232  1.00  0.00    -0.125 OA 
BRANCH   4   6
HETATM    6  C   UNL     1     -10.180   9.474  69.384  1.00  0.00    -0.215 C  
HETATM    7  C   UNL     1     -11.198  10.336  69.637  1.00  0.00    -0.269 C  
HETATM    8  C   UNL     1     -10.960   8.120  71.431  1.00  0.00    -0.282 C  
HETATM    9  N   UNL     1     -12.060  10.086  70.691  1.00  0.00    -0.292 NA 
HETATM   10  C   UNL     1     -11.917   9.064  71.610  1.00  0.00    -0.356 C  
HETATM   11  C   UNL     1     -10.004   8.196  70.221  1.00  0.00    -0.189 C  
HETATM   12  C   UNL     1     -12.876   9.115  72.774  1.00  0.00    -0.117 C  
BRANCH   7  13
HETATM   13  C   UNL     1     -11.542  11.564  68.799  1.00  0.00    -0.316 C  
BRANCH  13  14
HETATM   14  O   UNL     1     -11.366  12.782  69.526  1.00  0.00    -0.231 OA 
BRANCH  14  15
HETATM   15  C   UNL     1     -10.577  13.738  68.809  1.00  0.00    -0.239 C  
BRANCH  15  16
HETATM   16  C   UNL     1     -10.938  15.152  69.270  1.00  0.00    -0.258 C  
HETATM   17  N   UNL     1     -12.199  15.605  68.678  1.00  0.00    -0.520 NA 
HETATM   18  H2  UNL     1     -12.956  14.947  68.865  1.00  0.00     0.000 HD 
HETATM   19  H1  UNL     1     -12.440  16.547  68.985  1.00  0.00     0.000 HD 
ENDBRANCH  15  16
ENDBRANCH  14  15
ENDBRANCH  13  14
ENDBRANCH   7  13
BRANCH   8  20
HETATM   20  C   UNL     1     -10.800   7.041  72.445  1.00  0.00    -0.240 C  
HETATM   21  O   UNL     1     -10.421   7.220  73.594  1.00  0.00    -0.365 OA 
BRANCH  20  22
HETATM   22  O   UNL     1     -11.140   5.831  71.935  1.00  0.00    -0.259 OA 
HETATM   23  C   UNL     1     -12.002   5.078  72.794  1.00  0.00     0.102 C  
ENDBRANCH  20  22
ENDBRANCH   8  20
BRANCH  11  24
HETATM   24  C   UNL     1      -8.535   7.921  70.599  1.00  0.00    -0.125 A  
HETATM   25  C   UNL     1      -7.971   8.703  71.634  1.00  0.00    -0.166 A  
HETATM   26  C   UNL     1      -6.636   8.547  72.016  1.00  0.00    -0.080 A  
HETATM   27  C   UNL     1      -5.841   7.605  71.376  1.00  0.00    -0.035 A  
HETATM   28  C   UNL     1      -6.384   6.806  70.370  1.00  0.00    -0.042 A  
HETATM   29  C   UNL     1      -7.722   6.955  69.987  1.00  0.00    -0.101 A  
HETATM   30 CL   UNL     1      -8.308   5.900  68.752  1.00  0.00    -0.105 Cl 
ENDBRANCH  11  24
ENDBRANCH   4   6
ENDBRANCH   3   4
ENDBRANCH   2   3
TORSDOF 10
ENDMDL
MODEL      154
REMARK 921   NORMALIZED FREE ENERGY PREDICTED BY IDOCK:   -3.02 KCAL/MOL
REMARK 922        TOTAL FREE ENERGY PREDICTED BY IDOCK:   -6.53 KCAL/MOL
REMARK 923 INTER-LIGAND FREE ENERGY PREDICTED BY IDOCK:   -5.14 KCAL/MOL
REMARK 924 INTRA-LIGAND FREE ENERGY PREDICTED BY IDOCK:   -1.39 KCAL/MOL
REMARK 927      BINDING AFFINITY PREDICTED BY RF-SCORE:    0.00 PKD
ROOT
HETATM    1  C   UNL     1     -10.008  10.093  65.189  1.00  0.00    -0.379 C  
HETATM    2  C   UNL     1      -9.064   8.908  65.217  1.00  0.00    -0.136 C  
ENDROOT
BRANCH   2   3
HETATM    3  O   UNL     1      -7.960   9.321  66.015  1.00  0.00    -0.107 OA 
BRANCH   3   4
HETATM    4  C   UNL     1      -7.457   8.473  66.942  1.00  0.00    -0.084 C  
HETATM    5  O   UNL     1      -6.420   7.838  66.845  1.00  0.00    -0.052 OA 
BRANCH   4   6
HETATM    6  C   UNL     1      -8.270   8.606  68.185  1.00  0.00    -0.115 C  
HETATM    7  C   UNL     1      -8.112   9.646  69.043  1.00  0.00    -0.103 C  
HETATM    8  C   UNL     1      -9.963   7.622  69.858  1.00  0.00    -0.190 C  
HETATM    9  N   UNL     1      -8.855   9.690  70.210  1.00  0.00    -0.233 NA 
HETATM   10  C   UNL     1      -9.697   8.688  70.654  1.00  0.00    -0.184 C  
HETATM   11  C   UNL     1      -9.304   7.503  68.467  1.00  0.00    -0.142 C  
HETATM   12  C   UNL     1     -10.248   8.888  72.045  1.00  0.00    -0.363 C  
BRANCH   7  13
HETATM   13  C   UNL     1      -7.210  10.855  68.807  1.00  0.00    -0.091 C  
BRANCH  13  14
HETATM   14  O   UNL     1      -7.955  12.069  68.685  1.00  0.00    -0.138 OA 
BRANCH  14  15
HETATM   15  C   UNL     1      -8.055  12.516  67.329  1.00  0.00    -0.179 C  
BRANCH  15  16
HETATM   16  C   UNL     1      -9.382  13.252  67.126  1.00  0.00    -0.240 C  
HETATM   17  N   UNL     1      -9.541  13.701  65.742  1.00  0.00    -0.503 NA 
HETATM   18  H2  UNL     1      -9.440  12.927  65.084  1.00  0.00     0.000 HD 
HETATM   19  H1  UNL     1     -10.425  14.192  65.606  1.00  0.00     0.000 HD 
ENDBRANCH  15  16
ENDBRANCH  14  15
ENDBRANCH  13  14
ENDBRANCH   7  13
BRANCH   8  20
HETATM   20  C   UNL     1     -10.849   6.537  70.362  1.00  0.00    -0.273 C  
HETATM   21  O   UNL     1     -12.024   6.400  70.050  1.00  0.00    -0.333 OA 
BRANCH  20  22
HETATM   22  O   UNL     1     -10.183   5.709  71.206  1.00  0.00    -0.203 OA 
HETATM   23  C   UNL     1     -10.951   5.337  72.355  1.00  0.00    -0.212 C  
ENDBRANCH  20  22
ENDBRANCH   8  20
BRANCH  11  24
HETATM   24  C   UNL     1      -8.768   6.087  68.177  1.00  0.00    -0.113 A  
HETATM   25  C   UNL     1      -7.624   5.663  68.894  1.00  0.00    -0.088 A  
HETATM   26  C   UNL     1      -7.049   4.410  68.668  1.00  0.00    -0.052 A  
HETATM   27  C   UNL     1      -7.607   3.555  67.726  1.00  0.00    -0.069 A  
HETATM   28  C   UNL     1      -8.749   3.943  67.025  1.00  0.00    -0.116 A  
HETATM   29  C   UNL     1      -9.332   5.196  67.252  1.00  0.00    -0.122 A  
HETATM   30 CL   UNL     1     -10.759   5.572  66.356  1.00  0.00    -0.317 Cl 
ENDBRANCH  11  24
ENDBRANCH   4   6
ENDBRANCH   3   4
ENDBRANCH   2   3
TORSDOF 10
ENDMDL
MODEL      155
REMARK 921   NORMALIZED FREE ENERGY PREDICTED BY IDOCK:   -3.02 KCAL/MOL
REMARK 922        TOTAL FREE ENERGY PREDICTED BY IDOCK:   -6.52 KCAL/MOL
REMARK 923 INTER-LIGAND FREE ENERGY PREDICTED BY IDOCK:   -4.99 KCAL/MOL
REMARK 924 INTRA-LIGAND FREE ENERGY PREDICTED BY IDOCK:   -1.52 KCAL/MOL
REMARK 927      BINDING AFFINITY PREDICTED BY RF-SCORE:    0.00 PKD
ROOT
HETATM    1  C   UNL     1      -6.998   8.824  63.106  1.00  0.00    -0.089 C  
HETATM    2  C   UNL     1      -7.663  10.066  63.664  1.00  0.00    -0.143 C  
ENDROOT
BRANCH   2   3
HETATM    3  O   UNL     1      -7.664   9.894  65.077  1.00  0.00    -0.121 OA 
BRANCH   3   4
HETATM    4  C   UNL     1      -8.781   9.439  65.690  1.00  0.00    -0.154 C  
HETATM    5  O   UNL     1      -9.912   9.471  65.234  1.00  0.00    -0.247 OA 
BRANCH   4   6
HETATM    6  C   UNL     1      -8.371   8.702  66.920  1.00  0.00    -0.108 C  
HETATM    7  C   UNL     1      -8.131   7.366  66.915  1.00  0.00    -0.120 C  
HETATM    8  C   UNL     1      -7.992   8.653  69.467  1.00  0.00    -0.097 C  
HETATM    9  N   UNL     1      -7.806   6.725  68.098  1.00  0.00    -0.112 NA 
HETATM   10  C   UNL     1      -7.807   7.314  69.348  1.00  0.00    -0.122 C  
HETATM   11  C   UNL     1      -8.236   9.522  68.215  1.00  0.00    -0.113 C  
HETATM   12  C   UNL     1      -7.604   6.362  70.501  1.00  0.00    -0.096 C  
BRANCH   7  13
HETATM   13  C   UNL     1      -8.113   6.478  65.674  1.00  0.00    -0.128 C  
BRANCH  13  14
HETATM   14  O   UNL     1      -8.535   5.142  65.959  1.00  0.00    -0.114 OA 
BRANCH  14  15
HETATM   15  C   UNL     1      -9.940   4.957  65.756  1.00  0.00    -0.170 C  
BRANCH  15  16
HETATM   16  C   UNL     1     -10.169   3.900  64.672  1.00  0.00    -0.207 C  
HETATM   17  N   UNL     1      -9.625   4.328  63.381  1.00  0.00    -0.262 NA 
HETATM   18  H2  UNL     1      -8.638   4.578  63.457  1.00  0.00     0.000 HD 
HETATM   19  H1  UNL     1      -9.777   3.623  62.659  1.00  0.00     0.000 HD 
ENDBRANCH  15  16
ENDBRANCH  14  15
ENDBRANCH  13  14
ENDBRANCH   7  13
BRANCH   8  20
HETATM   20  C   UNL     1      -8.019   9.268  70.822  1.00  0.00    -0.154 C  
HETATM   21  O   UNL     1      -8.889   9.068  71.658  1.00  0.00    -0.329 OA 
BRANCH  20  22
HETATM   22  O   UNL     1      -6.945  10.074  71.019  1.00  0.00    -0.339 OA 
HETATM   23  C   UNL     1      -5.858   9.415  71.679  1.00  0.00    -0.054 C  
ENDBRANCH  20  22
ENDBRANCH   8  20
BRANCH  11  24
HETATM   24  C   UNL     1      -9.377  10.540  68.404  1.00  0.00    -0.158 A  
HETATM   25  C   UNL     1     -10.665  10.031  68.691  1.00  0.00    -0.256 A  
HETATM   26  C   UNL     1     -11.764  10.880  68.841  1.00  0.00    -0.376 A  
HETATM   27  C   UNL     1     -11.598  12.253  68.714  1.00  0.00    -0.380 A  
HETATM   28  C   UNL     1     -10.332  12.778  68.456  1.00  0.00    -0.231 A  
HETATM   29  C   UNL     1      -9.226  11.932  68.309  1.00  0.00    -0.187 A  
HETATM   30 CL   UNL     1      -7.697  12.681  68.021  1.00  0.00    -0.126 Cl 
ENDBRANCH  11  24
ENDBRANCH   4   6
ENDBRANCH   3   4
ENDBRANCH   2   3
TORSDOF 10
ENDMDL
MODEL      156
REMARK 921   NORMALIZED FREE ENERGY PREDICTED BY IDOCK:   -2.97 KCAL/MOL
REMARK 922        TOTAL FREE ENERGY PREDICTED BY IDOCK:   -6.44 KCAL/MOL
REMARK 923 INTER-LIGAND FREE ENERGY PREDICTED BY IDOCK:   -4.55 KCAL/MOL
REMARK 924 INTRA-LIGAND FREE ENERGY PREDICTED BY IDOCK:   -1.89 KCAL/MOL
REMARK 927      BINDING AFFINITY PREDICTED BY RF-SCORE:    0.00 PKD
ROOT
HETATM    1  C   UNL     1      -6.717   8.762  71.437  1.00  0.00    -0.081 C  
HETATM    2  C   UNL     1      -6.976   9.876  70.444  1.00  0.00    -0.141 C  
ENDROOT
BRANCH   2   3
HETATM    3  O   UNL     1      -7.228   9.227  69.203  1.00  0.00    -0.064 OA 
BRANCH   3   4
HETATM    4  C   UNL     1      -8.505   8.973  68.833  1.00  0.00    -0.130 C  
HETATM    5  O   UNL     1      -9.485   9.632  69.140  1.00  0.00    -0.157 OA 
BRANCH   4   6
HETATM    6  C   UNL     1      -8.488   7.880  67.819  1.00  0.00    -0.125 C  
HETATM    7  C   UNL     1      -8.557   8.131  66.486  1.00  0.00    -0.138 C  
HETATM    8  C   UNL     1      -8.573   5.372  67.242  1.00  0.00    -0.108 C  
HETATM    9  N   UNL     1      -8.593   7.075  65.592  1.00  0.00    -0.140 NA 
HETATM   10  C   UNL     1      -8.676   5.741  65.941  1.00  0.00    -0.149 C  
HETATM   11  C   UNL     1      -8.397   6.437  68.344  1.00  0.00    -0.116 C  
HETATM   12  C   UNL     1      -8.893   4.792  64.787  1.00  0.00    -0.153 C  
BRANCH   7  13
HETATM   13  C   UNL     1      -8.526   9.517  65.847  1.00  0.00    -0.125 C  
BRANCH  13  14
HETATM   14  O   UNL     1      -9.743   9.824  65.162  1.00  0.00    -0.294 OA 
BRANCH  14  15
HETATM   15  C   UNL     1     -10.073  11.216  65.231  1.00  0.00    -0.276 C  
BRANCH  15  16
HETATM   16  C   UNL     1      -9.216  11.894  66.303  1.00  0.00    -0.214 C  
HETATM   17  N   UNL     1      -9.956  12.061  67.556  1.00  0.00    -0.191 NA 
HETATM   18  H2  UNL     1     -10.333  11.173  67.888  1.00  0.00     0.000 HD 
HETATM   19  H1  UNL     1      -9.385  12.513  68.271  1.00  0.00     0.000 HD 
ENDBRANCH  15  16
ENDBRANCH  14  15
ENDBRANCH  13  14
ENDBRANCH   7  13
BRANCH   8  20
HETATM   20  C   UNL     1      -8.694   3.933  67.604  1.00  0.00    -0.106 C  
HETATM   21  O   UNL     1      -9.738   3.384  67.929  1.00  0.00    -0.152 OA 
BRANCH  20  22
HETATM   22  O   UNL     1      -7.496   3.300  67.517  1.00  0.00    -0.061 OA 
HETATM   23  C   UNL     1      -6.913   3.015  68.793  1.00  0.00    -0.048 C  
ENDBRANCH  20  22
ENDBRANCH   8  20
BRANCH  11  24
HETATM   24  C   UNL     1      -9.295   6.186  69.571  1.00  0.00    -0.147 A  
HETATM   25  C   UNL     1     -10.685   6.407  69.419  1.00  0.00    -0.347 A  
HETATM   26  C   UNL     1     -11.568   6.240  70.488  1.00  0.00    -0.357 A  
HETATM   27  C   UNL     1     -11.083   5.844  71.728  1.00  0.00    -0.324 A  
HETATM   28  C   UNL     1      -9.720   5.596  71.894  1.00  0.00    -0.191 A  
HETATM   29  C   UNL     1      -8.831   5.758  70.825  1.00  0.00    -0.137 A  
HETATM   30 CL   UNL     1      -7.169   5.400  71.123  1.00  0.00    -0.075 Cl 
ENDBRANCH  11  24
ENDBRANCH   4   6
ENDBRANCH   3   4
ENDBRANCH   2   3
TORSDOF 10
ENDMDL
MODEL      157
REMARK 921   NORMALIZED FREE ENERGY PREDICTED BY IDOCK:   -2.92 KCAL/MOL
REMARK 922        TOTAL FREE ENERGY PREDICTED BY IDOCK:   -6.36 KCAL/MOL
REMARK 923 INTER-LIGAND FREE ENERGY PREDICTED BY IDOCK:   -4.74 KCAL/MOL
REMARK 924 INTRA-LIGAND FREE ENERGY PREDICTED BY IDOCK:   -1.63 KCAL/MOL
REMARK 927      BINDING AFFINITY PREDICTED BY RF-SCORE:    0.00 PKD
ROOT
HETATM    1  C   UNL     1     -10.247   9.384  66.750  1.00  0.00    -0.320 C  
HETATM    2  C   UNL     1      -8.820   8.977  66.445  1.00  0.00    -0.146 C  
ENDROOT
BRANCH   2   3
HETATM    3  O   UNL     1      -8.065   9.348  67.592  1.00  0.00    -0.106 OA 
BRANCH   3   4
HETATM    4  C   UNL     1      -7.290   8.424  68.205  1.00  0.00    -0.095 C  
HETATM    5  O   UNL     1      -6.335   7.848  67.712  1.00  0.00    -0.049 OA 
BRANCH   4   6
HETATM    6  C   UNL     1      -7.666   8.383  69.648  1.00  0.00    -0.095 C  
HETATM    7  C   UNL     1      -7.013   9.117  70.585  1.00  0.00    -0.090 C  
HETATM    8  C   UNL     1      -9.029   7.341  71.569  1.00  0.00    -0.133 C  
HETATM    9  N   UNL     1      -7.369   8.998  71.918  1.00  0.00    -0.332 NA 
HETATM   10  C   UNL     1      -8.286   8.094  72.418  1.00  0.00    -0.170 C  
HETATM   11  C   UNL     1      -8.833   7.461  70.043  1.00  0.00    -0.141 C  
HETATM   12  C   UNL     1      -8.362   8.030  73.924  1.00  0.00    -0.319 C  
BRANCH   7  13
HETATM   13  C   UNL     1      -5.929  10.152  70.297  1.00  0.00    -0.081 C  
BRANCH  13  14
HETATM   14  O   UNL     1      -6.359  11.483  70.594  1.00  0.00    -0.287 OA 
BRANCH  14  15
HETATM   15  C   UNL     1      -5.854  12.442  69.659  1.00  0.00    -0.111 C  
BRANCH  15  16
HETATM   16  C   UNL     1      -5.862  13.834  70.296  1.00  0.00    -0.152 C  
HETATM   17  N   UNL     1      -5.943  13.757  71.756  1.00  0.00    -0.567 NA 
HETATM   18  H2  UNL     1      -5.198  13.176  72.141  1.00  0.00     0.000 HD 
HETATM   19  H1  UNL     1      -5.949  14.685  72.180  1.00  0.00     0.000 HD 
ENDBRANCH  15  16
ENDBRANCH  14  15
ENDBRANCH  13  14
ENDBRANCH   7  13
BRANCH   8  20
HETATM   20  C   UNL     1      -9.993   6.351  72.124  1.00  0.00    -0.165 C  
HETATM   21  O   UNL     1      -9.683   5.253  72.565  1.00  0.00    -0.148 OA 
BRANCH  20  22
HETATM   22  O   UNL     1     -11.263   6.827  72.090  1.00  0.00    -0.241 OA 
HETATM   23  C   UNL     1     -12.241   5.854  72.469  1.00  0.00     0.032 C  
ENDBRANCH  20  22
ENDBRANCH   8  20
BRANCH  11  24
HETATM   24  C   UNL     1      -8.785   6.094  69.334  1.00  0.00    -0.123 A  
HETATM   25  C   UNL     1      -7.664   5.267  69.585  1.00  0.00    -0.073 A  
HETATM   26  C   UNL     1      -7.521   4.028  68.957  1.00  0.00    -0.054 A  
HETATM   27  C   UNL     1      -8.495   3.587  68.070  1.00  0.00    -0.109 A  
HETATM   28  C   UNL     1      -9.620   4.375  67.827  1.00  0.00    -0.211 A  
HETATM   29  C   UNL     1      -9.771   5.616  68.457  1.00  0.00    -0.136 A  
HETATM   30 CL   UNL     1     -11.211   6.503  68.112  1.00  0.00    -0.318 Cl 
ENDBRANCH  11  24
ENDBRANCH   4   6
ENDBRANCH   3   4
ENDBRANCH   2   3
TORSDOF 10
ENDMDL
MODEL      158
REMARK 921   NORMALIZED FREE ENERGY PREDICTED BY IDOCK:   -2.91 KCAL/MOL
REMARK 922        TOTAL FREE ENERGY PREDICTED BY IDOCK:   -6.34 KCAL/MOL
REMARK 923 INTER-LIGAND FREE ENERGY PREDICTED BY IDOCK:   -4.71 KCAL/MOL
REMARK 924 INTRA-LIGAND FREE ENERGY PREDICTED BY IDOCK:   -1.64 KCAL/MOL
REMARK 927      BINDING AFFINITY PREDICTED BY RF-SCORE:    0.00 PKD
ROOT
HETATM    1  C   UNL     1      -5.743  10.598  65.644  1.00  0.00    -0.135 C  
HETATM    2  C   UNL     1      -7.120  10.066  65.984  1.00  0.00    -0.111 C  
ENDROOT
BRANCH   2   3
HETATM    3  O   UNL     1      -7.917  11.216  66.246  1.00  0.00    -0.164 OA 
BRANCH   3   4
HETATM    4  C   UNL     1      -8.296  11.486  67.517  1.00  0.00    -0.143 C  
HETATM    5  O   UNL     1      -8.929  10.744  68.249  1.00  0.00    -0.132 OA 
BRANCH   4   6
HETATM    6  C   UNL     1      -7.628  12.750  67.944  1.00  0.00    -0.138 C  
HETATM    7  C   UNL     1      -6.534  12.752  68.747  1.00  0.00    -0.085 C  
HETATM    8  C   UNL     1      -7.602  15.321  68.080  1.00  0.00    -0.133 C  
HETATM    9  N   UNL     1      -5.988  13.957  69.156  1.00  0.00    -0.088 NA 
HETATM   10  C   UNL     1      -6.533  15.202  68.906  1.00  0.00    -0.098 C  
HETATM   11  C   UNL     1      -8.239  14.069  67.441  1.00  0.00    -0.203 C  
HETATM   12  C   UNL     1      -5.857  16.348  69.617  1.00  0.00    -0.180 C  
BRANCH   7  13
HETATM   13  C   UNL     1      -5.772  11.511  69.204  1.00  0.00    -0.049 C  
BRANCH  13  14
HETATM   14  O   UNL     1      -6.206  11.050  70.485  1.00  0.00    -0.254 OA 
BRANCH  14  15
HETATM   15  C   UNL     1      -6.507   9.651  70.490  1.00  0.00    -0.095 C  
BRANCH  15  16
HETATM   16  C   UNL     1      -5.994   9.019  71.787  1.00  0.00    -0.077 C  
HETATM   17  N   UNL     1      -7.074   8.839  72.760  1.00  0.00    -0.335 NA 
HETATM   18  H2  UNL     1      -7.847   8.303  72.365  1.00  0.00     0.000 HD 
HETATM   19  H1  UNL     1      -6.732   8.418  73.625  1.00  0.00     0.000 HD 
ENDBRANCH  15  16
ENDBRANCH  14  15
ENDBRANCH  13  14
ENDBRANCH   7  13
BRANCH   8  20
HETATM   20  C   UNL     1      -8.194  16.666  67.842  1.00  0.00    -0.180 C  
HETATM   21  O   UNL     1      -8.086  17.298  66.801  1.00  0.00    -0.211 OA 
BRANCH  20  22
HETATM   22  O   UNL     1      -8.884  17.100  68.928  1.00  0.00    -0.259 OA 
HETATM   23  C   UNL     1      -9.900  18.056  68.607  1.00  0.00    -0.378 C  
ENDBRANCH  20  22
ENDBRANCH   8  20
BRANCH  11  24
HETATM   24  C   UNL     1      -9.779  14.081  67.503  1.00  0.00    -0.232 A  
HETATM   25  C   UNL     1     -10.382  13.910  68.772  1.00  0.00    -0.210 A  
HETATM   26  C   UNL     1     -11.771  13.871  68.916  1.00  0.00    -0.373 A  
HETATM   27  C   UNL     1     -12.585  14.007  67.798  1.00  0.00     0.473 A  
HETATM   28  C   UNL     1     -12.012  14.202  66.541  1.00  0.00    -0.466 A  
HETATM   29  C   UNL     1     -10.620  14.246  66.392  1.00  0.00    -0.286 A  
HETATM   30 CL   UNL     1     -10.009  14.519  64.801  1.00  0.00    -0.164 Cl 
ENDBRANCH  11  24
ENDBRANCH   4   6
ENDBRANCH   3   4
ENDBRANCH   2   3
TORSDOF 10
ENDMDL
MODEL      159
REMARK 921   NORMALIZED FREE ENERGY PREDICTED BY IDOCK:   -2.87 KCAL/MOL
REMARK 922        TOTAL FREE ENERGY PREDICTED BY IDOCK:   -6.28 KCAL/MOL
REMARK 923 INTER-LIGAND FREE ENERGY PREDICTED BY IDOCK:   -4.81 KCAL/MOL
REMARK 924 INTRA-LIGAND FREE ENERGY PREDICTED BY IDOCK:   -1.47 KCAL/MOL
REMARK 927      BINDING AFFINITY PREDICTED BY RF-SCORE:    0.00 PKD
ROOT
HETATM    1  C   UNL     1      -6.655   8.104  72.099  1.00  0.00    -0.073 C  
HETATM    2  C   UNL     1      -6.011   7.563  70.838  1.00  0.00    -0.035 C  
ENDROOT
BRANCH   2   3
HETATM    3  O   UNL     1      -6.642   8.250  69.764  1.00  0.00    -0.039 OA 
BRANCH   3   4
HETATM    4  C   UNL     1      -7.728   7.701  69.172  1.00  0.00    -0.109 C  
HETATM    5  O   UNL     1      -7.889   6.517  68.926  1.00  0.00    -0.106 OA 
BRANCH   4   6
HETATM    6  C   UNL     1      -8.780   8.753  69.062  1.00  0.00    -0.133 C  
HETATM    7  C   UNL     1      -9.885   8.753  69.850  1.00  0.00    -0.184 C  
HETATM    8  C   UNL     1      -9.789  10.778  67.832  1.00  0.00    -0.185 C  
HETATM    9  N   UNL     1     -10.856   9.722  69.667  1.00  0.00    -0.240 NA 
HETATM   10  C   UNL     1     -10.862  10.660  68.653  1.00  0.00    -0.227 C  
HETATM   11  C   UNL     1      -8.569   9.847  68.002  1.00  0.00    -0.121 C  
HETATM   12  C   UNL     1     -12.122  11.484  68.553  1.00  0.00    -0.159 C  
BRANCH   7  13
HETATM   13  C   UNL     1     -10.140   7.796  71.011  1.00  0.00    -0.185 C  
BRANCH  13  14
HETATM   14  O   UNL     1     -11.211   6.888  70.739  1.00  0.00    -0.263 OA 
BRANCH  14  15
HETATM   15  C   UNL     1     -11.959   6.556  71.914  1.00  0.00    -0.341 C  
BRANCH  15  16
HETATM   16  C   UNL     1     -13.325   7.245  71.866  1.00  0.00    -0.223 C  
HETATM   17  N   UNL     1     -13.366   8.285  70.836  1.00  0.00    -0.418 NA 
HETATM   18  H2  UNL     1     -13.101   7.917  69.922  1.00  0.00     0.000 HD 
HETATM   19  H1  UNL     1     -14.276   8.744  70.803  1.00  0.00     0.000 HD 
ENDBRANCH  15  16
ENDBRANCH  14  15
ENDBRANCH  13  14
ENDBRANCH   7  13
BRANCH   8  20
HETATM   20  C   UNL     1      -9.822  11.774  66.726  1.00  0.00    -0.198 C  
HETATM   21  O   UNL     1      -9.288  12.874  66.766  1.00  0.00    -0.232 OA 
BRANCH  20  22
HETATM   22  O   UNL     1     -10.510  11.301  65.657  1.00  0.00    -0.253 OA 
HETATM   23  C   UNL     1     -10.843  12.316  64.704  1.00  0.00    -0.308 C  
ENDBRANCH  20  22
ENDBRANCH   8  20
BRANCH  11  24
HETATM   24  C   UNL     1      -8.045   9.294  66.662  1.00  0.00    -0.108 A  
HETATM   25  C   UNL     1      -8.674   8.138  66.143  1.00  0.00    -0.179 A  
HETATM   26  C   UNL     1      -8.239   7.547  64.954  1.00  0.00    -0.086 A  
HETATM   27  C   UNL     1      -7.174   8.102  64.257  1.00  0.00    -0.089 A  
HETATM   28  C   UNL     1      -6.556   9.257  64.737  1.00  0.00    -0.076 A  
HETATM   29  C   UNL     1      -6.990   9.855  65.926  1.00  0.00    -0.106 A  
HETATM   30 CL   UNL     1      -6.179  11.296  66.423  1.00  0.00    -0.133 Cl 
ENDBRANCH  11  24
ENDBRANCH   4   6
ENDBRANCH   3   4
ENDBRANCH   2   3
TORSDOF 10
ENDMDL
MODEL      160
REMARK 921   NORMALIZED FREE ENERGY PREDICTED BY IDOCK:   -2.84 KCAL/MOL
REMARK 922        TOTAL FREE ENERGY PREDICTED BY IDOCK:   -6.23 KCAL/MOL
REMARK 923 INTER-LIGAND FREE ENERGY PREDICTED BY IDOCK:   -4.95 KCAL/MOL
REMARK 924 INTRA-LIGAND FREE ENERGY PREDICTED BY IDOCK:   -1.28 KCAL/MOL
REMARK 927      BINDING AFFINITY PREDICTED BY RF-SCORE:    0.00 PKD
ROOT
HETATM    1  C   UNL     1      -6.929  12.411  69.063  1.00  0.00    -0.071 C  
HETATM    2  C   UNL     1      -7.693  11.586  68.046  1.00  0.00    -0.119 C  
ENDROOT
BRANCH   2   3
HETATM    3  O   UNL     1      -7.812  10.290  68.621  1.00  0.00    -0.091 OA 
BRANCH   3   4
HETATM    4  C   UNL     1      -6.996   9.298  68.195  1.00  0.00    -0.076 C  
HETATM    5  O   UNL     1      -5.784   9.263  68.319  1.00  0.00    -0.038 OA 
BRANCH   4   6
HETATM    6  C   UNL     1      -7.846   8.159  67.740  1.00  0.00    -0.118 C  
HETATM    7  C   UNL     1      -8.398   8.121  66.500  1.00  0.00    -0.113 C  
HETATM    8  C   UNL     1      -9.119   5.980  68.256  1.00  0.00    -0.111 C  
HETATM    9  N   UNL     1      -9.223   7.066  66.150  1.00  0.00    -0.123 NA 
HETATM   10  C   UNL     1      -9.639   6.065  67.007  1.00  0.00    -0.133 C  
HETATM   11  C   UNL     1      -8.084   7.017  68.743  1.00  0.00    -0.121 C  
HETATM   12  C   UNL     1     -10.686   5.136  66.440  1.00  0.00    -0.275 C  
BRANCH   7  13
HETATM   13  C   UNL     1      -8.133   9.130  65.385  1.00  0.00    -0.124 C  
BRANCH  13  14
HETATM   14  O   UNL     1      -9.325   9.483  64.680  1.00  0.00    -0.240 OA 
BRANCH  14  15
HETATM   15  C   UNL     1      -9.844  10.754  65.084  1.00  0.00    -0.277 C  
BRANCH  15  16
HETATM   16  C   UNL     1     -10.783  11.294  64.002  1.00  0.00    -0.377 C  
HETATM   17  N   UNL     1     -10.037  11.827  62.860  1.00  0.00    -0.586 NA 
HETATM   18  H2  UNL     1      -9.390  11.134  62.481  1.00  0.00     0.000 HD 
HETATM   19  H1  UNL     1     -10.662  12.187  62.139  1.00  0.00     0.000 HD 
ENDBRANCH  15  16
ENDBRANCH  14  15
ENDBRANCH  13  14
ENDBRANCH   7  13
BRANCH   8  20
HETATM   20  C   UNL     1      -9.599   4.914  69.177  1.00  0.00    -0.163 C  
HETATM   21  O   UNL     1     -10.482   5.063  70.011  1.00  0.00    -0.276 OA 
BRANCH  20  22
HETATM   22  O   UNL     1      -8.940   3.746  68.965  1.00  0.00    -0.100 OA 
HETATM   23  C   UNL     1      -7.718   3.645  69.703  1.00  0.00    -0.051 C  
ENDBRANCH  20  22
ENDBRANCH   8  20
BRANCH  11  24
HETATM   24  C   UNL     1      -8.365   7.520  70.172  1.00  0.00    -0.134 A  
HETATM   25  C   UNL     1      -7.414   7.209  71.172  1.00  0.00    -0.080 A  
HETATM   26  C   UNL     1      -7.606   7.593  72.501  1.00  0.00    -0.102 A  
HETATM   27  C   UNL     1      -8.747   8.300  72.857  1.00  0.00    -0.291 A  
HETATM   28  C   UNL     1      -9.686   8.639  71.882  1.00  0.00    -0.383 A  
HETATM   29  C   UNL     1      -9.496   8.260  70.548  1.00  0.00    -0.167 A  
HETATM   30 CL   UNL     1     -10.700   8.753  69.413  1.00  0.00    -0.213 Cl 
ENDBRANCH  11  24
ENDBRANCH   4   6
ENDBRANCH   3   4
ENDBRANCH   2   3
TORSDOF 10
ENDMDL
MODEL      161
REMARK 921   NORMALIZED FREE ENERGY PREDICTED BY IDOCK:   -2.80 KCAL/MOL
REMARK 922        TOTAL FREE ENERGY PREDICTED BY IDOCK:   -6.18 KCAL/MOL
REMARK 923 INTER-LIGAND FREE ENERGY PREDICTED BY IDOCK:   -4.80 KCAL/MOL
REMARK 924 INTRA-LIGAND FREE ENERGY PREDICTED BY IDOCK:   -1.37 KCAL/MOL
REMARK 927      BINDING AFFINITY PREDICTED BY RF-SCORE:    0.00 PKD
ROOT
HETATM    1  C   UNL     1      -6.782   6.025  73.502  1.00  0.00    -0.075 C  
HETATM    2  C   UNL     1      -6.213   6.188  72.107  1.00  0.00    -0.042 C  
ENDROOT
BRANCH   2   3
HETATM    3  O   UNL     1      -6.957   7.248  71.515  1.00  0.00    -0.058 OA 
BRANCH   3   4
HETATM    4  C   UNL     1      -7.743   6.991  70.445  1.00  0.00    -0.096 C  
HETATM    5  O   UNL     1      -7.384   6.478  69.398  1.00  0.00    -0.086 OA 
BRANCH   4   6
HETATM    6  C   UNL     1      -9.160   7.244  70.836  1.00  0.00    -0.151 C  
HETATM    7  C   UNL     1      -9.975   6.253  71.280  1.00  0.00    -0.180 C  
HETATM    8  C   UNL     1     -11.193   8.821  70.954  1.00  0.00    -0.320 C  
HETATM    9  N   UNL     1     -11.297   6.535  71.576  1.00  0.00    -0.277 NA 
HETATM   10  C   UNL     1     -11.919   7.748  71.355  1.00  0.00    -0.306 C  
HETATM   11  C   UNL     1      -9.675   8.688  70.708  1.00  0.00    -0.237 C  
HETATM   12  C   UNL     1     -13.411   7.750  71.584  1.00  0.00    -0.401 C  
BRANCH   7  13
HETATM   13  C   UNL     1      -9.542   4.816  71.562  1.00  0.00    -0.160 C  
BRANCH  13  14
HETATM   14  O   UNL     1      -9.464   4.030  70.371  1.00  0.00    -0.148 OA 
BRANCH  14  15
HETATM   15  C   UNL     1      -9.517   2.624  70.639  1.00  0.00    -0.135 C  
BRANCH  15  16
HETATM   16  C   UNL     1      -8.442   1.904  69.821  1.00  0.00    -0.047 C  
HETATM   17  N   UNL     1      -7.925   2.754  68.747  1.00  0.00    -0.053 NA 
HETATM   18  H2  UNL     1      -7.584   3.646  69.108  1.00  0.00     0.000 HD 
HETATM   19  H1  UNL     1      -7.208   2.275  68.202  1.00  0.00     0.000 HD 
ENDBRANCH  15  16
ENDBRANCH  14  15
ENDBRANCH  13  14
ENDBRANCH   7  13
BRANCH   8  20
HETATM   20  C   UNL     1     -11.883  10.114  70.693  1.00  0.00    -0.342 C  
HETATM   21  O   UNL     1     -12.188  10.925  71.556  1.00  0.00    -0.282 OA 
BRANCH  20  22
HETATM   22  O   UNL     1     -12.122  10.286  69.368  1.00  0.00    -0.084 OA 
HETATM   23  C   UNL     1     -12.066  11.656  68.958  1.00  0.00    -0.225 C  
ENDBRANCH  20  22
ENDBRANCH   8  20
BRANCH  11  24
HETATM   24  C   UNL     1      -9.214   9.378  69.409  1.00  0.00    -0.167 A  
HETATM   25  C   UNL     1      -8.373  10.509  69.535  1.00  0.00    -0.075 A  
HETATM   26  C   UNL     1      -7.938  11.218  68.412  1.00  0.00    -0.140 A  
HETATM   27  C   UNL     1      -8.330  10.809  67.144  1.00  0.00    -0.126 A  
HETATM   28  C   UNL     1      -9.138   9.683  66.996  1.00  0.00    -0.154 A  
HETATM   29  C   UNL     1      -9.574   8.966  68.117  1.00  0.00    -0.145 A  
HETATM   30 CL   UNL     1     -10.548   7.570  67.828  1.00  0.00    -0.288 Cl 
ENDBRANCH  11  24
ENDBRANCH   4   6
ENDBRANCH   3   4
ENDBRANCH   2   3
TORSDOF 10
ENDMDL
MODEL      162
REMARK 921   NORMALIZED FREE ENERGY PREDICTED BY IDOCK:   -2.79 KCAL/MOL
REMARK 922        TOTAL FREE ENERGY PREDICTED BY IDOCK:   -6.16 KCAL/MOL
REMARK 923 INTER-LIGAND FREE ENERGY PREDICTED BY IDOCK:   -5.92 KCAL/MOL
REMARK 924 INTRA-LIGAND FREE ENERGY PREDICTED BY IDOCK:   -0.24 KCAL/MOL
REMARK 927      BINDING AFFINITY PREDICTED BY RF-SCORE:    0.00 PKD
ROOT
HETATM    1  C   UNL     1      -5.291  13.685  68.093  1.00  0.00    -0.109 C  
HETATM    2  C   UNL     1      -6.611  13.439  68.796  1.00  0.00    -0.102 C  
ENDROOT
BRANCH   2   3
HETATM    3  O   UNL     1      -7.311  14.676  68.734  1.00  0.00    -0.116 OA 
BRANCH   3   4
HETATM    4  C   UNL     1      -8.547  14.768  69.276  1.00  0.00    -0.036 C  
HETATM    5  O   UNL     1      -8.802  14.974  70.450  1.00  0.00     0.562 OA 
BRANCH   4   6
HETATM    6  C   UNL     1      -9.543  14.786  68.165  1.00  0.00    -0.209 C  
HETATM    7  C   UNL     1     -10.137  13.653  67.710  1.00  0.00    -0.242 C  
HETATM    8  C   UNL     1     -10.763  16.052  66.284  1.00  0.00    -0.234 C  
HETATM    9  N   UNL     1     -11.012  13.721  66.640  1.00  0.00    -0.294 NA 
HETATM   10  C   UNL     1     -11.269  14.855  65.895  1.00  0.00    -0.328 C  
HETATM   11  C   UNL     1      -9.871  16.152  67.540  1.00  0.00    -0.237 C  
HETATM   12  C   UNL     1     -12.114  14.632  64.664  1.00  0.00    -0.466 C  
BRANCH   7  13
HETATM   13  C   UNL     1      -9.983  12.266  68.330  1.00  0.00    -0.216 C  
BRANCH  13  14
HETATM   14  O   UNL     1     -11.245  11.650  68.598  1.00  0.00    -0.209 OA 
BRANCH  14  15
HETATM   15  C   UNL     1     -11.280  11.011  69.879  1.00  0.00    -0.252 C  
BRANCH  15  16
HETATM   16  C   UNL     1     -10.551   9.667  69.804  1.00  0.00    -0.242 C  
HETATM   17  N   UNL     1      -9.437   9.607  70.752  1.00  0.00    -0.308 NA 
HETATM   18  H2  UNL     1      -9.744   9.812  71.703  1.00  0.00     0.000 HD 
HETATM   19  H1  UNL     1      -8.951   8.711  70.702  1.00  0.00     0.000 HD 
ENDBRANCH  15  16
ENDBRANCH  14  15
ENDBRANCH  13  14
ENDBRANCH   7  13
BRANCH   8  20
HETATM   20  C   UNL     1     -11.025  17.260  65.454  1.00  0.00     0.078 C  
HETATM   21  O   UNL     1     -11.239  17.242  64.250  1.00  0.00    -1.013 OA 
BRANCH  20  22
HETATM   22  O   UNL     1     -11.008  18.389  66.207  1.00  0.00    -0.078 OA 
HETATM   23  C   UNL     1     -10.642  19.558  65.466  1.00  0.00    -0.208 C  
ENDBRANCH  20  22
ENDBRANCH   8  20
BRANCH  11  24
HETATM   24  C   UNL     1      -8.623  17.030  67.322  1.00  0.00    -0.209 A  
HETATM   25  C   UNL     1      -7.684  16.599  66.356  1.00  0.00    -0.328 A  
HETATM   26  C   UNL     1      -6.506  17.313  66.120  1.00  0.00    -0.158 A  
HETATM   27  C   UNL     1      -6.247  18.473  66.839  1.00  0.00    -0.191 A  
HETATM   28  C   UNL     1      -7.171  18.929  67.778  1.00  0.00    -0.251 A  
HETATM   29  C   UNL     1      -8.355  18.219  68.016  1.00  0.00    -0.261 A  
HETATM   30 CL   UNL     1      -9.448  18.880  69.177  1.00  0.00    -0.258 Cl 
ENDBRANCH  11  24
ENDBRANCH   4   6
ENDBRANCH   3   4
ENDBRANCH   2   3
TORSDOF 10
ENDMDL
MODEL      163
REMARK 921   NORMALIZED FREE ENERGY PREDICTED BY IDOCK:   -2.77 KCAL/MOL
REMARK 922        TOTAL FREE ENERGY PREDICTED BY IDOCK:   -6.12 KCAL/MOL
REMARK 923 INTER-LIGAND FREE ENERGY PREDICTED BY IDOCK:   -4.48 KCAL/MOL
REMARK 924 INTRA-LIGAND FREE ENERGY PREDICTED BY IDOCK:   -1.64 KCAL/MOL
REMARK 927      BINDING AFFINITY PREDICTED BY RF-SCORE:    0.00 PKD
ROOT
HETATM    1  C   UNL     1      -8.638   9.104  63.601  1.00  0.00    -0.180 C  
HETATM    2  C   UNL     1      -7.382   8.566  64.256  1.00  0.00    -0.102 C  
ENDROOT
BRANCH   2   3
HETATM    3  O   UNL     1      -7.826   7.560  65.160  1.00  0.00    -0.107 OA 
BRANCH   3   4
HETATM    4  C   UNL     1      -6.969   7.074  66.086  1.00  0.00    -0.065 C  
HETATM    5  O   UNL     1      -5.753   7.170  66.059  1.00  0.00    -0.030 OA 
BRANCH   4   6
HETATM    6  C   UNL     1      -7.766   6.589  67.251  1.00  0.00    -0.101 C  
HETATM    7  C   UNL     1      -8.371   5.374  67.255  1.00  0.00    -0.107 C  
HETATM    8  C   UNL     1      -8.874   7.030  69.533  1.00  0.00    -0.133 C  
HETATM    9  N   UNL     1      -9.143   4.998  68.340  1.00  0.00    -0.111 NA 
HETATM   10  C   UNL     1      -9.457   5.811  69.412  1.00  0.00    -0.130 C  
HETATM   11  C   UNL     1      -7.885   7.533  68.460  1.00  0.00    -0.122 C  
HETATM   12  C   UNL     1     -10.468   5.236  70.374  1.00  0.00    -0.322 C  
BRANCH   7  13
HETATM   13  C   UNL     1      -8.221   4.311  66.170  1.00  0.00    -0.105 C  
BRANCH  13  14
HETATM   14  O   UNL     1      -9.458   4.035  65.508  1.00  0.00    -0.154 OA 
BRANCH  14  15
HETATM   15  C   UNL     1      -9.314   3.969  64.085  1.00  0.00    -0.157 C  
BRANCH  15  16
HETATM   16  C   UNL     1     -10.593   3.402  63.464  1.00  0.00    -0.260 C  
HETATM   17  N   UNL     1     -10.761   1.982  63.780  1.00  0.00    -0.401 NA 
HETATM   18  H2  UNL     1     -10.730   1.818  64.787  1.00  0.00     0.000 HD 
HETATM   19  H1  UNL     1     -11.614   1.605  63.367  1.00  0.00     0.000 HD 
ENDBRANCH  15  16
ENDBRANCH  14  15
ENDBRANCH  13  14
ENDBRANCH   7  13
BRANCH   8  20
HETATM   20  C   UNL     1      -9.244   7.906  70.678  1.00  0.00    -0.157 C  
HETATM   21  O   UNL     1      -8.489   8.211  71.591  1.00  0.00    -0.114 OA 
BRANCH  20  22
HETATM   22  O   UNL     1     -10.527   8.337  70.575  1.00  0.00    -0.204 OA 
HETATM   23  C   UNL     1     -10.709   9.683  71.026  1.00  0.00    -0.323 C  
ENDBRANCH  20  22
ENDBRANCH   8  20
BRANCH  11  24
HETATM   24  C   UNL     1      -8.130   9.000  68.056  1.00  0.00    -0.105 A  
HETATM   25  C   UNL     1      -7.083   9.923  68.285  1.00  0.00    -0.076 A  
HETATM   26  C   UNL     1      -7.232  11.279  67.985  1.00  0.00    -0.079 A  
HETATM   27  C   UNL     1      -8.427  11.738  67.445  1.00  0.00    -0.158 A  
HETATM   28  C   UNL     1      -9.464  10.841  67.188  1.00  0.00    -0.180 A  
HETATM   29  C   UNL     1      -9.318   9.481  67.484  1.00  0.00    -0.126 A  
HETATM   30 CL   UNL     1     -10.647   8.447  67.103  1.00  0.00    -0.373 Cl 
ENDBRANCH  11  24
ENDBRANCH   4   6
ENDBRANCH   3   4
ENDBRANCH   2   3
TORSDOF 10
ENDMDL
MODEL      164
REMARK 921   NORMALIZED FREE ENERGY PREDICTED BY IDOCK:   -2.76 KCAL/MOL
REMARK 922        TOTAL FREE ENERGY PREDICTED BY IDOCK:   -6.10 KCAL/MOL
REMARK 923 INTER-LIGAND FREE ENERGY PREDICTED BY IDOCK:   -4.63 KCAL/MOL
REMARK 924 INTRA-LIGAND FREE ENERGY PREDICTED BY IDOCK:   -1.47 KCAL/MOL
REMARK 927      BINDING AFFINITY PREDICTED BY RF-SCORE:    0.00 PKD
ROOT
HETATM    1  C   UNL     1     -10.978  10.360  67.813  1.00  0.00    -0.369 C  
HETATM    2  C   UNL     1      -9.791   9.545  68.284  1.00  0.00    -0.155 C  
ENDROOT
BRANCH   2   3
HETATM    3  O   UNL     1     -10.330   8.556  69.153  1.00  0.00    -0.212 OA 
BRANCH   3   4
HETATM    4  C   UNL     1     -10.083   7.249  68.906  1.00  0.00    -0.180 C  
HETATM    5  O   UNL     1      -9.688   6.780  67.852  1.00  0.00    -0.127 OA 
BRANCH   4   6
HETATM    6  C   UNL     1     -10.170   6.506  70.197  1.00  0.00    -0.226 C  
HETATM    7  C   UNL     1     -11.333   6.392  70.887  1.00  0.00    -0.338 C  
HETATM    8  C   UNL     1      -9.016   5.288  72.151  1.00  0.00    -0.138 C  
HETATM    9  N   UNL     1     -11.344   5.738  72.107  1.00  0.00    -0.278 NA 
HETATM   10  C   UNL     1     -10.225   5.265  72.765  1.00  0.00    -0.188 C  
HETATM   11  C   UNL     1      -8.874   5.871  70.729  1.00  0.00    -0.140 C  
HETATM   12  C   UNL     1     -10.476   4.759  74.165  1.00  0.00    -0.335 C  
BRANCH   7  13
HETATM   13  C   UNL     1     -12.698   6.872  70.400  1.00  0.00     0.347 C  
BRANCH  13  14
HETATM   14  O   UNL     1     -13.381   7.651  71.384  1.00  0.00    -0.337 OA 
BRANCH  14  15
HETATM   15  C   UNL     1     -13.423   9.042  71.048  1.00  0.00     0.023 C  
BRANCH  15  16
HETATM   16  C   UNL     1     -13.831   9.857  72.278  1.00  0.00    -0.070 C  
HETATM   17  N   UNL     1     -14.392   9.002  73.327  1.00  0.00    -1.108 NA 
HETATM   18  H2  UNL     1     -13.751   8.247  73.575  1.00  0.00     0.000 HD 
HETATM   19  H1  UNL     1     -14.663   9.545  74.147  1.00  0.00     0.000 HD 
ENDBRANCH  15  16
ENDBRANCH  14  15
ENDBRANCH  13  14
ENDBRANCH   7  13
BRANCH   8  20
HETATM   20  C   UNL     1      -7.816   4.801  72.884  1.00  0.00    -0.093 C  
HETATM   21  O   UNL     1      -7.255   3.735  72.667  1.00  0.00    -0.050 OA 
BRANCH  20  22
HETATM   22  O   UNL     1      -7.412   5.697  73.819  1.00  0.00    -0.089 OA 
HETATM   23  C   UNL     1      -5.994   5.705  74.018  1.00  0.00    -0.057 C  
ENDBRANCH  20  22
ENDBRANCH   8  20
BRANCH  11  24
HETATM   24  C   UNL     1      -7.647   6.792  70.578  1.00  0.00    -0.091 A  
HETATM   25  C   UNL     1      -6.642   6.395  69.665  1.00  0.00    -0.048 A  
HETATM   26  C   UNL     1      -5.479   7.150  69.493  1.00  0.00    -0.015 A  
HETATM   27  C   UNL     1      -5.300   8.317  70.223  1.00  0.00    -0.022 A  
HETATM   28  C   UNL     1      -6.289   8.740  71.111  1.00  0.00    -0.054 A  
HETATM   29  C   UNL     1      -7.458   7.990  71.284  1.00  0.00    -0.072 A  
HETATM   30 CL   UNL     1      -8.635   8.611  72.384  1.00  0.00    -0.211 Cl 
ENDBRANCH  11  24
ENDBRANCH   4   6
ENDBRANCH   3   4
ENDBRANCH   2   3
TORSDOF 10
ENDMDL
MODEL      165
REMARK 921   NORMALIZED FREE ENERGY PREDICTED BY IDOCK:   -2.76 KCAL/MOL
REMARK 922        TOTAL FREE ENERGY PREDICTED BY IDOCK:   -6.10 KCAL/MOL
REMARK 923 INTER-LIGAND FREE ENERGY PREDICTED BY IDOCK:   -4.75 KCAL/MOL
REMARK 924 INTRA-LIGAND FREE ENERGY PREDICTED BY IDOCK:   -1.35 KCAL/MOL
REMARK 927      BINDING AFFINITY PREDICTED BY RF-SCORE:    0.00 PKD
ROOT
HETATM    1  C   UNL     1      -5.635   8.257  66.398  1.00  0.00    -0.032 C  
HETATM    2  C   UNL     1      -7.035   8.391  66.962  1.00  0.00    -0.074 C  
ENDROOT
BRANCH   2   3
HETATM    3  O   UNL     1      -6.864   8.555  68.365  1.00  0.00    -0.063 OA 
BRANCH   3   4
HETATM    4  C   UNL     1      -7.020   9.782  68.914  1.00  0.00    -0.062 C  
HETATM    5  O   UNL     1      -6.356  10.773  68.656  1.00  0.00    -0.049 OA 
BRANCH   4   6
HETATM    6  C   UNL     1      -8.270   9.774  69.727  1.00  0.00    -0.182 C  
HETATM    7  C   UNL     1      -8.419   8.976  70.815  1.00  0.00    -0.200 C  
HETATM    8  C   UNL     1     -10.718  10.501  70.060  1.00  0.00    -0.282 C  
HETATM    9  N   UNL     1      -9.621   8.970  71.500  1.00  0.00    -0.288 NA 
HETATM   10  C   UNL     1     -10.763   9.641  71.108  1.00  0.00    -0.294 C  
HETATM   11  C   UNL     1      -9.404  10.711  69.277  1.00  0.00    -0.136 C  
HETATM   12  C   UNL     1     -11.998   9.326  71.917  1.00  0.00    -0.433 C  
BRANCH   7  13
HETATM   13  C   UNL     1      -7.324   8.103  71.424  1.00  0.00    -0.076 C  
BRANCH  13  14
HETATM   14  O   UNL     1      -7.734   6.740  71.564  1.00  0.00    -0.094 OA 
BRANCH  14  15
HETATM   15  C   UNL     1      -6.954   5.850  70.759  1.00  0.00    -0.063 C  
BRANCH  15  16
HETATM   16  C   UNL     1      -6.343   4.759  71.643  1.00  0.00    -0.022 C  
HETATM   17  N   UNL     1      -5.472   3.869  70.873  1.00  0.00    -0.008 NA 
HETATM   18  H2  UNL     1      -4.752   4.392  70.374  1.00  0.00     0.000 HD 
HETATM   19  H1  UNL     1      -5.065   3.143  71.462  1.00  0.00     0.000 HD 
ENDBRANCH  15  16
ENDBRANCH  14  15
ENDBRANCH  13  14
ENDBRANCH   7  13
BRANCH   8  20
HETATM   20  C   UNL     1     -11.964  11.195  69.632  1.00  0.00    -0.359 C  
HETATM   21  O   UNL     1     -12.871  10.668  69.004  1.00  0.00     0.033 OA 
BRANCH  20  22
HETATM   22  O   UNL     1     -11.971  12.490  70.038  1.00  0.00    -0.332 OA 
HETATM   23  C   UNL     1     -11.936  13.423  68.953  1.00  0.00    -0.324 C  
ENDBRANCH  20  22
ENDBRANCH   8  20
BRANCH  11  24
HETATM   24  C   UNL     1      -9.610  10.717  67.750  1.00  0.00    -0.172 A  
HETATM   25  C   UNL     1     -10.205   9.573  67.167  1.00  0.00    -0.305 A  
HETATM   26  C   UNL     1     -10.395   9.477  65.787  1.00  0.00     0.047 A  
HETATM   27  C   UNL     1     -10.000  10.522  64.962  1.00  0.00    -0.388 A  
HETATM   28  C   UNL     1      -9.434  11.670  65.518  1.00  0.00    -0.215 A  
HETATM   29  C   UNL     1      -9.246  11.773  66.901  1.00  0.00    -0.189 A  
HETATM   30 CL   UNL     1      -8.564  13.244  67.494  1.00  0.00    -0.188 Cl 
ENDBRANCH  11  24
ENDBRANCH   4   6
ENDBRANCH   3   4
ENDBRANCH   2   3
TORSDOF 10
ENDMDL
MODEL      166
REMARK 921   NORMALIZED FREE ENERGY PREDICTED BY IDOCK:   -2.75 KCAL/MOL
REMARK 922        TOTAL FREE ENERGY PREDICTED BY IDOCK:   -6.10 KCAL/MOL
REMARK 923 INTER-LIGAND FREE ENERGY PREDICTED BY IDOCK:   -4.86 KCAL/MOL
REMARK 924 INTRA-LIGAND FREE ENERGY PREDICTED BY IDOCK:   -1.24 KCAL/MOL
REMARK 927      BINDING AFFINITY PREDICTED BY RF-SCORE:    0.00 PKD
ROOT
HETATM    1  C   UNL     1      -7.469   5.192  66.335  1.00  0.00    -0.087 C  
HETATM    2  C   UNL     1      -8.421   5.713  67.393  1.00  0.00    -0.106 C  
ENDROOT
BRANCH   2   3
HETATM    3  O   UNL     1      -8.144   7.105  67.501  1.00  0.00    -0.111 OA 
BRANCH   3   4
HETATM    4  C   UNL     1      -7.933   7.647  68.722  1.00  0.00    -0.126 C  
HETATM    5  O   UNL     1      -6.992   7.408  69.460  1.00  0.00    -0.054 OA 
BRANCH   4   6
HETATM    6  C   UNL     1      -8.928   8.740  68.925  1.00  0.00    -0.134 C  
HETATM    7  C   UNL     1     -10.182   8.498  69.385  1.00  0.00    -0.211 C  
HETATM    8  C   UNL     1      -9.622  11.204  68.645  1.00  0.00    -0.200 C  
HETATM    9  N   UNL     1     -11.082   9.543  69.502  1.00  0.00    -0.191 NA 
HETATM   10  C   UNL     1     -10.853  10.839  69.081  1.00  0.00    -0.237 C  
HETATM   11  C   UNL     1      -8.477  10.170  68.583  1.00  0.00    -0.122 C  
HETATM   12  C   UNL     1     -12.054  11.751  69.144  1.00  0.00    -0.290 C  
BRANCH   7  13
HETATM   13  C   UNL     1     -10.698   7.145  69.870  1.00  0.00    -0.239 C  
BRANCH  13  14
HETATM   14  O   UNL     1     -11.228   7.212  71.197  1.00  0.00    -0.249 OA 
BRANCH  14  15
HETATM   15  C   UNL     1     -10.204   7.351  72.188  1.00  0.00    -0.192 C  
BRANCH  15  16
HETATM   16  C   UNL     1     -10.774   7.010  73.567  1.00  0.00    -0.332 C  
HETATM   17  N   UNL     1     -10.850   5.562  73.774  1.00  0.00    -0.383 NA 
HETATM   18  H2  UNL     1      -9.944   5.116  73.624  1.00  0.00     0.000 HD 
HETATM   19  H1  UNL     1     -11.229   5.335  74.693  1.00  0.00     0.000 HD 
ENDBRANCH  15  16
ENDBRANCH  14  15
ENDBRANCH  13  14
ENDBRANCH   7  13
BRANCH   8  20
HETATM   20  C   UNL     1      -9.399  12.596  68.168  1.00  0.00    -0.210 C  
HETATM   21  O   UNL     1      -8.598  13.379  68.661  1.00  0.00    -0.111 OA 
BRANCH  20  22
HETATM   22  O   UNL     1     -10.191  12.886  67.105  1.00  0.00    -0.235 OA 
HETATM   23  C   UNL     1      -9.469  13.433  65.996  1.00  0.00    -0.086 C  
ENDBRANCH  20  22
ENDBRANCH   8  20
BRANCH  11  24
HETATM   24  C   UNL     1      -7.667  10.249  67.274  1.00  0.00    -0.095 A  
HETATM   25  C   UNL     1      -6.293  10.568  67.376  1.00  0.00    -0.058 A  
HETATM   26  C   UNL     1      -5.492  10.697  66.239  1.00  0.00    -0.086 A  
HETATM   27  C   UNL     1      -6.045  10.504  64.979  1.00  0.00    -0.081 A  
HETATM   28  C   UNL     1      -7.392  10.164  64.857  1.00  0.00    -0.136 A  
HETATM   29  C   UNL     1      -8.199  10.029  65.994  1.00  0.00    -0.126 A  
HETATM   30 CL   UNL     1      -9.846   9.578  65.740  1.00  0.00    -0.370 Cl 
ENDBRANCH  11  24
ENDBRANCH   4   6
ENDBRANCH   3   4
ENDBRANCH   2   3
TORSDOF 10
ENDMDL
MODEL      167
REMARK 921   NORMALIZED FREE ENERGY PREDICTED BY IDOCK:   -2.75 KCAL/MOL
REMARK 922        TOTAL FREE ENERGY PREDICTED BY IDOCK:   -6.09 KCAL/MOL
REMARK 923 INTER-LIGAND FREE ENERGY PREDICTED BY IDOCK:   -4.46 KCAL/MOL
REMARK 924 INTRA-LIGAND FREE ENERGY PREDICTED BY IDOCK:   -1.62 KCAL/MOL
REMARK 927      BINDING AFFINITY PREDICTED BY RF-SCORE:    0.00 PKD
ROOT
HETATM    1  C   UNL     1      -8.585   5.169  68.507  1.00  0.00    -0.094 C  
HETATM    2  C   UNL     1      -7.481   6.167  68.793  1.00  0.00    -0.087 C  
ENDROOT
BRANCH   2   3
HETATM    3  O   UNL     1      -7.955   7.412  68.294  1.00  0.00    -0.119 OA 
BRANCH   3   4
HETATM    4  C   UNL     1      -7.426   8.563  68.769  1.00  0.00    -0.092 C  
HETATM    5  O   UNL     1      -6.240   8.788  68.946  1.00  0.00    -0.043 OA 
BRANCH   4   6
HETATM    6  C   UNL     1      -8.513   9.582  68.840  1.00  0.00    -0.123 C  
HETATM    7  C   UNL     1      -9.454   9.566  69.819  1.00  0.00    -0.210 C  
HETATM    8  C   UNL     1      -9.794  11.553  67.789  1.00  0.00    -0.186 C  
HETATM    9  N   UNL     1     -10.472  10.504  69.805  1.00  0.00    -0.232 NA 
HETATM   10  C   UNL     1     -10.693  11.421  68.796  1.00  0.00    -0.203 C  
HETATM   11  C   UNL     1      -8.536  10.660  67.744  1.00  0.00    -0.116 C  
HETATM   12  C   UNL     1     -11.976  12.207  68.919  1.00  0.00    -0.296 C  
BRANCH   7  13
HETATM   13  C   UNL     1      -9.460   8.625  71.021  1.00  0.00    -0.207 C  
BRANCH  13  14
HETATM   14  O   UNL     1      -8.504   9.006  72.013  1.00  0.00    -0.368 OA 
BRANCH  14  15
HETATM   15  C   UNL     1      -8.338   8.007  73.025  1.00  0.00    -0.185 C  
BRANCH  15  16
HETATM   16  C   UNL     1      -7.419   6.897  72.506  1.00  0.00    -0.090 C  
HETATM   17  N   UNL     1      -6.089   7.412  72.176  1.00  0.00    -0.040 NA 
HETATM   18  H2  UNL     1      -5.671   7.903  72.967  1.00  0.00     0.000 HD 
HETATM   19  H1  UNL     1      -5.477   6.673  71.831  1.00  0.00     0.000 HD 
ENDBRANCH  15  16
ENDBRANCH  14  15
ENDBRANCH  13  14
ENDBRANCH   7  13
BRANCH   8  20
HETATM   20  C   UNL     1     -10.061  12.526  66.694  1.00  0.00    -0.230 C  
HETATM   21  O   UNL     1     -10.975  12.428  65.887  1.00  0.00    -0.270 OA 
BRANCH  20  22
HETATM   22  O   UNL     1      -9.166  13.546  66.711  1.00  0.00    -0.246 OA 
HETATM   23  C   UNL     1      -9.781  14.835  66.812  1.00  0.00    -0.254 C  
ENDBRANCH  20  22
ENDBRANCH   8  20
BRANCH  11  24
HETATM   24  C   UNL     1      -8.250  10.096  66.339  1.00  0.00    -0.122 A  
HETATM   25  C   UNL     1      -7.053  10.503  65.703  1.00  0.00    -0.119 A  
HETATM   26  C   UNL     1      -6.733  10.070  64.414  1.00  0.00    -0.128 A  
HETATM   27  C   UNL     1      -7.597   9.219  63.737  1.00  0.00    -0.112 A  
HETATM   28  C   UNL     1      -8.770   8.786  64.355  1.00  0.00    -0.053 A  
HETATM   29  C   UNL     1      -9.094   9.213  65.648  1.00  0.00    -0.219 A  
HETATM   30 CL   UNL     1     -10.553   8.598  66.336  1.00  0.00    -0.016 Cl 
ENDBRANCH  11  24
ENDBRANCH   4   6
ENDBRANCH   3   4
ENDBRANCH   2   3
TORSDOF 10
ENDMDL
MODEL      168
REMARK 921   NORMALIZED FREE ENERGY PREDICTED BY IDOCK:   -2.74 KCAL/MOL
REMARK 922        TOTAL FREE ENERGY PREDICTED BY IDOCK:   -6.08 KCAL/MOL
REMARK 923 INTER-LIGAND FREE ENERGY PREDICTED BY IDOCK:   -4.49 KCAL/MOL
REMARK 924 INTRA-LIGAND FREE ENERGY PREDICTED BY IDOCK:   -1.59 KCAL/MOL
REMARK 927      BINDING AFFINITY PREDICTED BY RF-SCORE:    0.00 PKD
ROOT
HETATM    1  C   UNL     1      -9.878  19.389  68.843  1.00  0.00    -0.523 C  
HETATM    2  C   UNL     1     -10.281  18.371  67.795  1.00  0.00    -0.385 C  
ENDROOT
BRANCH   2   3
HETATM    3  O   UNL     1     -10.480  17.153  68.505  1.00  0.00    -0.336 OA 
BRANCH   3   4
HETATM    4  C   UNL     1      -9.419  16.356  68.767  1.00  0.00    -0.247 C  
HETATM    5  O   UNL     1      -8.430  16.666  69.410  1.00  0.00    -0.098 OA 
BRANCH   4   6
HETATM    6  C   UNL     1      -9.753  14.973  68.319  1.00  0.00    -0.215 C  
HETATM    7  C   UNL     1      -9.659  14.593  67.019  1.00  0.00    -0.240 C  
HETATM    8  C   UNL     1     -10.721  12.640  68.820  1.00  0.00    -0.240 C  
HETATM    9  N   UNL     1     -10.034  13.312  66.652  1.00  0.00    -0.265 NA 
HETATM   10  C   UNL     1     -10.617  12.383  67.492  1.00  0.00    -0.219 C  
HETATM   11  C   UNL     1     -10.222  13.981  69.397  1.00  0.00     0.176 C  
HETATM   12  C   UNL     1     -11.108  11.128  66.812  1.00  0.00    -0.280 C  
BRANCH   7  13
HETATM   13  C   UNL     1      -9.092  15.448  65.889  1.00  0.00    -0.153 C  
BRANCH  13  14
HETATM   14  O   UNL     1      -9.868  15.346  64.692  1.00  0.00    -0.040 OA 
BRANCH  14  15
HETATM   15  C   UNL     1     -11.171  15.922  64.834  1.00  0.00    -0.337 C  
BRANCH  15  16
HETATM   16  C   UNL     1     -12.208  15.019  64.161  1.00  0.00    -0.211 C  
HETATM   17  N   UNL     1     -12.695  13.984  65.075  1.00  0.00    -0.685 NA 
HETATM   18  H2  UNL     1     -13.058  14.390  65.938  1.00  0.00     0.000 HD 
HETATM   19  H1  UNL     1     -13.386  13.383  64.627  1.00  0.00     0.000 HD 
ENDBRANCH  15  16
ENDBRANCH  14  15
ENDBRANCH  13  14
ENDBRANCH   7  13
BRANCH   8  20
HETATM   20  C   UNL     1     -11.377  11.641  69.708  1.00  0.00    -0.200 C  
HETATM   21  O   UNL     1     -12.566  11.642  69.994  1.00  0.00    -0.118 OA 
BRANCH  20  22
HETATM   22  O   UNL     1     -10.488  10.716  70.151  1.00  0.00    -0.144 OA 
HETATM   23  C   UNL     1     -11.105   9.623  70.839  1.00  0.00    -0.352 C  
ENDBRANCH  20  22
ENDBRANCH   8  20
BRANCH  11  24
HETATM   24  C   UNL     1     -11.209  14.607  70.402  1.00  0.00    -0.170 A  
HETATM   25  C   UNL     1     -10.787  14.721  71.747  1.00  0.00     0.870 A  
HETATM   26  C   UNL     1     -11.630  15.242  72.731  1.00  0.00    -0.439 A  
HETATM   27  C   UNL     1     -12.909  15.664  72.391  1.00  0.00    -0.519 A  
HETATM   28  C   UNL     1     -13.337  15.584  71.066  1.00  0.00    -0.495 A  
HETATM   29  C   UNL     1     -12.494  15.067  70.075  1.00  0.00    -0.275 A  
HETATM   30 CL   UNL     1     -13.105  15.036  68.460  1.00  0.00     1.646 Cl 
ENDBRANCH  11  24
ENDBRANCH   4   6
ENDBRANCH   3   4
ENDBRANCH   2   3
TORSDOF 10
ENDMDL
MODEL      169
REMARK 921   NORMALIZED FREE ENERGY PREDICTED BY IDOCK:   -2.74 KCAL/MOL
REMARK 922        TOTAL FREE ENERGY PREDICTED BY IDOCK:   -6.07 KCAL/MOL
REMARK 923 INTER-LIGAND FREE ENERGY PREDICTED BY IDOCK:   -4.25 KCAL/MOL
REMARK 924 INTRA-LIGAND FREE ENERGY PREDICTED BY IDOCK:   -1.83 KCAL/MOL
REMARK 927      BINDING AFFINITY PREDICTED BY RF-SCORE:    0.00 PKD
ROOT
HETATM    1  C   UNL     1      -6.568   8.968  71.151  1.00  0.00    -0.086 C  
HETATM    2  C   UNL     1      -6.920  10.307  70.534  1.00  0.00     0.017 C  
ENDROOT
BRANCH   2   3
HETATM    3  O   UNL     1      -7.122  10.047  69.150  1.00  0.00    -0.061 OA 
BRANCH   3   4
HETATM    4  C   UNL     1      -8.377   9.840  68.689  1.00  0.00    -0.111 C  
HETATM    5  O   UNL     1      -9.410  10.142  69.262  1.00  0.00    -0.192 OA 
BRANCH   4   6
HETATM    6  C   UNL     1      -8.284   9.375  67.274  1.00  0.00    -0.117 C  
HETATM    7  C   UNL     1      -8.402  10.228  66.225  1.00  0.00    -0.134 C  
HETATM    8  C   UNL     1      -8.156   7.456  65.562  1.00  0.00    -0.131 C  
HETATM    9  N   UNL     1      -8.362   9.733  64.933  1.00  0.00    -0.139 NA 
HETATM   10  C   UNL     1      -8.319   8.394  64.596  1.00  0.00    -0.127 C  
HETATM   11  C   UNL     1      -8.053   7.871  67.045  1.00  0.00    -0.116 C  
HETATM   12  C   UNL     1      -8.474   8.102  63.123  1.00  0.00     0.068 C  
BRANCH   7  13
HETATM   13  C   UNL     1      -8.509  11.747  66.331  1.00  0.00    -0.081 C  
BRANCH  13  14
HETATM   14  O   UNL     1      -9.851  12.180  66.567  1.00  0.00    -0.209 OA 
BRANCH  14  15
HETATM   15  C   UNL     1     -10.201  13.328  65.785  1.00  0.00    -0.292 C  
BRANCH  15  16
HETATM   16  C   UNL     1     -11.169  14.212  66.575  1.00  0.00    -0.330 C  
HETATM   17  N   UNL     1     -11.974  13.425  67.511  1.00  0.00    -0.359 NA 
HETATM   18  H2  UNL     1     -11.386  12.868  68.132  1.00  0.00     0.000 HD 
HETATM   19  H1  UNL     1     -12.619  14.014  68.038  1.00  0.00     0.000 HD 
ENDBRANCH  15  16
ENDBRANCH  14  15
ENDBRANCH  13  14
ENDBRANCH   7  13
BRANCH   8  20
HETATM   20  C   UNL     1      -8.140   6.015  65.186  1.00  0.00    -0.132 C  
HETATM   21  O   UNL     1      -9.139   5.331  65.014  1.00  0.00    -0.126 OA 
BRANCH  20  22
HETATM   22  O   UNL     1      -6.870   5.557  65.044  1.00  0.00    -0.046 OA 
HETATM   23  C   UNL     1      -6.583   4.424  65.870  1.00  0.00    -0.044 C  
ENDBRANCH  20  22
ENDBRANCH   8  20
BRANCH  11  24
HETATM   24  C   UNL     1      -8.900   6.983  67.978  1.00  0.00    -0.124 A  
HETATM   25  C   UNL     1     -10.306   7.044  67.837  1.00  0.00    -0.247 A  
HETATM   26  C   UNL     1     -11.151   6.302  68.666  1.00  0.00    -0.409 A  
HETATM   27  C   UNL     1     -10.609   5.480  69.645  1.00  0.00    -0.375 A  
HETATM   28  C   UNL     1      -9.224   5.385  69.784  1.00  0.00    -0.169 A  
HETATM   29  C   UNL     1      -8.373   6.124  68.954  1.00  0.00    -0.115 A  
HETATM   30 CL   UNL     1      -6.675   5.917  69.186  1.00  0.00    -0.058 Cl 
ENDBRANCH  11  24
ENDBRANCH   4   6
ENDBRANCH   3   4
ENDBRANCH   2   3
TORSDOF 10
ENDMDL
MODEL      170
REMARK 921   NORMALIZED FREE ENERGY PREDICTED BY IDOCK:   -2.74 KCAL/MOL
REMARK 922        TOTAL FREE ENERGY PREDICTED BY IDOCK:   -6.07 KCAL/MOL
REMARK 923 INTER-LIGAND FREE ENERGY PREDICTED BY IDOCK:   -5.59 KCAL/MOL
REMARK 924 INTRA-LIGAND FREE ENERGY PREDICTED BY IDOCK:   -0.48 KCAL/MOL
REMARK 927      BINDING AFFINITY PREDICTED BY RF-SCORE:    0.00 PKD
ROOT
HETATM    1  C   UNL     1      -7.766   7.820  74.563  1.00  0.00    -0.233 C  
HETATM    2  C   UNL     1      -8.407   8.193  73.241  1.00  0.00    -0.214 C  
ENDROOT
BRANCH   2   3
HETATM    3  O   UNL     1      -9.755   7.744  73.332  1.00  0.00    -0.278 OA 
BRANCH   3   4
HETATM    4  C   UNL     1     -10.036   6.440  73.106  1.00  0.00    -0.189 C  
HETATM    5  O   UNL     1     -10.753   5.731  73.792  1.00  0.00    -0.270 OA 
BRANCH   4   6
HETATM    6  C   UNL     1      -9.497   6.073  71.764  1.00  0.00    -0.165 C  
HETATM    7  C   UNL     1      -8.314   5.424  71.615  1.00  0.00    -0.119 C  
HETATM    8  C   UNL     1      -9.618   6.218  69.196  1.00  0.00    -0.148 C  
HETATM    9  N   UNL     1      -7.835   5.157  70.344  1.00  0.00    -0.073 NA 
HETATM   10  C   UNL     1      -8.413   5.596  69.169  1.00  0.00    -0.102 C  
HETATM   11  C   UNL     1     -10.337   6.469  70.538  1.00  0.00    -0.240 C  
HETATM   12  C   UNL     1      -7.601   5.337  67.923  1.00  0.00    -0.084 C  
BRANCH   7  13
HETATM   13  C   UNL     1      -7.459   4.875  72.755  1.00  0.00    -0.091 C  
BRANCH  13  14
HETATM   14  O   UNL     1      -7.612   3.463  72.915  1.00  0.00    -0.057 OA 
BRANCH  14  15
HETATM   15  C   UNL     1      -8.509   3.127  73.980  1.00  0.00    -0.073 C  
BRANCH  15  16
HETATM   16  C   UNL     1      -9.653   2.267  73.436  1.00  0.00    -0.086 C  
HETATM   17  N   UNL     1      -9.668   2.256  71.972  1.00  0.00    -0.129 NA 
HETATM   18  H2  UNL     1      -8.768   1.963  71.592  1.00  0.00     0.000 HD 
HETATM   19  H1  UNL     1     -10.430   1.682  71.610  1.00  0.00     0.000 HD 
ENDBRANCH  15  16
ENDBRANCH  14  15
ENDBRANCH  13  14
ENDBRANCH   7  13
BRANCH   8  20
HETATM   20  C   UNL     1     -10.214   6.711  67.924  1.00  0.00    -0.171 C  
HETATM   21  O   UNL     1     -11.191   6.217  67.378  1.00  0.00    -0.328 OA 
BRANCH  20  22
HETATM   22  O   UNL     1      -9.541   7.791  67.450  1.00  0.00    -0.140 OA 
HETATM   23  C   UNL     1     -10.361   8.671  66.674  1.00  0.00    -0.232 C  
ENDBRANCH  20  22
ENDBRANCH   8  20
BRANCH  11  24
HETATM   24  C   UNL     1     -10.928   7.889  70.647  1.00  0.00    -0.248 A  
HETATM   25  C   UNL     1     -10.104   8.969  70.252  1.00  0.00    -0.232 A  
HETATM   26  C   UNL     1     -10.545  10.291  70.352  1.00  0.00    -0.212 A  
HETATM   27  C   UNL     1     -11.816  10.560  70.842  1.00  0.00    -0.455 A  
HETATM   28  C   UNL     1     -12.654   9.508  71.213  1.00  0.00    -0.425 A  
HETATM   29  C   UNL     1     -12.219   8.181  71.111  1.00  0.00    -0.239 A  
HETATM   30 CL   UNL     1     -13.340   6.949  71.568  1.00  0.00    -0.355 Cl 
ENDBRANCH  11  24
ENDBRANCH   4   6
ENDBRANCH   3   4
ENDBRANCH   2   3
TORSDOF 10
ENDMDL
MODEL      171
REMARK 921   NORMALIZED FREE ENERGY PREDICTED BY IDOCK:   -2.73 KCAL/MOL
REMARK 922        TOTAL FREE ENERGY PREDICTED BY IDOCK:   -6.07 KCAL/MOL
REMARK 923 INTER-LIGAND FREE ENERGY PREDICTED BY IDOCK:   -4.83 KCAL/MOL
REMARK 924 INTRA-LIGAND FREE ENERGY PREDICTED BY IDOCK:   -1.23 KCAL/MOL
REMARK 927      BINDING AFFINITY PREDICTED BY RF-SCORE:    0.00 PKD
ROOT
HETATM    1  C   UNL     1     -10.967  10.211  68.250  1.00  0.00    -0.299 C  
HETATM    2  C   UNL     1     -10.223   9.141  67.476  1.00  0.00    -0.245 C  
ENDROOT
BRANCH   2   3
HETATM    3  O   UNL     1     -10.198   8.002  68.330  1.00  0.00    -0.198 OA 
BRANCH   3   4
HETATM    4  C   UNL     1     -10.748   6.841  67.905  1.00  0.00    -0.256 C  
HETATM    5  O   UNL     1     -11.471   6.704  66.933  1.00  0.00    -0.209 OA 
BRANCH   4   6
HETATM    6  C   UNL     1     -10.152   5.726  68.697  1.00  0.00    -0.227 C  
HETATM    7  C   UNL     1     -10.186   5.706  70.054  1.00  0.00    -0.252 C  
HETATM    8  C   UNL     1      -8.734   3.580  68.808  1.00  0.00    -0.140 C  
HETATM    9  N   UNL     1      -9.570   4.674  70.739  1.00  0.00    -0.167 NA 
HETATM   10  C   UNL     1      -8.803   3.681  70.159  1.00  0.00    -0.081 C  
HETATM   11  C   UNL     1      -9.481   4.588  67.910  1.00  0.00    -0.200 C  
HETATM   12  C   UNL     1      -8.082   2.781  71.132  1.00  0.00    -0.064 C  
BRANCH   7  13
HETATM   13  C   UNL     1     -10.927   6.711  70.933  1.00  0.00    -0.268 C  
BRANCH  13  14
HETATM   14  O   UNL     1     -12.296   6.352  71.130  1.00  0.00    -0.217 OA 
BRANCH  14  15
HETATM   15  C   UNL     1     -13.130   7.489  71.377  1.00  0.00    -0.325 C  
BRANCH  15  16
HETATM   16  C   UNL     1     -12.342   8.544  72.159  1.00  0.00    -0.382 C  
HETATM   17  N   UNL     1     -12.700   9.901  71.743  1.00  0.00    -0.407 NA 
HETATM   18  H2  UNL     1     -13.706  10.059  71.812  1.00  0.00     0.000 HD 
HETATM   19  H1  UNL     1     -12.176  10.604  72.264  1.00  0.00     0.000 HD 
ENDBRANCH  15  16
ENDBRANCH  14  15
ENDBRANCH  13  14
ENDBRANCH   7  13
BRANCH   8  20
HETATM   20  C   UNL     1      -7.881   2.523  68.198  1.00  0.00    -0.058 C  
HETATM   21  O   UNL     1      -8.307   1.502  67.676  1.00  0.00    -0.063 OA 
BRANCH  20  22
HETATM   22  O   UNL     1      -6.564   2.842  68.283  1.00  0.00    -0.035 OA 
HETATM   23  C   UNL     1      -5.840   2.577  67.078  1.00  0.00    -0.023 C  
ENDBRANCH  20  22
ENDBRANCH   8  20
BRANCH  11  24
HETATM   24  C   UNL     1      -8.624   5.094  66.733  1.00  0.00    -0.109 A  
HETATM   25  C   UNL     1      -7.510   5.910  67.041  1.00  0.00    -0.084 A  
HETATM   26  C   UNL     1      -6.700   6.443  66.036  1.00  0.00    -0.049 A  
HETATM   27  C   UNL     1      -6.983   6.168  64.704  1.00  0.00    -0.051 A  
HETATM   28  C   UNL     1      -8.061   5.345  64.379  1.00  0.00    -0.123 A  
HETATM   29  C   UNL     1      -8.873   4.805  65.383  1.00  0.00    -0.146 A  
HETATM   30 CL   UNL     1     -10.166   3.776  64.880  1.00  0.00    -0.156 Cl 
ENDBRANCH  11  24
ENDBRANCH   4   6
ENDBRANCH   3   4
ENDBRANCH   2   3
TORSDOF 10
ENDMDL
MODEL      172
REMARK 921   NORMALIZED FREE ENERGY PREDICTED BY IDOCK:   -2.70 KCAL/MOL
REMARK 922        TOTAL FREE ENERGY PREDICTED BY IDOCK:   -6.02 KCAL/MOL
REMARK 923 INTER-LIGAND FREE ENERGY PREDICTED BY IDOCK:   -6.50 KCAL/MOL
REMARK 924 INTRA-LIGAND FREE ENERGY PREDICTED BY IDOCK:    0.48 KCAL/MOL
REMARK 927      BINDING AFFINITY PREDICTED BY RF-SCORE:    0.00 PKD
ROOT
HETATM    1  C   UNL     1      -8.077  20.181  68.787  1.00  0.00     0.121 C  
HETATM    2  C   UNL     1      -7.356  19.016  69.434  1.00  0.00    -0.095 C  
ENDROOT
BRANCH   2   3
HETATM    3  O   UNL     1      -8.329  17.984  69.551  1.00  0.00     0.355 OA 
BRANCH   3   4
HETATM    4  C   UNL     1      -9.640  18.289  69.408  1.00  0.00     0.204 C  
HETATM    5  O   UNL     1     -10.150  19.377  69.615  1.00  0.00    -0.168 OA 
BRANCH   4   6
HETATM    6  C   UNL     1     -10.319  17.133  68.754  1.00  0.00    -0.353 C  
HETATM    7  C   UNL     1     -10.956  16.171  69.469  1.00  0.00    -0.341 C  
HETATM    8  C   UNL     1     -10.825  15.747  66.643  1.00  0.00    -0.241 C  
HETATM    9  N   UNL     1     -11.522  15.092  68.813  1.00  0.00    -0.302 NA 
HETATM   10  C   UNL     1     -11.404  14.833  67.461  1.00  0.00    -0.344 C  
HETATM   11  C   UNL     1     -10.262  17.064  67.218  1.00  0.00    -0.310 C  
HETATM   12  C   UNL     1     -11.949  13.497  67.018  1.00  0.00    -0.440 C  
BRANCH   7  13
HETATM   13  C   UNL     1     -11.181  16.198  70.979  1.00  0.00    -0.253 C  
BRANCH  13  14
HETATM   14  O   UNL     1     -12.563  16.064  71.323  1.00  0.00    -0.428 OA 
BRANCH  14  15
HETATM   15  C   UNL     1     -12.774  15.122  72.380  1.00  0.00    -0.348 C  
BRANCH  15  16
HETATM   16  C   UNL     1     -13.311  13.811  71.800  1.00  0.00    -0.383 C  
HETATM   17  N   UNL     1     -12.301  13.127  70.990  1.00  0.00    -0.393 NA 
HETATM   18  H2  UNL     1     -11.440  12.977  71.517  1.00  0.00     0.000 HD 
HETATM   19  H1  UNL     1     -12.659  12.254  70.604  1.00  0.00     0.000 HD 
ENDBRANCH  15  16
ENDBRANCH  14  15
ENDBRANCH  13  14
ENDBRANCH   7  13
BRANCH   8  20
HETATM   20  C   UNL     1     -10.680  15.441  65.193  1.00  0.00    -0.440 C  
HETATM   21  O   UNL     1     -11.119  16.140  64.290  1.00  0.00    -0.653 OA 
BRANCH  20  22
HETATM   22  O   UNL     1      -9.987  14.291  64.998  1.00  0.00    -0.338 OA 
HETATM   23  C   UNL     1     -10.631  13.389  64.093  1.00  0.00    -0.236 C  
ENDBRANCH  20  22
ENDBRANCH   8  20
BRANCH  11  24
HETATM   24  C   UNL     1      -8.875  17.424  66.650  1.00  0.00    -0.278 A  
HETATM   25  C   UNL     1      -7.836  16.479  66.820  1.00  0.00    -0.296 A  
HETATM   26  C   UNL     1      -6.539  16.737  66.370  1.00  0.00    -0.009 A  
HETATM   27  C   UNL     1      -6.256  17.940  65.737  1.00  0.00    -0.252 A  
HETATM   28  C   UNL     1      -7.271  18.876  65.537  1.00  0.00    -0.095 A  
HETATM   29  C   UNL     1      -8.573  18.620  65.982  1.00  0.00    -0.001 A  
HETATM   30 CL   UNL     1      -9.765  19.828  65.662  1.00  0.00    -0.185 Cl 
ENDBRANCH  11  24
ENDBRANCH   4   6
ENDBRANCH   3   4
ENDBRANCH   2   3
TORSDOF 10
ENDMDL
MODEL      173
REMARK 921   NORMALIZED FREE ENERGY PREDICTED BY IDOCK:   -2.70 KCAL/MOL
REMARK 922        TOTAL FREE ENERGY PREDICTED BY IDOCK:   -6.01 KCAL/MOL
REMARK 923 INTER-LIGAND FREE ENERGY PREDICTED BY IDOCK:   -6.11 KCAL/MOL
REMARK 924 INTRA-LIGAND FREE ENERGY PREDICTED BY IDOCK:    0.10 KCAL/MOL
REMARK 927      BINDING AFFINITY PREDICTED BY RF-SCORE:    0.00 PKD
ROOT
HETATM    1  C   UNL     1     -12.067  13.635  68.594  1.00  0.00    -0.325 C  
HETATM    2  C   UNL     1     -12.247  15.127  68.790  1.00  0.00    -0.069 C  
ENDROOT
BRANCH   2   3
HETATM    3  O   UNL     1     -11.490  15.740  67.752  1.00  0.00    -0.290 OA 
BRANCH   3   4
HETATM    4  C   UNL     1     -10.969  14.972  66.768  1.00  0.00    -0.323 C  
HETATM    5  O   UNL     1     -11.589  14.470  65.846  1.00  0.00    -0.350 OA 
BRANCH   4   6
HETATM    6  C   UNL     1      -9.482  15.018  66.878  1.00  0.00    -0.252 C  
HETATM    7  C   UNL     1      -8.760  13.968  67.345  1.00  0.00    -0.207 C  
HETATM    8  C   UNL     1      -7.278  16.345  66.766  1.00  0.00    -0.245 C  
HETATM    9  N   UNL     1      -7.387  14.086  67.478  1.00  0.00    -0.179 NA 
HETATM   10  C   UNL     1      -6.666  15.246  67.273  1.00  0.00    -0.024 C  
HETATM   11  C   UNL     1      -8.787  16.320  66.444  1.00  0.00    -0.346 C  
HETATM   12  C   UNL     1      -5.210  15.169  67.664  1.00  0.00     0.015 C  
BRANCH   7  13
HETATM   13  C   UNL     1      -9.325  12.592  67.687  1.00  0.00    -0.189 C  
BRANCH  13  14
HETATM   14  O   UNL     1      -8.770  11.560  66.869  1.00  0.00    -0.167 OA 
BRANCH  14  15
HETATM   15  C   UNL     1      -9.776  10.761  66.237  1.00  0.00    -0.205 C  
BRANCH  15  16
HETATM   16  C   UNL     1     -10.574  11.621  65.254  1.00  0.00    -0.281 C  
HETATM   17  N   UNL     1      -9.691  12.366  64.354  1.00  0.00    -0.520 NA 
HETATM   18  H2  UNL     1      -9.044  11.745  63.867  1.00  0.00     0.000 HD 
HETATM   19  H1  UNL     1     -10.222  12.939  63.698  1.00  0.00     0.000 HD 
ENDBRANCH  15  16
ENDBRANCH  14  15
ENDBRANCH  13  14
ENDBRANCH   7  13
BRANCH   8  20
HETATM   20  C   UNL     1      -6.493  17.596  66.578  1.00  0.00    -0.222 C  
HETATM   21  O   UNL     1      -5.982  18.238  67.486  1.00  0.00    -0.159 OA 
BRANCH  20  22
HETATM   22  O   UNL     1      -6.404  17.931  65.266  1.00  0.00    -0.179 OA 
HETATM   23  C   UNL     1      -6.770  19.289  65.003  1.00  0.00    -0.051 C  
ENDBRANCH  20  22
ENDBRANCH   8  20
BRANCH  11  24
HETATM   24  C   UNL     1      -9.524  17.585  66.925  1.00  0.00    -0.278 A  
HETATM   25  C   UNL     1     -10.194  18.361  65.949  1.00  0.00    -0.250 A  
HETATM   26  C   UNL     1     -10.856  19.542  66.290  1.00  0.00    -0.430 A  
HETATM   27  C   UNL     1     -10.868  19.969  67.612  1.00  0.00    -0.211 A  
HETATM   28  C   UNL     1     -10.236  19.207  68.594  1.00  0.00    -0.407 A  
HETATM   29  C   UNL     1      -9.574  18.020  68.258  1.00  0.00    -0.318 A  
HETATM   30 CL   UNL     1      -8.846  17.133  69.549  1.00  0.00     0.357 Cl 
ENDBRANCH  11  24
ENDBRANCH   4   6
ENDBRANCH   3   4
ENDBRANCH   2   3
TORSDOF 10
ENDMDL
MODEL      174
REMARK 921   NORMALIZED FREE ENERGY PREDICTED BY IDOCK:   -2.63 KCAL/MOL
REMARK 922        TOTAL FREE ENERGY PREDICTED BY IDOCK:   -5.90 KCAL/MOL
REMARK 923 INTER-LIGAND FREE ENERGY PREDICTED BY IDOCK:   -5.63 KCAL/MOL
REMARK 924 INTRA-LIGAND FREE ENERGY PREDICTED BY IDOCK:   -0.27 KCAL/MOL
REMARK 927      BINDING AFFINITY PREDICTED BY RF-SCORE:    0.00 PKD
ROOT
HETATM    1  C   UNL     1      -6.052  10.288  65.021  1.00  0.00    -0.130 C  
HETATM    2  C   UNL     1      -5.988   9.324  66.188  1.00  0.00    -0.059 C  
ENDROOT
BRANCH   2   3
HETATM    3  O   UNL     1      -6.939   9.806  67.132  1.00  0.00    -0.083 OA 
BRANCH   3   4
HETATM    4  C   UNL     1      -6.643  10.899  67.872  1.00  0.00    -0.063 C  
HETATM    5  O   UNL     1      -5.621  11.077  68.513  1.00  0.00    -0.044 OA 
BRANCH   4   6
HETATM    6  C   UNL     1      -7.681  11.937  67.606  1.00  0.00    -0.141 C  
HETATM    7  C   UNL     1      -7.416  13.265  67.706  1.00  0.00    -0.154 C  
HETATM    8  C   UNL     1     -10.133  12.572  67.142  1.00  0.00    -0.219 C  
HETATM    9  N   UNL     1      -8.431  14.183  67.501  1.00  0.00    -0.175 NA 
HETATM   10  C   UNL     1      -9.760  13.866  67.301  1.00  0.00    -0.245 C  
HETATM   11  C   UNL     1      -9.084  11.442  67.215  1.00  0.00    -0.162 C  
HETATM   12  C   UNL     1     -10.702  15.045  67.291  1.00  0.00    -0.298 C  
BRANCH   7  13
HETATM   13  C   UNL     1      -6.039  13.872  67.964  1.00  0.00    -0.141 C  
BRANCH  13  14
HETATM   14  O   UNL     1      -5.970  15.245  67.569  1.00  0.00    -0.276 OA 
BRANCH  14  15
HETATM   15  C   UNL     1      -5.402  16.078  68.585  1.00  0.00    -0.101 C  
BRANCH  15  16
HETATM   16  C   UNL     1      -6.488  16.980  69.176  1.00  0.00    -0.221 C  
HETATM   17  N   UNL     1      -5.911  18.155  69.834  1.00  0.00    -0.246 NA 
HETATM   18  H2  UNL     1      -5.299  18.673  69.203  1.00  0.00     0.000 HD 
HETATM   19  H1  UNL     1      -6.634  18.756  70.228  1.00  0.00     0.000 HD 
ENDBRANCH  15  16
ENDBRANCH  14  15
ENDBRANCH  13  14
ENDBRANCH   7  13
BRANCH   8  20
HETATM   20  C   UNL     1     -11.573  12.244  66.956  1.00  0.00    -0.349 C  
HETATM   21  O   UNL     1     -12.410  12.260  67.849  1.00  0.00    -0.283 OA 
BRANCH  20  22
HETATM   22  O   UNL     1     -11.846  11.936  65.662  1.00  0.00    -0.398 OA 
HETATM   23  C   UNL     1     -11.979  13.088  64.823  1.00  0.00    -0.395 C  
ENDBRANCH  20  22
ENDBRANCH   8  20
BRANCH  11  24
HETATM   24  C   UNL     1      -9.554  10.240  68.058  1.00  0.00    -0.159 A  
HETATM   25  C   UNL     1      -9.634  10.417  69.459  1.00  0.00    -0.182 A  
HETATM   26  C   UNL     1     -10.014   9.371  70.302  1.00  0.00    -0.284 A  
HETATM   27  C   UNL     1     -10.328   8.130  69.763  1.00  0.00    -0.216 A  
HETATM   28  C   UNL     1     -10.279   7.940  68.382  1.00  0.00    -0.232 A  
HETATM   29  C   UNL     1      -9.902   8.987  67.532  1.00  0.00    -0.179 A  
HETATM   30 CL   UNL     1      -9.901   8.661  65.837  1.00  0.00    -0.190 Cl 
ENDBRANCH  11  24
ENDBRANCH   4   6
ENDBRANCH   3   4
ENDBRANCH   2   3
TORSDOF 10
ENDMDL
MODEL      175
REMARK 921   NORMALIZED FREE ENERGY PREDICTED BY IDOCK:   -2.62 KCAL/MOL
REMARK 922        TOTAL FREE ENERGY PREDICTED BY IDOCK:   -5.89 KCAL/MOL
REMARK 923 INTER-LIGAND FREE ENERGY PREDICTED BY IDOCK:   -5.85 KCAL/MOL
REMARK 924 INTRA-LIGAND FREE ENERGY PREDICTED BY IDOCK:   -0.04 KCAL/MOL
REMARK 927      BINDING AFFINITY PREDICTED BY RF-SCORE:    0.00 PKD
ROOT
HETATM    1  C   UNL     1      -5.340  17.230  66.446  1.00  0.00    -0.190 C  
HETATM    2  C   UNL     1      -5.718  17.264  67.913  1.00  0.00    -0.117 C  
ENDROOT
BRANCH   2   3
HETATM    3  O   UNL     1      -6.887  16.459  68.022  1.00  0.00    -0.128 OA 
BRANCH   3   4
HETATM    4  C   UNL     1      -6.965  15.533  69.006  1.00  0.00    -0.141 C  
HETATM    5  O   UNL     1      -6.571  15.669  70.152  1.00  0.00    -0.104 OA 
BRANCH   4   6
HETATM    6  C   UNL     1      -7.801  14.399  68.514  1.00  0.00    -0.138 C  
HETATM    7  C   UNL     1      -7.254  13.235  68.080  1.00  0.00    -0.121 C  
HETATM    8  C   UNL     1     -10.094  13.459  67.814  1.00  0.00    -0.232 C  
HETATM    9  N   UNL     1      -8.075  12.237  67.583  1.00  0.00    -0.153 NA 
HETATM   10  C   UNL     1      -9.436  12.356  67.379  1.00  0.00    -0.186 C  
HETATM   11  C   UNL     1      -9.325  14.604  68.509  1.00  0.00    -0.201 C  
HETATM   12  C   UNL     1     -10.075  11.198  66.651  1.00  0.00    -0.256 C  
BRANCH   7  13
HETATM   13  C   UNL     1      -5.772  12.875  68.153  1.00  0.00    -0.088 C  
BRANCH  13  14
HETATM   14  O   UNL     1      -5.345  12.609  69.491  1.00  0.00    -0.074 OA 
BRANCH  14  15
HETATM   15  C   UNL     1      -6.113  11.574  70.115  1.00  0.00    -0.156 C  
BRANCH  15  16
HETATM   16  C   UNL     1      -5.243  10.829  71.130  1.00  0.00    -0.096 C  
HETATM   17  N   UNL     1      -5.992   9.766  71.803  1.00  0.00    -0.287 NA 
HETATM   18  H2  UNL     1      -6.414   9.124  71.131  1.00  0.00     0.000 HD 
HETATM   19  H1  UNL     1      -5.412   9.269  72.480  1.00  0.00     0.000 HD 
ENDBRANCH  15  16
ENDBRANCH  14  15
ENDBRANCH  13  14
ENDBRANCH   7  13
BRANCH   8  20
HETATM   20  C   UNL     1     -11.556  13.585  67.562  1.00  0.00    -0.350 C  
HETATM   21  O   UNL     1     -12.366  14.008  68.374  1.00  0.00    -0.254 OA 
BRANCH  20  22
HETATM   22  O   UNL     1     -11.876  13.181  66.306  1.00  0.00    -0.363 OA 
HETATM   23  C   UNL     1     -12.873  13.999  65.687  1.00  0.00    -0.406 C  
ENDBRANCH  20  22
ENDBRANCH   8  20
BRANCH  11  24
HETATM   24  C   UNL     1      -9.744  15.999  68.007  1.00  0.00    -0.217 A  
HETATM   25  C   UNL     1     -10.104  16.961  68.980  1.00  0.00    -0.292 A  
HETATM   26  C   UNL     1     -10.532  18.239  68.613  1.00  0.00    -0.185 A  
HETATM   27  C   UNL     1     -10.602  18.584  67.270  1.00  0.00    -0.453 A  
HETATM   28  C   UNL     1     -10.228  17.659  66.295  1.00  0.00    -0.362 A  
HETATM   29  C   UNL     1      -9.795  16.378  66.657  1.00  0.00    -0.261 A  
HETATM   30 CL   UNL     1      -9.327  15.316  65.379  1.00  0.00    -0.037 Cl 
ENDBRANCH  11  24
ENDBRANCH   4   6
ENDBRANCH   3   4
ENDBRANCH   2   3
TORSDOF 10
ENDMDL
MODEL      176
REMARK 921   NORMALIZED FREE ENERGY PREDICTED BY IDOCK:   -2.60 KCAL/MOL
REMARK 922        TOTAL FREE ENERGY PREDICTED BY IDOCK:   -5.86 KCAL/MOL
REMARK 923 INTER-LIGAND FREE ENERGY PREDICTED BY IDOCK:   -4.46 KCAL/MOL
REMARK 924 INTRA-LIGAND FREE ENERGY PREDICTED BY IDOCK:   -1.40 KCAL/MOL
REMARK 927      BINDING AFFINITY PREDICTED BY RF-SCORE:    0.00 PKD
ROOT
HETATM    1  C   UNL     1      -6.668  10.869  68.651  1.00  0.00    -0.059 C  
HETATM    2  C   UNL     1      -8.038  10.490  69.177  1.00  0.00    -0.152 C  
ENDROOT
BRANCH   2   3
HETATM    3  O   UNL     1      -8.273   9.168  68.705  1.00  0.00    -0.111 OA 
BRANCH   3   4
HETATM    4  C   UNL     1      -9.437   8.885  68.076  1.00  0.00    -0.143 C  
HETATM    5  O   UNL     1     -10.187   9.695  67.557  1.00  0.00    -0.191 OA 
BRANCH   4   6
HETATM    6  C   UNL     1      -9.544   7.404  67.938  1.00  0.00    -0.157 C  
HETATM    7  C   UNL     1      -9.906   6.606  68.975  1.00  0.00    -0.144 C  
HETATM    8  C   UNL     1      -9.174   5.260  66.559  1.00  0.00    -0.139 C  
HETATM    9  N   UNL     1      -9.936   5.233  68.805  1.00  0.00    -0.165 NA 
HETATM   10  C   UNL     1      -9.516   4.564  67.671  1.00  0.00    -0.160 C  
HETATM   11  C   UNL     1      -9.218   6.803  66.560  1.00  0.00    -0.190 C  
HETATM   12  C   UNL     1      -9.469   3.061  67.799  1.00  0.00    -0.198 C  
BRANCH   7  13
HETATM   13  C   UNL     1     -10.368   7.096  70.345  1.00  0.00    -0.203 C  
BRANCH  13  14
HETATM   14  O   UNL     1     -11.117   6.104  71.050  1.00  0.00    -0.278 OA 
BRANCH  14  15
HETATM   15  C   UNL     1     -12.001   6.674  72.022  1.00  0.00    -0.319 C  
BRANCH  15  16
HETATM   16  C   UNL     1     -11.322   7.868  72.697  1.00  0.00    -0.408 C  
HETATM   17  N   UNL     1     -10.498   7.448  73.831  1.00  0.00    -0.417 NA 
HETATM   18  H2  UNL     1      -9.817   6.739  73.556  1.00  0.00     0.000 HD 
HETATM   19  H1  UNL     1     -10.045   8.244  74.281  1.00  0.00     0.000 HD 
ENDBRANCH  15  16
ENDBRANCH  14  15
ENDBRANCH  13  14
ENDBRANCH   7  13
BRANCH   8  20
HETATM   20  C   UNL     1      -8.696   4.526  65.355  1.00  0.00    -0.129 C  
HETATM   21  O   UNL     1      -7.741   3.761  65.343  1.00  0.00    -0.081 OA 
BRANCH  20  22
HETATM   22  O   UNL     1      -9.464   4.803  64.271  1.00  0.00    -0.051 OA 
HETATM   23  C   UNL     1     -10.533   3.871  64.083  1.00  0.00    -0.233 C  
ENDBRANCH  20  22
ENDBRANCH   8  20
BRANCH  11  24
HETATM   24  C   UNL     1      -7.977   7.440  65.904  1.00  0.00    -0.118 A  
HETATM   25  C   UNL     1      -8.187   8.269  64.777  1.00  0.00    -0.147 A  
HETATM   26  C   UNL     1      -7.117   8.857  64.099  1.00  0.00    -0.090 A  
HETATM   27  C   UNL     1      -5.817   8.633  64.535  1.00  0.00    -0.064 A  
HETATM   28  C   UNL     1      -5.589   7.839  65.659  1.00  0.00    -0.033 A  
HETATM   29  C   UNL     1      -6.658   7.251  66.345  1.00  0.00    -0.053 A  
HETATM   30 CL   UNL     1      -6.274   6.310  67.741  1.00  0.00    -0.030 Cl 
ENDBRANCH  11  24
ENDBRANCH   4   6
ENDBRANCH   3   4
ENDBRANCH   2   3
TORSDOF 10
ENDMDL
MODEL      177
REMARK 921   NORMALIZED FREE ENERGY PREDICTED BY IDOCK:   -2.52 KCAL/MOL
REMARK 922        TOTAL FREE ENERGY PREDICTED BY IDOCK:   -5.73 KCAL/MOL
REMARK 923 INTER-LIGAND FREE ENERGY PREDICTED BY IDOCK:   -4.31 KCAL/MOL
REMARK 924 INTRA-LIGAND FREE ENERGY PREDICTED BY IDOCK:   -1.42 KCAL/MOL
REMARK 927      BINDING AFFINITY PREDICTED BY RF-SCORE:    0.00 PKD
ROOT
HETATM    1  C   UNL     1      -9.240  12.470  67.666  1.00  0.00    -0.190 C  
HETATM    2  C   UNL     1      -9.106  13.399  66.477  1.00  0.00    -0.113 C  
ENDROOT
BRANCH   2   3
HETATM    3  O   UNL     1      -8.513  14.587  66.988  1.00  0.00    -0.214 OA 
BRANCH   3   4
HETATM    4  C   UNL     1      -8.865  15.784  66.463  1.00  0.00    -0.310 C  
HETATM    5  O   UNL     1      -9.201  15.989  65.308  1.00  0.00    -0.179 OA 
BRANCH   4   6
HETATM    6  C   UNL     1      -8.978  16.767  67.578  1.00  0.00    -0.208 C  
HETATM    7  C   UNL     1     -10.115  16.904  68.308  1.00  0.00    -0.302 C  
HETATM    8  C   UNL     1      -8.013  18.749  68.910  1.00  0.00    -0.281 C  
HETATM    9  N   UNL     1     -10.182  17.871  69.296  1.00  0.00    -0.217 NA 
HETATM   10  C   UNL     1      -9.207  18.816  69.550  1.00  0.00     0.419 C  
HETATM   11  C   UNL     1      -7.745  17.639  67.871  1.00  0.00    -0.216 C  
HETATM   12  C   UNL     1      -9.595  19.878  70.550  1.00  0.00     1.177 C  
BRANCH   7  13
HETATM   13  C   UNL     1     -11.351  16.015  68.190  1.00  0.00    -0.289 C  
BRANCH  13  14
HETATM   14  O   UNL     1     -11.319  14.919  69.108  1.00  0.00    -0.260 OA 
BRANCH  14  15
HETATM   15  C   UNL     1     -12.312  15.036  70.133  1.00  0.00    -0.333 C  
BRANCH  15  16
HETATM   16  C   UNL     1     -12.353  13.747  70.958  1.00  0.00    -0.372 C  
HETATM   17  N   UNL     1     -11.772  12.620  70.224  1.00  0.00    -0.552 NA 
HETATM   18  H2  UNL     1     -10.825  12.830  69.906  1.00  0.00     0.000 HD 
HETATM   19  H1  UNL     1     -11.799  11.761  70.773  1.00  0.00     0.000 HD 
ENDBRANCH  15  16
ENDBRANCH  14  15
ENDBRANCH  13  14
ENDBRANCH   7  13
BRANCH   8  20
HETATM   20  C   UNL     1      -6.984  19.792  69.174  1.00  0.00    -0.329 C  
HETATM   21  O   UNL     1      -6.928  20.872  68.603  1.00  0.00     0.029 OA 
BRANCH  20  22
HETATM   22  O   UNL     1      -6.117  19.396  70.141  1.00  0.00    -0.263 OA 
HETATM   23  C   UNL     1      -5.903  20.390  71.148  1.00  0.00    -0.217 C  
ENDBRANCH  20  22
ENDBRANCH   8  20
BRANCH  11  24
HETATM   24  C   UNL     1      -7.063  18.165  66.593  1.00  0.00    -0.243 A  
HETATM   25  C   UNL     1      -5.852  17.550  66.200  1.00  0.00    -0.225 A  
HETATM   26  C   UNL     1      -5.147  17.987  65.076  1.00  0.00    -0.063 A  
HETATM   27  C   UNL     1      -5.640  19.043  64.320  1.00  0.00    -0.311 A  
HETATM   28  C   UNL     1      -6.845  19.648  64.676  1.00  0.00     0.282 A  
HETATM   29  C   UNL     1      -7.558  19.211  65.799  1.00  0.00    -0.129 A  
HETATM   30 CL   UNL     1      -9.052  20.005  66.139  1.00  0.00    -0.402 Cl 
ENDBRANCH  11  24
ENDBRANCH   4   6
ENDBRANCH   3   4
ENDBRANCH   2   3
TORSDOF 10
ENDMDL
MODEL      178
REMARK 921   NORMALIZED FREE ENERGY PREDICTED BY IDOCK:   -2.47 KCAL/MOL
REMARK 922        TOTAL FREE ENERGY PREDICTED BY IDOCK:   -5.65 KCAL/MOL
REMARK 923 INTER-LIGAND FREE ENERGY PREDICTED BY IDOCK:   -5.96 KCAL/MOL
REMARK 924 INTRA-LIGAND FREE ENERGY PREDICTED BY IDOCK:    0.31 KCAL/MOL
REMARK 927      BINDING AFFINITY PREDICTED BY RF-SCORE:    0.00 PKD
ROOT
HETATM    1  C   UNL     1     -10.671  17.767  70.462  1.00  0.00     1.611 C  
HETATM    2  C   UNL     1     -10.212  18.004  69.038  1.00  0.00    -0.253 C  
ENDROOT
BRANCH   2   3
HETATM    3  O   UNL     1      -8.949  17.357  68.933  1.00  0.00    -0.250 OA 
BRANCH   3   4
HETATM    4  C   UNL     1      -8.900  16.049  68.590  1.00  0.00    -0.210 C  
HETATM    5  O   UNL     1      -8.478  15.140  69.286  1.00  0.00    -0.211 OA 
BRANCH   4   6
HETATM    6  C   UNL     1      -9.641  15.874  67.307  1.00  0.00    -0.220 C  
HETATM    7  C   UNL     1      -9.576  16.789  66.306  1.00  0.00    -0.289 C  
HETATM    8  C   UNL     1     -11.372  14.601  65.887  1.00  0.00    -0.338 C  
HETATM    9  N   UNL     1     -10.328  16.602  65.159  1.00  0.00    -0.631 NA 
HETATM   10  C   UNL     1     -11.253  15.594  64.971  1.00  0.00    -0.329 C  
HETATM   11  C   UNL     1     -10.500  14.607  67.161  1.00  0.00    -0.268 C  
HETATM   12  C   UNL     1     -12.080  15.714  63.714  1.00  0.00     0.491 C  
BRANCH   7  13
HETATM   13  C   UNL     1      -8.667  18.015  66.289  1.00  0.00    -0.168 C  
BRANCH  13  14
HETATM   14  O   UNL     1      -7.494  17.808  65.499  1.00  0.00    -0.491 OA 
BRANCH  14  15
HETATM   15  C   UNL     1      -6.370  18.552  65.983  1.00  0.00    -0.221 C  
BRANCH  15  16
HETATM   16  C   UNL     1      -6.187  19.815  65.139  1.00  0.00    -0.258 C  
HETATM   17  N   UNL     1      -6.653  21.008  65.849  1.00  0.00    -0.478 NA 
HETATM   18  H2  UNL     1      -6.203  21.100  66.760  1.00  0.00     0.000 HD 
HETATM   19  H1  UNL     1      -6.531  21.850  65.287  1.00  0.00     0.000 HD 
ENDBRANCH  15  16
ENDBRANCH  14  15
ENDBRANCH  13  14
ENDBRANCH   7  13
BRANCH   8  20
HETATM   20  C   UNL     1     -12.393  13.538  65.684  1.00  0.00    -0.476 C  
HETATM   21  O   UNL     1     -13.602  13.722  65.714  1.00  0.00    -0.249 OA 
BRANCH  20  22
HETATM   22  O   UNL     1     -11.812  12.334  65.448  1.00  0.00    -0.387 OA 
HETATM   23  C   UNL     1     -11.628  12.059  64.056  1.00  0.00    -0.411 C  
ENDBRANCH  20  22
ENDBRANCH   8  20
BRANCH  11  24
HETATM   24  C   UNL     1     -11.298  14.270  68.436  1.00  0.00    -0.309 A  
HETATM   25  C   UNL     1     -12.154  15.270  68.953  1.00  0.00    -0.223 A  
HETATM   26  C   UNL     1     -12.886  15.065  70.125  1.00  0.00    -0.196 A  
HETATM   27  C   UNL     1     -12.783  13.856  70.800  1.00  0.00    -0.383 A  
HETATM   28  C   UNL     1     -11.964  12.846  70.294  1.00  0.00    -0.359 A  
HETATM   29  C   UNL     1     -11.231  13.045  69.118  1.00  0.00    -0.241 A  
HETATM   30 CL   UNL     1     -10.268  11.726  68.559  1.00  0.00    -0.209 Cl 
ENDBRANCH  11  24
ENDBRANCH   4   6
ENDBRANCH   3   4
ENDBRANCH   2   3
TORSDOF 10
ENDMDL
MODEL      179
REMARK 921   NORMALIZED FREE ENERGY PREDICTED BY IDOCK:   -2.41 KCAL/MOL
REMARK 922        TOTAL FREE ENERGY PREDICTED BY IDOCK:   -5.55 KCAL/MOL
REMARK 923 INTER-LIGAND FREE ENERGY PREDICTED BY IDOCK:   -4.26 KCAL/MOL
REMARK 924 INTRA-LIGAND FREE ENERGY PREDICTED BY IDOCK:   -1.29 KCAL/MOL
REMARK 927      BINDING AFFINITY PREDICTED BY RF-SCORE:    0.00 PKD
ROOT
HETATM    1  C   UNL     1      -8.240   4.893  63.554  1.00  0.00    -0.111 C  
HETATM    2  C   UNL     1      -8.339   4.284  64.938  1.00  0.00    -0.108 C  
ENDROOT
BRANCH   2   3
HETATM    3  O   UNL     1      -8.929   5.289  65.754  1.00  0.00    -0.147 OA 
BRANCH   3   4
HETATM    4  C   UNL     1      -8.137   6.051  66.544  1.00  0.00    -0.109 C  
HETATM    5  O   UNL     1      -6.927   6.167  66.449  1.00  0.00    -0.063 OA 
BRANCH   4   6
HETATM    6  C   UNL     1      -9.014   6.887  67.414  1.00  0.00    -0.116 C  
HETATM    7  C   UNL     1      -9.504   8.086  67.006  1.00  0.00    -0.174 C  
HETATM    8  C   UNL     1     -10.095   7.348  69.706  1.00  0.00    -0.193 C  
HETATM    9  N   UNL     1     -10.268   8.845  67.875  1.00  0.00    -0.210 NA 
HETATM   10  C   UNL     1     -10.501   8.540  69.202  1.00  0.00    -0.205 C  
HETATM   11  C   UNL     1      -9.341   6.339  68.814  1.00  0.00    -0.124 C  
HETATM   12  C   UNL     1     -11.205   9.618  69.990  1.00  0.00    -0.271 C  
BRANCH   7  13
HETATM   13  C   UNL     1      -9.349   8.670  65.604  1.00  0.00    -0.103 C  
BRANCH  13  14
HETATM   14  O   UNL     1     -10.246   9.759  65.369  1.00  0.00    -0.246 OA 
BRANCH  14  15
HETATM   15  C   UNL     1      -9.805  10.610  64.306  1.00  0.00    -0.330 C  
BRANCH  15  16
HETATM   16  C   UNL     1      -8.410  10.179  63.846  1.00  0.00    -0.172 C  
HETATM   17  N   UNL     1      -8.393   9.852  62.418  1.00  0.00    -0.130 NA 
HETATM   18  H2  UNL     1      -8.749  10.624  61.854  1.00  0.00     0.000 HD 
HETATM   19  H1  UNL     1      -7.463   9.565  62.111  1.00  0.00     0.000 HD 
ENDBRANCH  15  16
ENDBRANCH  14  15
ENDBRANCH  13  14
ENDBRANCH   7  13
BRANCH   8  20
HETATM   20  C   UNL     1     -10.327   7.047  71.145  1.00  0.00    -0.206 C  
HETATM   21  O   UNL     1      -9.760   7.609  72.073  1.00  0.00    -0.159 OA 
BRANCH  20  22
HETATM   22  O   UNL     1     -11.261   6.074  71.301  1.00  0.00    -0.287 OA 
HETATM   23  C   UNL     1     -11.408   5.645  72.658  1.00  0.00    -0.305 C  
ENDBRANCH  20  22
ENDBRANCH   8  20
BRANCH  11  24
HETATM   24  C   UNL     1      -8.120   5.712  69.515  1.00  0.00    -0.103 A  
HETATM   25  C   UNL     1      -7.124   6.592  70.000  1.00  0.00    -0.074 A  
HETATM   26  C   UNL     1      -5.967   6.109  70.615  1.00  0.00    -0.026 A  
HETATM   27  C   UNL     1      -5.784   4.740  70.763  1.00  0.00    -0.016 A  
HETATM   28  C   UNL     1      -6.765   3.856  70.314  1.00  0.00    -0.033 A  
HETATM   29  C   UNL     1      -7.929   4.335  69.701  1.00  0.00    -0.056 A  
HETATM   30 CL   UNL     1      -9.096   3.162  69.206  1.00  0.00    -0.184 Cl 
ENDBRANCH  11  24
ENDBRANCH   4   6
ENDBRANCH   3   4
ENDBRANCH   2   3
TORSDOF 10
ENDMDL
MODEL      180
REMARK 921   NORMALIZED FREE ENERGY PREDICTED BY IDOCK:   -2.40 KCAL/MOL
REMARK 922        TOTAL FREE ENERGY PREDICTED BY IDOCK:   -5.53 KCAL/MOL
REMARK 923 INTER-LIGAND FREE ENERGY PREDICTED BY IDOCK:   -4.70 KCAL/MOL
REMARK 924 INTRA-LIGAND FREE ENERGY PREDICTED BY IDOCK:   -0.83 KCAL/MOL
REMARK 927      BINDING AFFINITY PREDICTED BY RF-SCORE:    0.00 PKD
ROOT
HETATM    1  C   UNL     1      -6.334  11.046  66.082  1.00  0.00    -0.096 C  
HETATM    2  C   UNL     1      -7.440  10.064  65.754  1.00  0.00    -0.121 C  
ENDROOT
BRANCH   2   3
HETATM    3  O   UNL     1      -7.453   9.132  66.830  1.00  0.00    -0.086 OA 
BRANCH   3   4
HETATM    4  C   UNL     1      -7.331   9.583  68.099  1.00  0.00    -0.078 C  
HETATM    5  O   UNL     1      -6.315  10.027  68.608  1.00  0.00    -0.048 OA 
BRANCH   4   6
HETATM    6  C   UNL     1      -8.693   9.643  68.706  1.00  0.00    -0.126 C  
HETATM    7  C   UNL     1      -9.379  10.808  68.824  1.00  0.00    -0.182 C  
HETATM    8  C   UNL     1     -10.618   8.503  69.981  1.00  0.00    -0.230 C  
HETATM    9  N   UNL     1     -10.616  10.813  69.445  1.00  0.00    -0.227 NA 
HETATM   10  C   UNL     1     -11.195   9.727  70.073  1.00  0.00    -0.251 C  
HETATM   11  C   UNL     1      -9.296   8.319  69.206  1.00  0.00    -0.155 C  
HETATM   12  C   UNL     1     -12.459  10.033  70.838  1.00  0.00    -0.431 C  
BRANCH   7  13
HETATM   13  C   UNL     1      -8.936  12.154  68.257  1.00  0.00    -0.186 C  
BRANCH  13  14
HETATM   14  O   UNL     1      -9.890  13.189  68.511  1.00  0.00    -0.218 OA 
BRANCH  14  15
HETATM   15  C   UNL     1     -10.271  13.886  67.321  1.00  0.00    -0.249 C  
BRANCH  15  16
HETATM   16  C   UNL     1      -9.084  13.942  66.355  1.00  0.00    -0.079 C  
HETATM   17  N   UNL     1      -9.439  14.618  65.105  1.00  0.00    -0.289 NA 
HETATM   18  H2  UNL     1      -9.822  15.548  65.280  1.00  0.00     0.000 HD 
HETATM   19  H1  UNL     1      -8.648  14.655  64.462  1.00  0.00     0.000 HD 
ENDBRANCH  15  16
ENDBRANCH  14  15
ENDBRANCH  13  14
ENDBRANCH   7  13
BRANCH   8  20
HETATM   20  C   UNL     1     -11.238   7.349  70.687  1.00  0.00    -0.270 C  
HETATM   21  O   UNL     1     -11.896   6.473  70.141  1.00  0.00    -0.416 OA 
BRANCH  20  22
HETATM   22  O   UNL     1     -10.970   7.383  72.017  1.00  0.00    -0.226 OA 
HETATM   23  C   UNL     1     -11.468   6.241  72.723  1.00  0.00    -0.164 C  
ENDBRANCH  20  22
ENDBRANCH   8  20
BRANCH  11  24
HETATM   24  C   UNL     1      -8.277   7.439  69.956  1.00  0.00    -0.131 A  
HETATM   25  C   UNL     1      -7.697   7.970  71.131  1.00  0.00    -0.087 A  
HETATM   26  C   UNL     1      -6.737   7.257  71.853  1.00  0.00    -0.055 A  
HETATM   27  C   UNL     1      -6.343   5.998  71.419  1.00  0.00    -0.048 A  
HETATM   28  C   UNL     1      -6.920   5.444  70.277  1.00  0.00    -0.060 A  
HETATM   29  C   UNL     1      -7.885   6.154  69.552  1.00  0.00    -0.100 A  
HETATM   30 CL   UNL     1      -8.561   5.371  68.168  1.00  0.00    -0.097 Cl 
ENDBRANCH  11  24
ENDBRANCH   4   6
ENDBRANCH   3   4
ENDBRANCH   2   3
TORSDOF 10
ENDMDL
MODEL      181
REMARK 921   NORMALIZED FREE ENERGY PREDICTED BY IDOCK:   -2.32 KCAL/MOL
REMARK 922        TOTAL FREE ENERGY PREDICTED BY IDOCK:   -5.42 KCAL/MOL
REMARK 923 INTER-LIGAND FREE ENERGY PREDICTED BY IDOCK:   -4.01 KCAL/MOL
REMARK 924 INTRA-LIGAND FREE ENERGY PREDICTED BY IDOCK:   -1.41 KCAL/MOL
REMARK 927      BINDING AFFINITY PREDICTED BY RF-SCORE:    0.00 PKD
ROOT
HETATM    1  C   UNL     1      -6.579  10.924  69.297  1.00  0.00    -0.079 C  
HETATM    2  C   UNL     1      -7.664  11.450  68.379  1.00  0.00    -0.127 C  
ENDROOT
BRANCH   2   3
HETATM    3  O   UNL     1      -7.766  10.497  67.327  1.00  0.00    -0.104 OA 
BRANCH   3   4
HETATM    4  C   UNL     1      -8.967   9.939  67.051  1.00  0.00    -0.138 C  
HETATM    5  O   UNL     1      -9.979  10.538  66.727  1.00  0.00    -0.189 OA 
BRANCH   4   6
HETATM    6  C   UNL     1      -8.793   8.458  67.003  1.00  0.00    -0.146 C  
HETATM    7  C   UNL     1      -8.716   7.703  68.129  1.00  0.00    -0.122 C  
HETATM    8  C   UNL     1      -8.330   6.309  65.661  1.00  0.00    -0.147 C  
HETATM    9  N   UNL     1      -8.499   6.340  68.026  1.00  0.00    -0.117 NA 
HETATM   10  C   UNL     1      -8.238   5.664  66.850  1.00  0.00    -0.105 C  
HETATM   11  C   UNL     1      -8.694   7.809  65.612  1.00  0.00    -0.132 C  
HETATM   12  C   UNL     1      -7.849   4.216  67.021  1.00  0.00    -0.096 C  
BRANCH   7  13
HETATM   13  C   UNL     1      -8.923   8.218  69.551  1.00  0.00    -0.150 C  
BRANCH  13  14
HETATM   14  O   UNL     1     -10.178   7.805  70.099  1.00  0.00    -0.198 OA 
BRANCH  14  15
HETATM   15  C   UNL     1     -10.375   8.283  71.435  1.00  0.00    -0.213 C  
BRANCH  15  16
HETATM   16  C   UNL     1     -11.219   9.560  71.404  1.00  0.00    -0.382 C  
HETATM   17  N   UNL     1     -12.124   9.579  70.253  1.00  0.00    -0.464 NA 
HETATM   18  H2  UNL     1     -12.710   8.743  70.226  1.00  0.00     0.000 HD 
HETATM   19  H1  UNL     1     -12.686  10.429  70.233  1.00  0.00     0.000 HD 
ENDBRANCH  15  16
ENDBRANCH  14  15
ENDBRANCH  13  14
ENDBRANCH   7  13
BRANCH   8  20
HETATM   20  C   UNL     1      -8.018   5.574  64.405  1.00  0.00    -0.120 C  
HETATM   21  O   UNL     1      -6.895   5.446  63.937  1.00  0.00    -0.044 OA 
BRANCH  20  22
HETATM   22  O   UNL     1      -9.139   5.050  63.848  1.00  0.00    -0.050 OA 
HETATM   23  C   UNL     1      -9.015   4.815  62.442  1.00  0.00    -0.120 C  
ENDBRANCH  20  22
ENDBRANCH   8  20
BRANCH  11  24
HETATM   24  C   UNL     1      -7.811   8.610  64.636  1.00  0.00    -0.129 A  
HETATM   25  C   UNL     1      -8.455   9.261  63.557  1.00  0.00    -0.199 A  
HETATM   26  C   UNL     1      -7.729   9.977  62.604  1.00  0.00    -0.138 A  
HETATM   27  C   UNL     1      -6.347  10.063  62.711  1.00  0.00    -0.124 A  
HETATM   28  C   UNL     1      -5.694   9.450  63.780  1.00  0.00    -0.080 A  
HETATM   29  C   UNL     1      -6.417   8.734  64.741  1.00  0.00    -0.066 A  
HETATM   30 CL   UNL     1      -5.521   8.035  66.041  1.00  0.00    -0.028 Cl 
ENDBRANCH  11  24
ENDBRANCH   4   6
ENDBRANCH   3   4
ENDBRANCH   2   3
TORSDOF 10
ENDMDL
MODEL      182
REMARK 921   NORMALIZED FREE ENERGY PREDICTED BY IDOCK:   -2.27 KCAL/MOL
REMARK 922        TOTAL FREE ENERGY PREDICTED BY IDOCK:   -5.34 KCAL/MOL
REMARK 923 INTER-LIGAND FREE ENERGY PREDICTED BY IDOCK:   -4.49 KCAL/MOL
REMARK 924 INTRA-LIGAND FREE ENERGY PREDICTED BY IDOCK:   -0.85 KCAL/MOL
REMARK 927      BINDING AFFINITY PREDICTED BY RF-SCORE:    0.00 PKD
ROOT
HETATM    1  C   UNL     1     -10.811   9.080  69.629  1.00  0.00    -0.196 C  
HETATM    2  C   UNL     1      -9.730  10.101  69.920  1.00  0.00    -0.150 C  
ENDROOT
BRANCH   2   3
HETATM    3  O   UNL     1      -8.655   9.776  69.046  1.00  0.00    -0.130 OA 
BRANCH   3   4
HETATM    4  C   UNL     1      -8.471  10.503  67.920  1.00  0.00    -0.119 C  
HETATM    5  O   UNL     1      -8.986  10.287  66.835  1.00  0.00    -0.136 OA 
BRANCH   4   6
HETATM    6  C   UNL     1      -7.705  11.732  68.278  1.00  0.00    -0.130 C  
HETATM    7  C   UNL     1      -6.638  11.698  69.116  1.00  0.00    -0.101 C  
HETATM    8  C   UNL     1      -7.450  14.294  68.228  1.00  0.00    -0.125 C  
HETATM    9  N   UNL     1      -5.998  12.877  69.457  1.00  0.00    -0.103 NA 
HETATM   10  C   UNL     1      -6.420  14.143  69.098  1.00  0.00    -0.111 C  
HETATM   11  C   UNL     1      -8.179  13.058  67.660  1.00  0.00    -0.171 C  
HETATM   12  C   UNL     1      -5.664  15.276  69.748  1.00  0.00    -0.119 C  
BRANCH   7  13
HETATM   13  C   UNL     1      -6.006  10.432  69.689  1.00  0.00    -0.048 C  
BRANCH  13  14
HETATM   14  O   UNL     1      -5.989  10.434  71.118  1.00  0.00    -0.281 OA 
BRANCH  14  15
HETATM   15  C   UNL     1      -5.932   9.112  71.666  1.00  0.00    -0.072 C  
BRANCH  15  16
HETATM   16  C   UNL     1      -5.383   9.171  73.094  1.00  0.00    -0.095 C  
HETATM   17  N   UNL     1      -5.193  10.552  73.540  1.00  0.00    -0.311 NA 
HETATM   18  H2  UNL     1      -6.052  11.096  73.448  1.00  0.00     0.000 HD 
HETATM   19  H1  UNL     1      -4.828  10.591  74.492  1.00  0.00     0.000 HD 
ENDBRANCH  15  16
ENDBRANCH  14  15
ENDBRANCH  13  14
ENDBRANCH   7  13
BRANCH   8  20
HETATM   20  C   UNL     1      -7.911  15.664  67.873  1.00  0.00    -0.142 C  
HETATM   21  O   UNL     1      -8.511  16.413  68.632  1.00  0.00    -0.206 OA 
BRANCH  20  22
HETATM   22  O   UNL     1      -7.570  15.985  66.600  1.00  0.00    -0.231 OA 
HETATM   23  C   UNL     1      -7.614  17.392  66.340  1.00  0.00    -0.307 C  
ENDBRANCH  20  22
ENDBRANCH   8  20
BRANCH  11  24
HETATM   24  C   UNL     1      -9.713  13.211  67.666  1.00  0.00    -0.213 A  
HETATM   25  C   UNL     1     -10.347  13.381  68.920  1.00  0.00    -0.089 A  
HETATM   26  C   UNL     1     -11.735  13.489  69.022  1.00  0.00    -0.370 A  
HETATM   27  C   UNL     1     -12.518  13.437  67.876  1.00  0.00     0.309 A  
HETATM   28  C   UNL     1     -11.912  13.295  66.628  1.00  0.00    -0.446 A  
HETATM   29  C   UNL     1     -10.521  13.189  66.519  1.00  0.00    -0.279 A  
HETATM   30 CL   UNL     1      -9.865  13.046  64.928  1.00  0.00    -0.119 Cl 
ENDBRANCH  11  24
ENDBRANCH   4   6
ENDBRANCH   3   4
ENDBRANCH   2   3
TORSDOF 10
ENDMDL
MODEL      183
REMARK 921   NORMALIZED FREE ENERGY PREDICTED BY IDOCK:   -2.17 KCAL/MOL
REMARK 922        TOTAL FREE ENERGY PREDICTED BY IDOCK:   -5.17 KCAL/MOL
REMARK 923 INTER-LIGAND FREE ENERGY PREDICTED BY IDOCK:   -3.59 KCAL/MOL
REMARK 924 INTRA-LIGAND FREE ENERGY PREDICTED BY IDOCK:   -1.58 KCAL/MOL
REMARK 927      BINDING AFFINITY PREDICTED BY RF-SCORE:    0.00 PKD
ROOT
HETATM    1  C   UNL     1      -6.275   5.884  73.683  1.00  0.00    -0.063 C  
HETATM    2  C   UNL     1      -5.583   5.299  72.468  1.00  0.00    -0.017 C  
ENDROOT
BRANCH   2   3
HETATM    3  O   UNL     1      -6.055   6.059  71.361  1.00  0.00    -0.036 OA 
BRANCH   3   4
HETATM    4  C   UNL     1      -6.750   5.439  70.379  1.00  0.00    -0.043 C  
HETATM    5  O   UNL     1      -6.313   4.597  69.612  1.00  0.00    -0.026 OA 
BRANCH   4   6
HETATM    6  C   UNL     1      -8.190   5.801  70.526  1.00  0.00    -0.118 C  
HETATM    7  C   UNL     1      -9.168   4.861  70.575  1.00  0.00    -0.142 C  
HETATM    8  C   UNL     1     -10.046   7.584  70.578  1.00  0.00    -0.188 C  
HETATM    9  N   UNL     1     -10.492   5.256  70.657  1.00  0.00    -0.257 NA 
HETATM   10  C   UNL     1     -10.938   6.562  70.586  1.00  0.00    -0.287 C  
HETATM   11  C   UNL     1      -8.530   7.298  70.615  1.00  0.00    -0.140 C  
HETATM   12  C   UNL     1     -12.437   6.721  70.509  1.00  0.00    -0.051 C  
BRANCH   7  13
HETATM   13  C   UNL     1      -8.942   3.353  70.620  1.00  0.00    -0.097 C  
BRANCH  13  14
HETATM   14  O   UNL     1      -9.726   2.717  71.632  1.00  0.00    -0.143 OA 
BRANCH  14  15
HETATM   15  C   UNL     1      -9.347   3.122  72.952  1.00  0.00    -0.092 C  
BRANCH  15  16
HETATM   16  C   UNL     1     -10.593   3.230  73.835  1.00  0.00    -0.195 C  
HETATM   17  N   UNL     1     -11.267   4.518  73.657  1.00  0.00    -0.296 NA 
HETATM   18  H2  UNL     1     -11.488   4.691  72.676  1.00  0.00     0.000 HD 
HETATM   19  H1  UNL     1     -12.097   4.590  74.245  1.00  0.00     0.000 HD 
ENDBRANCH  15  16
ENDBRANCH  14  15
ENDBRANCH  13  14
ENDBRANCH   7  13
BRANCH   8  20
HETATM   20  C   UNL     1     -10.541   8.984  70.471  1.00  0.00    -0.227 C  
HETATM   21  O   UNL     1     -10.548   9.790  71.392  1.00  0.00    -0.233 OA 
BRANCH  20  22
HETATM   22  O   UNL     1     -10.975   9.260  69.215  1.00  0.00    -0.191 OA 
HETATM   23  C   UNL     1     -10.482  10.504  68.708  1.00  0.00    -0.196 C  
ENDBRANCH  20  22
ENDBRANCH   8  20
BRANCH  11  24
HETATM   24  C   UNL     1      -7.732   8.157  69.614  1.00  0.00    -0.101 A  
HETATM   25  C   UNL     1      -6.799   9.079  70.144  1.00  0.00    -0.045 A  
HETATM   26  C   UNL     1      -6.061   9.923  69.312  1.00  0.00    -0.040 A  
HETATM   27  C   UNL     1      -6.234   9.860  67.936  1.00  0.00    -0.051 A  
HETATM   28  C   UNL     1      -7.130   8.941  67.390  1.00  0.00    -0.079 A  
HETATM   29  C   UNL     1      -7.870   8.089  68.219  1.00  0.00    -0.123 A  
HETATM   30 CL   UNL     1      -8.931   6.968  67.447  1.00  0.00    -0.117 Cl 
ENDBRANCH  11  24
ENDBRANCH   4   6
ENDBRANCH   3   4
ENDBRANCH   2   3
TORSDOF 10
ENDMDL
MODEL      184
REMARK 921   NORMALIZED FREE ENERGY PREDICTED BY IDOCK:   -2.16 KCAL/MOL
REMARK 922        TOTAL FREE ENERGY PREDICTED BY IDOCK:   -5.16 KCAL/MOL
REMARK 923 INTER-LIGAND FREE ENERGY PREDICTED BY IDOCK:   -3.94 KCAL/MOL
REMARK 924 INTRA-LIGAND FREE ENERGY PREDICTED BY IDOCK:   -1.21 KCAL/MOL
REMARK 927      BINDING AFFINITY PREDICTED BY RF-SCORE:    0.00 PKD
ROOT
HETATM    1  C   UNL     1      -5.581  15.772  68.916  1.00  0.00    -0.103 C  
HETATM    2  C   UNL     1      -6.916  15.971  69.605  1.00  0.00    -0.136 C  
ENDROOT
BRANCH   2   3
HETATM    3  O   UNL     1      -7.493  17.117  68.991  1.00  0.00    -0.245 OA 
BRANCH   3   4
HETATM    4  C   UNL     1      -8.816  17.122  68.705  1.00  0.00    -0.266 C  
HETATM    5  O   UNL     1      -9.602  18.019  68.961  1.00  0.00    -0.249 OA 
BRANCH   4   6
HETATM    6  C   UNL     1      -9.110  15.944  67.838  1.00  0.00    -0.190 C  
HETATM    7  C   UNL     1      -8.909  15.968  66.496  1.00  0.00    -0.305 C  
HETATM    8  C   UNL     1     -10.112  13.591  67.539  1.00  0.00    -0.234 C  
HETATM    9  N   UNL     1      -9.250  14.864  65.733  1.00  0.00    -0.112 NA 
HETATM   10  C   UNL     1      -9.899  13.740  66.208  1.00  0.00    -0.303 C  
HETATM   11  C   UNL     1      -9.664  14.687  68.529  1.00  0.00    -0.225 C  
HETATM   12  C   UNL     1     -10.330  12.758  65.146  1.00  0.00    -0.314 C  
BRANCH   7  13
HETATM   13  C   UNL     1      -8.252  17.108  65.722  1.00  0.00     0.264 C  
BRANCH  13  14
HETATM   14  O   UNL     1      -6.825  17.016  65.730  1.00  0.00     0.085 OA 
BRANCH  14  15
HETATM   15  C   UNL     1      -6.198  18.277  65.990  1.00  0.00    -0.223 C  
BRANCH  15  16
HETATM   16  C   UNL     1      -7.204  19.408  65.766  1.00  0.00    -0.280 C  
HETATM   17  N   UNL     1      -6.865  20.204  64.584  1.00  0.00    -0.285 NA 
HETATM   18  H2  UNL     1      -6.773  19.617  63.754  1.00  0.00     0.000 HD 
HETATM   19  H1  UNL     1      -7.536  20.957  64.435  1.00  0.00     0.000 HD 
ENDBRANCH  15  16
ENDBRANCH  14  15
ENDBRANCH  13  14
ENDBRANCH   7  13
BRANCH   8  20
HETATM   20  C   UNL     1     -10.837  12.388  68.031  1.00  0.00    -0.221 C  
HETATM   21  O   UNL     1     -12.011  12.139  67.793  1.00  0.00    -0.506 OA 
BRANCH  20  22
HETATM   22  O   UNL     1     -10.025  11.591  68.772  1.00  0.00    -0.205 OA 
HETATM   23  C   UNL     1     -10.110  10.208  68.412  1.00  0.00    -0.164 C  
ENDBRANCH  20  22
ENDBRANCH   8  20
BRANCH  11  24
HETATM   24  C   UNL     1     -10.732  15.007  69.594  1.00  0.00    -0.270 A  
HETATM   25  C   UNL     1     -10.329  14.983  70.950  1.00  0.00     0.464 A  
HETATM   26  C   UNL     1     -11.239  15.224  71.981  1.00  0.00    -0.323 A  
HETATM   27  C   UNL     1     -12.567  15.499  71.680  1.00  0.00    -0.486 A  
HETATM   28  C   UNL     1     -12.980  15.552  70.349  1.00  0.00    -0.252 A  
HETATM   29  C   UNL     1     -12.071  15.315  69.311  1.00  0.00    -0.249 A  
HETATM   30 CL   UNL     1     -12.674  15.431  67.697  1.00  0.00     1.388 Cl 
ENDBRANCH  11  24
ENDBRANCH   4   6
ENDBRANCH   3   4
ENDBRANCH   2   3
TORSDOF 10
ENDMDL
MODEL      185
REMARK 921   NORMALIZED FREE ENERGY PREDICTED BY IDOCK:   -2.15 KCAL/MOL
REMARK 922        TOTAL FREE ENERGY PREDICTED BY IDOCK:   -5.14 KCAL/MOL
REMARK 923 INTER-LIGAND FREE ENERGY PREDICTED BY IDOCK:   -4.78 KCAL/MOL
REMARK 924 INTRA-LIGAND FREE ENERGY PREDICTED BY IDOCK:   -0.36 KCAL/MOL
REMARK 927      BINDING AFFINITY PREDICTED BY RF-SCORE:    0.00 PKD
ROOT
HETATM    1  C   UNL     1     -10.939  11.548  69.654  1.00  0.00    -0.129 C  
HETATM    2  C   UNL     1      -9.663  11.170  68.929  1.00  0.00    -0.150 C  
ENDROOT
BRANCH   2   3
HETATM    3  O   UNL     1      -8.823  12.316  69.014  1.00  0.00     0.193 OA 
BRANCH   3   4
HETATM    4  C   UNL     1      -8.110  12.699  67.930  1.00  0.00    -0.165 C  
HETATM    5  O   UNL     1      -6.916  12.948  67.908  1.00  0.00    -0.092 OA 
BRANCH   4   6
HETATM    6  C   UNL     1      -8.981  12.560  66.727  1.00  0.00    -0.198 C  
HETATM    7  C   UNL     1      -8.790  11.580  65.807  1.00  0.00    -0.058 C  
HETATM    8  C   UNL     1     -10.840  13.482  65.202  1.00  0.00    -0.336 C  
HETATM    9  N   UNL     1      -9.594  11.532  64.681  1.00  0.00    -0.202 NA 
HETATM   10  C   UNL     1     -10.536  12.482  64.337  1.00  0.00    -0.350 C  
HETATM   11  C   UNL     1     -10.113  13.587  66.560  1.00  0.00    -0.282 C  
HETATM   12  C   UNL     1     -11.149  12.305  62.969  1.00  0.00     0.030 C  
BRANCH   7  13
HETATM   13  C   UNL     1      -7.783  10.439  65.930  1.00  0.00    -0.145 C  
BRANCH  13  14
HETATM   14  O   UNL     1      -8.404   9.208  66.307  1.00  0.00    -0.115 OA 
BRANCH  14  15
HETATM   15  C   UNL     1      -7.586   8.432  67.190  1.00  0.00    -0.093 C  
BRANCH  15  16
HETATM   16  C   UNL     1      -6.736   7.453  66.376  1.00  0.00    -0.060 C  
HETATM   17  N   UNL     1      -6.603   6.162  67.056  1.00  0.00    -0.056 NA 
HETATM   18  H2  UNL     1      -7.515   5.765  67.283  1.00  0.00     0.000 HD 
HETATM   19  H1  UNL     1      -6.037   5.510  66.513  1.00  0.00     0.000 HD 
ENDBRANCH  15  16
ENDBRANCH  14  15
ENDBRANCH  13  14
ENDBRANCH   7  13
BRANCH   8  20
HETATM   20  C   UNL     1     -11.837  14.513  64.804  1.00  0.00    -0.441 C  
HETATM   21  O   UNL     1     -11.559  15.578  64.270  1.00  0.00    -0.348 OA 
BRANCH  20  22
HETATM   22  O   UNL     1     -13.101  14.117  65.100  1.00  0.00    -0.757 OA 
HETATM   23  C   UNL     1     -13.155  12.853  65.770  1.00  0.00     0.931 C  
ENDBRANCH  20  22
ENDBRANCH   8  20
BRANCH  11  24
HETATM   24  C   UNL     1      -9.676  15.026  66.896  1.00  0.00    -0.247 A  
HETATM   25  C   UNL     1      -8.538  15.535  66.227  1.00  0.00    -0.208 A  
HETATM   26  C   UNL     1      -8.049  16.815  66.498  1.00  0.00    -0.329 A  
HETATM   27  C   UNL     1      -8.689  17.614  67.436  1.00  0.00    -0.235 A  
HETATM   28  C   UNL     1      -9.828  17.142  68.089  1.00  0.00    -0.281 A  
HETATM   29  C   UNL     1     -10.324  15.861  67.819  1.00  0.00    -0.278 A  
HETATM   30 CL   UNL     1     -11.754  15.379  68.658  1.00  0.00    -0.377 Cl 
ENDBRANCH  11  24
ENDBRANCH   4   6
ENDBRANCH   3   4
ENDBRANCH   2   3
TORSDOF 10
ENDMDL
MODEL      186
REMARK 921   NORMALIZED FREE ENERGY PREDICTED BY IDOCK:   -2.04 KCAL/MOL
REMARK 922        TOTAL FREE ENERGY PREDICTED BY IDOCK:   -4.96 KCAL/MOL
REMARK 923 INTER-LIGAND FREE ENERGY PREDICTED BY IDOCK:   -5.31 KCAL/MOL
REMARK 924 INTRA-LIGAND FREE ENERGY PREDICTED BY IDOCK:    0.35 KCAL/MOL
REMARK 927      BINDING AFFINITY PREDICTED BY RF-SCORE:    0.00 PKD
ROOT
HETATM    1  C   UNL     1     -10.598  10.520  64.983  1.00  0.00    -0.109 C  
HETATM    2  C   UNL     1     -11.061  11.782  65.682  1.00  0.00    -0.285 C  
ENDROOT
BRANCH   2   3
HETATM    3  O   UNL     1      -9.873  12.500  65.996  1.00  0.00    -0.254 OA 
BRANCH   3   4
HETATM    4  C   UNL     1      -9.965  13.692  66.630  1.00  0.00    -0.283 C  
HETATM    5  O   UNL     1     -10.962  14.390  66.703  1.00  0.00    -0.306 OA 
BRANCH   4   6
HETATM    6  C   UNL     1      -8.707  13.908  67.401  1.00  0.00    -0.208 C  
HETATM    7  C   UNL     1      -8.191  12.958  68.222  1.00  0.00    -0.153 C  
HETATM    8  C   UNL     1      -6.827  15.472  68.208  1.00  0.00    -0.120 C  
HETATM    9  N   UNL     1      -7.050  13.233  68.956  1.00  0.00    -0.082 NA 
HETATM   10  C   UNL     1      -6.423  14.462  69.018  1.00  0.00    -0.098 C  
HETATM   11  C   UNL     1      -8.009  15.269  67.237  1.00  0.00    -0.231 C  
HETATM   12  C   UNL     1      -5.310  14.559  70.033  1.00  0.00    -0.097 C  
BRANCH   7  13
HETATM   13  C   UNL     1      -8.724  11.535  68.369  1.00  0.00    -0.160 C  
BRANCH  13  14
HETATM   14  O   UNL     1      -7.738  10.551  68.047  1.00  0.00    -0.091 OA 
BRANCH  14  15
HETATM   15  C   UNL     1      -7.350   9.773  69.185  1.00  0.00    -0.079 C  
BRANCH  15  16
HETATM   16  C   UNL     1      -7.894   8.349  69.045  1.00  0.00    -0.102 C  
HETATM   17  N   UNL     1      -6.885   7.440  68.498  1.00  0.00    -0.070 NA 
HETATM   18  H2  UNL     1      -6.027   7.459  69.051  1.00  0.00     0.000 HD 
HETATM   19  H1  UNL     1      -7.247   6.491  68.405  1.00  0.00     0.000 HD 
ENDBRANCH  15  16
ENDBRANCH  14  15
ENDBRANCH  13  14
ENDBRANCH   7  13
BRANCH   8  20
HETATM   20  C   UNL     1      -6.160  16.799  68.308  1.00  0.00    -0.132 C  
HETATM   21  O   UNL     1      -5.141  17.111  67.706  1.00  0.00    -0.105 OA 
BRANCH  20  22
HETATM   22  O   UNL     1      -6.834  17.629  69.144  1.00  0.00    -0.248 OA 
HETATM   23  C   UNL     1      -5.974  18.393  69.996  1.00  0.00    -0.172 C  
ENDBRANCH  20  22
ENDBRANCH   8  20
BRANCH  11  24
HETATM   24  C   UNL     1      -8.995  16.454  67.236  1.00  0.00    -0.208 A  
HETATM   25  C   UNL     1      -8.928  17.357  66.149  1.00  0.00    -0.174 A  
HETATM   26  C   UNL     1      -9.758  18.479  66.085  1.00  0.00    -0.241 A  
HETATM   27  C   UNL     1     -10.675  18.717  67.100  1.00  0.00    -0.469 A  
HETATM   28  C   UNL     1     -10.776  17.826  68.169  1.00  0.00    -0.293 A  
HETATM   29  C   UNL     1      -9.949  16.698  68.236  1.00  0.00    -0.261 A  
HETATM   30 CL   UNL     1     -10.170  15.641  69.582  1.00  0.00    -0.275 Cl 
ENDBRANCH  11  24
ENDBRANCH   4   6
ENDBRANCH   3   4
ENDBRANCH   2   3
TORSDOF 10
ENDMDL
MODEL      187
REMARK 921   NORMALIZED FREE ENERGY PREDICTED BY IDOCK:   -2.00 KCAL/MOL
REMARK 922        TOTAL FREE ENERGY PREDICTED BY IDOCK:   -4.90 KCAL/MOL
REMARK 923 INTER-LIGAND FREE ENERGY PREDICTED BY IDOCK:   -3.51 KCAL/MOL
REMARK 924 INTRA-LIGAND FREE ENERGY PREDICTED BY IDOCK:   -1.39 KCAL/MOL
REMARK 927      BINDING AFFINITY PREDICTED BY RF-SCORE:    0.00 PKD
ROOT
HETATM    1  C   UNL     1      -7.442   8.021  74.282  1.00  0.00    -0.228 C  
HETATM    2  C   UNL     1      -7.698   8.326  72.820  1.00  0.00    -0.117 C  
ENDROOT
BRANCH   2   3
HETATM    3  O   UNL     1      -9.015   7.853  72.558  1.00  0.00    -0.140 OA 
BRANCH   3   4
HETATM    4  C   UNL     1      -9.197   6.562  72.200  1.00  0.00    -0.139 C  
HETATM    5  O   UNL     1      -9.067   5.590  72.925  1.00  0.00    -0.124 OA 
BRANCH   4   6
HETATM    6  C   UNL     1      -9.789   6.537  70.830  1.00  0.00    -0.201 C  
HETATM    7  C   UNL     1     -11.126   6.425  70.624  1.00  0.00    -0.317 C  
HETATM    8  C   UNL     1      -9.492   6.418  68.275  1.00  0.00    -0.121 C  
HETATM    9  N   UNL     1     -11.615   6.353  69.331  1.00  0.00    -0.315 NA 
HETATM   10  C   UNL     1     -10.839   6.273  68.191  1.00  0.00    -0.320 C  
HETATM   11  C   UNL     1      -8.815   6.637  69.644  1.00  0.00    -0.143 C  
HETATM   12  C   UNL     1     -11.603   6.012  66.916  1.00  0.00     0.791 C  
BRANCH   7  13
HETATM   13  C   UNL     1     -12.192   6.442  71.716  1.00  0.00    -0.256 C  
BRANCH  13  14
HETATM   14  O   UNL     1     -12.435   7.760  72.214  1.00  0.00    -0.271 OA 
BRANCH  14  15
HETATM   15  C   UNL     1     -12.572   8.725  71.165  1.00  0.00    -0.168 C  
BRANCH  15  16
HETATM   16  C   UNL     1     -11.844  10.014  71.554  1.00  0.00    -0.324 C  
HETATM   17  N   UNL     1     -12.678  11.195  71.315  1.00  0.00    -0.422 NA 
HETATM   18  H2  UNL     1     -13.578  11.117  71.788  1.00  0.00     0.000 HD 
HETATM   19  H1  UNL     1     -12.193  12.054  71.575  1.00  0.00     0.000 HD 
ENDBRANCH  15  16
ENDBRANCH  14  15
ENDBRANCH  13  14
ENDBRANCH   7  13
BRANCH   8  20
HETATM   20  C   UNL     1      -8.667   6.301  67.041  1.00  0.00    -0.108 C  
HETATM   21  O   UNL     1      -8.247   5.247  66.585  1.00  0.00    -0.108 OA 
BRANCH  20  22
HETATM   22  O   UNL     1      -8.449   7.516  66.477  1.00  0.00    -0.120 OA 
HETATM   23  C   UNL     1      -7.976   7.436  65.129  1.00  0.00    -0.128 C  
ENDBRANCH  20  22
ENDBRANCH   8  20
BRANCH  11  24
HETATM   24  C   UNL     1      -7.548   5.780  69.832  1.00  0.00    -0.080 A  
HETATM   25  C   UNL     1      -7.719   4.379  69.939  1.00  0.00    -0.053 A  
HETATM   26  C   UNL     1      -6.630   3.529  70.147  1.00  0.00    -0.033 A  
HETATM   27  C   UNL     1      -5.350   4.059  70.247  1.00  0.00    -0.008 A  
HETATM   28  C   UNL     1      -5.156   5.435  70.120  1.00  0.00    -0.004 A  
HETATM   29  C   UNL     1      -6.243   6.291  69.907  1.00  0.00    -0.031 A  
HETATM   30 CL   UNL     1      -5.897   7.973  69.734  1.00  0.00    -0.023 Cl 
ENDBRANCH  11  24
ENDBRANCH   4   6
ENDBRANCH   3   4
ENDBRANCH   2   3
TORSDOF 10
ENDMDL
MODEL      188
REMARK 921   NORMALIZED FREE ENERGY PREDICTED BY IDOCK:   -1.93 KCAL/MOL
REMARK 922        TOTAL FREE ENERGY PREDICTED BY IDOCK:   -4.79 KCAL/MOL
REMARK 923 INTER-LIGAND FREE ENERGY PREDICTED BY IDOCK:   -3.56 KCAL/MOL
REMARK 924 INTRA-LIGAND FREE ENERGY PREDICTED BY IDOCK:   -1.23 KCAL/MOL
REMARK 927      BINDING AFFINITY PREDICTED BY RF-SCORE:    0.00 PKD
ROOT
HETATM    1  C   UNL     1      -9.937   6.349  71.245  1.00  0.00    -0.204 C  
HETATM    2  C   UNL     1      -9.348   7.574  70.575  1.00  0.00    -0.160 C  
ENDROOT
BRANCH   2   3
HETATM    3  O   UNL     1      -7.943   7.484  70.786  1.00  0.00    -0.100 OA 
BRANCH   3   4
HETATM    4  C   UNL     1      -7.171   6.871  69.860  1.00  0.00    -0.076 C  
HETATM    5  O   UNL     1      -6.928   5.677  69.805  1.00  0.00    -0.058 OA 
BRANCH   4   6
HETATM    6  C   UNL     1      -6.840   7.865  68.798  1.00  0.00    -0.062 C  
HETATM    7  C   UNL     1      -6.375   9.106  69.090  1.00  0.00    -0.042 C  
HETATM    8  C   UNL     1      -6.865   8.575  66.322  1.00  0.00    -0.073 C  
HETATM    9  N   UNL     1      -6.137  10.007  68.067  1.00  0.00    -0.049 NA 
HETATM   10  C   UNL     1      -6.436   9.794  66.735  1.00  0.00    -0.066 C  
HETATM   11  C   UNL     1      -7.054   7.428  67.338  1.00  0.00    -0.085 C  
HETATM   12  C   UNL     1      -6.257  10.996  65.841  1.00  0.00    -0.037 C  
BRANCH   7  13
HETATM   13  C   UNL     1      -6.009   9.605  70.486  1.00  0.00    -0.066 C  
BRANCH  13  14
HETATM   14  O   UNL     1      -6.504  10.922  70.738  1.00  0.00    -0.339 OA 
BRANCH  14  15
HETATM   15  C   UNL     1      -5.452  11.880  70.898  1.00  0.00    -0.112 C  
BRANCH  15  16
HETATM   16  C   UNL     1      -5.874  13.215  70.277  1.00  0.00    -0.156 C  
HETATM   17  N   UNL     1      -6.460  13.029  68.948  1.00  0.00    -0.088 NA 
HETATM   18  H2  UNL     1      -7.236  12.367  68.973  1.00  0.00     0.000 HD 
HETATM   19  H1  UNL     1      -6.741  13.918  68.535  1.00  0.00     0.000 HD 
ENDBRANCH  15  16
ENDBRANCH  14  15
ENDBRANCH  13  14
ENDBRANCH   7  13
BRANCH   8  20
HETATM   20  C   UNL     1      -7.211   8.369  64.889  1.00  0.00    -0.084 C  
HETATM   21  O   UNL     1      -6.518   7.757  64.089  1.00  0.00    -0.055 OA 
BRANCH  20  22
HETATM   22  O   UNL     1      -8.405   8.938  64.583  1.00  0.00    -0.155 OA 
HETATM   23  C   UNL     1      -8.583   9.158  63.180  1.00  0.00    -0.181 C  
ENDBRANCH  20  22
ENDBRANCH   8  20
BRANCH  11  24
HETATM   24  C   UNL     1      -8.369   6.651  67.130  1.00  0.00    -0.113 A  
HETATM   25  C   UNL     1      -9.580   7.359  67.312  1.00  0.00    -0.191 A  
HETATM   26  C   UNL     1     -10.818   6.725  67.179  1.00  0.00    -0.462 A  
HETATM   27  C   UNL     1     -10.870   5.375  66.857  1.00  0.00    -0.153 A  
HETATM   28  C   UNL     1      -9.688   4.664  66.648  1.00  0.00    -0.213 A  
HETATM   29  C   UNL     1      -8.446   5.296  66.776  1.00  0.00    -0.107 A  
HETATM   30 CL   UNL     1      -7.042   4.338  66.470  1.00  0.00    -0.066 Cl 
ENDBRANCH  11  24
ENDBRANCH   4   6
ENDBRANCH   3   4
ENDBRANCH   2   3
TORSDOF 10
ENDMDL
MODEL      189
REMARK 921   NORMALIZED FREE ENERGY PREDICTED BY IDOCK:   -1.78 KCAL/MOL
REMARK 922        TOTAL FREE ENERGY PREDICTED BY IDOCK:   -4.56 KCAL/MOL
REMARK 923 INTER-LIGAND FREE ENERGY PREDICTED BY IDOCK:   -3.07 KCAL/MOL
REMARK 924 INTRA-LIGAND FREE ENERGY PREDICTED BY IDOCK:   -1.48 KCAL/MOL
REMARK 927      BINDING AFFINITY PREDICTED BY RF-SCORE:    0.00 PKD
ROOT
HETATM    1  C   UNL     1      -5.927   6.889  66.955  1.00  0.00    -0.025 C  
HETATM    2  C   UNL     1      -7.396   7.219  66.780  1.00  0.00    -0.088 C  
ENDROOT
BRANCH   2   3
HETATM    3  O   UNL     1      -7.488   8.632  66.929  1.00  0.00    -0.082 OA 
BRANCH   3   4
HETATM    4  C   UNL     1      -7.284   9.186  68.146  1.00  0.00    -0.079 C  
HETATM    5  O   UNL     1      -6.218   9.588  68.581  1.00  0.00    -0.044 OA 
BRANCH   4   6
HETATM    6  C   UNL     1      -8.613   9.417  68.782  1.00  0.00    -0.127 C  
HETATM    7  C   UNL     1      -9.345  10.535  68.539  1.00  0.00    -0.168 C  
HETATM    8  C   UNL     1     -10.415   8.740  70.492  1.00  0.00    -0.246 C  
HETATM    9  N   UNL     1     -10.547  10.723  69.199  1.00  0.00    -0.211 NA 
HETATM   10  C   UNL     1     -11.042   9.906  70.196  1.00  0.00    -0.296 C  
HETATM   11  C   UNL     1      -9.129   8.332  69.742  1.00  0.00    -0.147 C  
HETATM   12  C   UNL     1     -12.277  10.425  70.891  1.00  0.00    -0.484 C  
BRANCH   7  13
HETATM   13  C   UNL     1      -8.994  11.614  67.518  1.00  0.00    -0.165 C  
BRANCH  13  14
HETATM   14  O   UNL     1      -8.873  11.088  66.194  1.00  0.00    -0.179 OA 
BRANCH  14  15
HETATM   15  C   UNL     1     -10.099  11.170  65.459  1.00  0.00    -0.257 C  
BRANCH  15  16
HETATM   16  C   UNL     1     -10.319   9.872  64.678  1.00  0.00     0.666 C  
HETATM   17  N   UNL     1     -10.189   8.696  65.541  1.00  0.00     0.286 NA 
HETATM   18  H2  UNL     1     -10.810   8.756  66.348  1.00  0.00     0.000 HD 
HETATM   19  H1  UNL     1     -10.335   7.831  65.021  1.00  0.00     0.000 HD 
ENDBRANCH  15  16
ENDBRANCH  14  15
ENDBRANCH  13  14
ENDBRANCH   7  13
BRANCH   8  20
HETATM   20  C   UNL     1     -10.945   7.884  71.589  1.00  0.00    -0.238 C  
HETATM   21  O   UNL     1     -10.788   8.108  72.781  1.00  0.00    -0.353 OA 
BRANCH  20  22
HETATM   22  O   UNL     1     -11.637   6.825  71.098  1.00  0.00    -0.292 OA 
HETATM   23  C   UNL     1     -12.425   6.157  72.089  1.00  0.00     0.022 C  
ENDBRANCH  20  22
ENDBRANCH   8  20
BRANCH  11  24
HETATM   24  C   UNL     1      -8.033   7.789  70.681  1.00  0.00    -0.098 A  
HETATM   25  C   UNL     1      -7.366   8.720  71.511  1.00  0.00    -0.109 A  
HETATM   26  C   UNL     1      -6.335   8.322  72.365  1.00  0.00    -0.073 A  
HETATM   27  C   UNL     1      -5.954   6.987  72.411  1.00  0.00    -0.041 A  
HETATM   28  C   UNL     1      -6.616   6.048  71.619  1.00  0.00    -0.054 A  
HETATM   29  C   UNL     1      -7.652   6.442  70.765  1.00  0.00    -0.096 A  
HETATM   30 CL   UNL     1      -8.428   5.201  69.847  1.00  0.00    -0.095 Cl 
ENDBRANCH  11  24
ENDBRANCH   4   6
ENDBRANCH   3   4
ENDBRANCH   2   3
TORSDOF 10
ENDMDL
MODEL      190
REMARK 921   NORMALIZED FREE ENERGY PREDICTED BY IDOCK:   -1.77 KCAL/MOL
REMARK 922        TOTAL FREE ENERGY PREDICTED BY IDOCK:   -4.54 KCAL/MOL
REMARK 923 INTER-LIGAND FREE ENERGY PREDICTED BY IDOCK:   -3.93 KCAL/MOL
REMARK 924 INTRA-LIGAND FREE ENERGY PREDICTED BY IDOCK:   -0.61 KCAL/MOL
REMARK 927      BINDING AFFINITY PREDICTED BY RF-SCORE:    0.00 PKD
ROOT
HETATM    1  C   UNL     1     -10.172  19.977  68.432  1.00  0.00    -0.510 C  
HETATM    2  C   UNL     1      -9.338  18.956  67.684  1.00  0.00    -0.296 C  
ENDROOT
BRANCH   2   3
HETATM    3  O   UNL     1      -9.764  17.688  68.171  1.00  0.00    -0.284 OA 
BRANCH   3   4
HETATM    4  C   UNL     1      -8.855  16.847  68.717  1.00  0.00    -0.255 C  
HETATM    5  O   UNL     1      -8.157  17.080  69.690  1.00  0.00     0.308 OA 
BRANCH   4   6
HETATM    6  C   UNL     1      -9.001  15.515  68.063  1.00  0.00    -0.174 C  
HETATM    7  C   UNL     1      -8.587  15.286  66.790  1.00  0.00    -0.265 C  
HETATM    8  C   UNL     1      -9.931  13.113  68.078  1.00  0.00    -0.233 C  
HETATM    9  N   UNL     1      -8.797  14.045  66.215  1.00  0.00     0.081 NA 
HETATM   10  C   UNL     1      -9.508  13.011  66.793  1.00  0.00    -0.250 C  
HETATM   11  C   UNL     1      -9.653  14.395  68.892  1.00  0.00    -0.123 C  
HETATM   12  C   UNL     1      -9.759  11.828  65.891  1.00  0.00    -0.259 C  
BRANCH   7  13
HETATM   13  C   UNL     1      -7.821  16.279  65.921  1.00  0.00     0.675 C  
BRANCH  13  14
HETATM   14  O   UNL     1      -6.842  17.008  66.665  1.00  0.00    -0.201 OA 
BRANCH  14  15
HETATM   15  C   UNL     1      -5.759  16.180  67.102  1.00  0.00     0.008 C  
BRANCH  15  16
HETATM   16  C   UNL     1      -5.231  16.690  68.446  1.00  0.00    -0.113 C  
HETATM   17  N   UNL     1      -5.177  18.153  68.482  1.00  0.00    -0.159 NA 
HETATM   18  H2  UNL     1      -6.083  18.565  68.256  1.00  0.00     0.000 HD 
HETATM   19  H1  UNL     1      -4.826  18.492  69.377  1.00  0.00     0.000 HD 
ENDBRANCH  15  16
ENDBRANCH  14  15
ENDBRANCH  13  14
ENDBRANCH   7  13
BRANCH   8  20
HETATM   20  C   UNL     1     -10.720  12.002  68.677  1.00  0.00    -0.236 C  
HETATM   21  O   UNL     1     -11.939  11.908  68.622  1.00  0.00    -0.316 OA 
BRANCH  20  22
HETATM   22  O   UNL     1      -9.913  11.096  69.285  1.00  0.00    -0.139 OA 
HETATM   23  C   UNL     1     -10.630  10.138  70.070  1.00  0.00    -0.287 C  
ENDBRANCH  20  22
ENDBRANCH   8  20
BRANCH  11  24
HETATM   24  C   UNL     1     -10.879  14.875  69.693  1.00  0.00    -0.269 A  
HETATM   25  C   UNL     1     -10.707  15.096  71.080  1.00  0.00    -0.000 A  
HETATM   26  C   UNL     1     -11.773  15.495  71.889  1.00  0.00    -0.527 A  
HETATM   27  C   UNL     1     -13.029  15.689  71.329  1.00  0.00    -0.556 A  
HETATM   28  C   UNL     1     -13.216  15.502  69.959  1.00  0.00     0.366 A  
HETATM   29  C   UNL     1     -12.150  15.105  69.143  1.00  0.00    -0.224 A  
HETATM   30 CL   UNL     1     -12.475  14.927  67.457  1.00  0.00     0.308 Cl 
ENDBRANCH  11  24
ENDBRANCH   4   6
ENDBRANCH   3   4
ENDBRANCH   2   3
TORSDOF 10
ENDMDL
MODEL      191
REMARK 921   NORMALIZED FREE ENERGY PREDICTED BY IDOCK:   -1.75 KCAL/MOL
REMARK 922        TOTAL FREE ENERGY PREDICTED BY IDOCK:   -4.51 KCAL/MOL
REMARK 923 INTER-LIGAND FREE ENERGY PREDICTED BY IDOCK:   -3.47 KCAL/MOL
REMARK 924 INTRA-LIGAND FREE ENERGY PREDICTED BY IDOCK:   -1.04 KCAL/MOL
REMARK 927      BINDING AFFINITY PREDICTED BY RF-SCORE:    0.00 PKD
ROOT
HETATM    1  C   UNL     1      -5.167  11.515  67.005  1.00  0.00    -0.098 C  
HETATM    2  C   UNL     1      -6.617  11.284  66.631  1.00  0.00    -0.135 C  
ENDROOT
BRANCH   2   3
HETATM    3  O   UNL     1      -7.088  10.288  67.531  1.00  0.00    -0.084 OA 
BRANCH   3   4
HETATM    4  C   UNL     1      -8.353  10.366  68.005  1.00  0.00    -0.118 C  
HETATM    5  O   UNL     1      -9.057  11.362  68.010  1.00  0.00    -0.158 OA 
BRANCH   4   6
HETATM    6  C   UNL     1      -8.817   8.984  68.325  1.00  0.00    -0.134 C  
HETATM    7  C   UNL     1      -8.661   8.438  69.557  1.00  0.00    -0.129 C  
HETATM    8  C   UNL     1      -9.759   6.715  67.555  1.00  0.00    -0.149 C  
HETATM    9  N   UNL     1      -9.061   7.132  69.783  1.00  0.00    -0.142 NA 
HETATM   10  C   UNL     1      -9.523   6.264  68.812  1.00  0.00    -0.122 C  
HETATM   11  C   UNL     1      -9.482   8.188  67.189  1.00  0.00    -0.207 C  
HETATM   12  C   UNL     1      -9.716   4.839  69.271  1.00  0.00    -0.266 C  
BRANCH   7  13
HETATM   13  C   UNL     1      -8.131   9.171  70.787  1.00  0.00    -0.174 C  
BRANCH  13  14
HETATM   14  O   UNL     1      -6.707   9.301  70.768  1.00  0.00    -0.074 OA 
BRANCH  14  15
HETATM   15  C   UNL     1      -6.052   8.086  70.388  1.00  0.00    -0.029 C  
BRANCH  15  16
HETATM   16  C   UNL     1      -5.866   7.196  71.619  1.00  0.00    -0.037 C  
HETATM   17  N   UNL     1      -6.674   5.977  71.527  1.00  0.00    -0.054 NA 
HETATM   18  H2  UNL     1      -6.482   5.467  70.665  1.00  0.00     0.000 HD 
HETATM   19  H1  UNL     1      -6.550   5.383  72.347  1.00  0.00     0.000 HD 
ENDBRANCH  15  16
ENDBRANCH  14  15
ENDBRANCH  13  14
ENDBRANCH   7  13
BRANCH   8  20
HETATM   20  C   UNL     1     -10.230   5.760  66.514  1.00  0.00    -0.189 C  
HETATM   21  O   UNL     1     -11.390   5.661  66.138  1.00  0.00     0.178 OA 
BRANCH  20  22
HETATM   22  O   UNL     1      -9.204   5.020  66.023  1.00  0.00    -0.142 OA 
HETATM   23  C   UNL     1      -9.581   3.678  65.697  1.00  0.00    -0.142 C  
ENDBRANCH  20  22
ENDBRANCH   8  20
BRANCH  11  24
HETATM   24  C   UNL     1      -8.755   8.345  65.839  1.00  0.00    -0.197 A  
HETATM   25  C   UNL     1      -7.670   7.476  65.577  1.00  0.00    -0.103 A  
HETATM   26  C   UNL     1      -6.932   7.572  64.396  1.00  0.00    -0.056 A  
HETATM   27  C   UNL     1      -7.265   8.533  63.450  1.00  0.00    -0.096 A  
HETATM   28  C   UNL     1      -8.348   9.384  63.676  1.00  0.00    -0.184 A  
HETATM   29  C   UNL     1      -9.093   9.289  64.857  1.00  0.00    -0.170 A  
HETATM   30 CL   UNL     1     -10.431  10.367  65.030  1.00  0.00    -0.255 Cl 
ENDBRANCH  11  24
ENDBRANCH   4   6
ENDBRANCH   3   4
ENDBRANCH   2   3
TORSDOF 10
ENDMDL
MODEL      192
REMARK 921   NORMALIZED FREE ENERGY PREDICTED BY IDOCK:   -1.75 KCAL/MOL
REMARK 922        TOTAL FREE ENERGY PREDICTED BY IDOCK:   -4.50 KCAL/MOL
REMARK 923 INTER-LIGAND FREE ENERGY PREDICTED BY IDOCK:   -3.89 KCAL/MOL
REMARK 924 INTRA-LIGAND FREE ENERGY PREDICTED BY IDOCK:   -0.61 KCAL/MOL
REMARK 927      BINDING AFFINITY PREDICTED BY RF-SCORE:    0.00 PKD
ROOT
HETATM    1  C   UNL     1      -7.131   6.616  66.243  1.00  0.00    -0.067 C  
HETATM    2  C   UNL     1      -6.687   5.184  66.464  1.00  0.00    -0.057 C  
ENDROOT
BRANCH   2   3
HETATM    3  O   UNL     1      -7.829   4.384  66.177  1.00  0.00    -0.093 OA 
BRANCH   3   4
HETATM    4  C   UNL     1      -8.314   3.554  67.129  1.00  0.00    -0.092 C  
HETATM    5  O   UNL     1      -7.917   2.425  67.365  1.00  0.00    -0.064 OA 
BRANCH   4   6
HETATM    6  C   UNL     1      -9.269   4.324  67.978  1.00  0.00    -0.182 C  
HETATM    7  C   UNL     1     -10.169   5.190  67.447  1.00  0.00    -0.172 C  
HETATM    8  C   UNL     1     -10.079   5.073  70.304  1.00  0.00    -0.339 C  
HETATM    9  N   UNL     1     -10.994   5.919  68.286  1.00  0.00    -0.248 NA 
HETATM   10  C   UNL     1     -10.914   5.930  69.665  1.00  0.00    -0.377 C  
HETATM   11  C   UNL     1      -9.189   4.104  69.498  1.00  0.00    -0.214 C  
HETATM   12  C   UNL     1     -11.796   6.948  70.346  1.00  0.00    -0.351 C  
BRANCH   7  13
HETATM   13  C   UNL     1     -10.422   5.396  65.955  1.00  0.00    -0.071 C  
BRANCH  13  14
HETATM   14  O   UNL     1     -11.007   4.245  65.341  1.00  0.00    -0.154 OA 
BRANCH  14  15
HETATM   15  C   UNL     1     -10.580   4.072  63.986  1.00  0.00    -0.161 C  
BRANCH  15  16
HETATM   16  C   UNL     1      -9.918   2.702  63.826  1.00  0.00    -0.147 C  
HETATM   17  N   UNL     1      -9.944   1.943  65.078  1.00  0.00    -0.244 NA 
HETATM   18  H2  UNL     1     -10.893   1.858  65.443  1.00  0.00     0.000 HD 
HETATM   19  H1  UNL     1      -9.503   1.030  64.972  1.00  0.00     0.000 HD 
ENDBRANCH  15  16
ENDBRANCH  14  15
ENDBRANCH  13  14
ENDBRANCH   7  13
BRANCH   8  20
HETATM   20  C   UNL     1      -9.984   5.118  71.789  1.00  0.00    -0.187 C  
HETATM   21  O   UNL     1      -9.258   5.878  72.415  1.00  0.00    -0.144 OA 
BRANCH  20  22
HETATM   22  O   UNL     1     -10.816   4.213  72.364  1.00  0.00    -0.052 OA 
HETATM   23  C   UNL     1     -10.589   4.049  73.768  1.00  0.00    -0.216 C  
ENDBRANCH  20  22
ENDBRANCH   8  20
BRANCH  11  24
HETATM   24  C   UNL     1      -7.741   4.042  70.022  1.00  0.00    -0.052 A  
HETATM   25  C   UNL     1      -7.267   2.792  70.484  1.00  0.00    -0.033 A  
HETATM   26  C   UNL     1      -5.981   2.653  71.010  1.00  0.00    -0.017 A  
HETATM   27  C   UNL     1      -5.141   3.756  71.080  1.00  0.00     0.000 A  
HETATM   28  C   UNL     1      -5.578   4.993  70.607  1.00  0.00    -0.015 A  
HETATM   29  C   UNL     1      -6.865   5.137  70.075  1.00  0.00    -0.052 A  
HETATM   30 CL   UNL     1      -7.303   6.702  69.490  1.00  0.00    -0.089 Cl 
ENDBRANCH  11  24
ENDBRANCH   4   6
ENDBRANCH   3   4
ENDBRANCH   2   3
TORSDOF 10
ENDMDL
MODEL      193
REMARK 921   NORMALIZED FREE ENERGY PREDICTED BY IDOCK:   -1.67 KCAL/MOL
REMARK 922        TOTAL FREE ENERGY PREDICTED BY IDOCK:   -4.38 KCAL/MOL
REMARK 923 INTER-LIGAND FREE ENERGY PREDICTED BY IDOCK:   -3.03 KCAL/MOL
REMARK 924 INTRA-LIGAND FREE ENERGY PREDICTED BY IDOCK:   -1.35 KCAL/MOL
REMARK 927      BINDING AFFINITY PREDICTED BY RF-SCORE:    0.00 PKD
ROOT
HETATM    1  C   UNL     1     -10.568  18.186  65.694  1.00  0.00    -0.104 C  
HETATM    2  C   UNL     1      -9.379  17.624  66.446  1.00  0.00    -0.248 C  
ENDROOT
BRANCH   2   3
HETATM    3  O   UNL     1      -9.648  16.235  66.598  1.00  0.00    -0.224 OA 
BRANCH   3   4
HETATM    4  C   UNL     1     -10.180  15.785  67.758  1.00  0.00    -0.251 C  
HETATM    5  O   UNL     1     -11.131  16.269  68.347  1.00  0.00    -0.340 OA 
BRANCH   4   6
HETATM    6  C   UNL     1      -9.544  14.475  68.085  1.00  0.00    -0.212 C  
HETATM    7  C   UNL     1      -8.287  14.390  68.591  1.00  0.00    -0.147 C  
HETATM    8  C   UNL     1      -9.572  11.901  68.007  1.00  0.00    -0.193 C  
HETATM    9  N   UNL     1      -7.726  13.146  68.824  1.00  0.00    -0.061 NA 
HETATM   10  C   UNL     1      -8.301  11.938  68.481  1.00  0.00    -0.118 C  
HETATM   11  C   UNL     1     -10.372  13.207  67.817  1.00  0.00    -0.230 C  
HETATM   12  C   UNL     1      -7.412  10.733  68.666  1.00  0.00    -0.102 C  
BRANCH   7  13
HETATM   13  C   UNL     1      -7.423  15.576  69.011  1.00  0.00    -0.171 C  
BRANCH  13  14
HETATM   14  O   UNL     1      -6.562  16.018  67.958  1.00  0.00    -0.117 OA 
BRANCH  14  15
HETATM   15  C   UNL     1      -5.964  17.289  68.238  1.00  0.00    -0.148 C  
BRANCH  15  16
HETATM   16  C   UNL     1      -5.385  17.879  66.950  1.00  0.00    -0.142 C  
HETATM   17  N   UNL     1      -5.855  17.154  65.767  1.00  0.00     0.034 NA 
HETATM   18  H2  UNL     1      -6.874  17.115  65.734  1.00  0.00     0.000 HD 
HETATM   19  H1  UNL     1      -5.469  17.547  64.909  1.00  0.00     0.000 HD 
ENDBRANCH  15  16
ENDBRANCH  14  15
ENDBRANCH  13  14
ENDBRANCH   7  13
BRANCH   8  20
HETATM   20  C   UNL     1     -10.167  10.595  67.614  1.00  0.00    -0.194 C  
HETATM   21  O   UNL     1     -11.137  10.083  68.156  1.00  0.00    -0.253 OA 
BRANCH  20  22
HETATM   22  O   UNL     1      -9.503  10.045  66.566  1.00  0.00    -0.162 OA 
HETATM   23  C   UNL     1      -9.578   8.616  66.535  1.00  0.00    -0.237 C  
ENDBRANCH  20  22
ENDBRANCH   8  20
BRANCH  11  24
HETATM   24  C   UNL     1     -11.131  13.257  66.476  1.00  0.00    -0.313 A  
HETATM   25  C   UNL     1     -12.534  13.426  66.526  1.00  0.00    -0.255 A  
HETATM   26  C   UNL     1     -13.305  13.445  65.362  1.00  0.00     0.503 A  
HETATM   27  C   UNL     1     -12.690  13.301  64.125  1.00  0.00    -0.112 A  
HETATM   28  C   UNL     1     -11.305  13.158  64.050  1.00  0.00    -0.437 A  
HETATM   29  C   UNL     1     -10.527  13.143  65.214  1.00  0.00    -0.307 A  
HETATM   30 CL   UNL     1      -8.819  12.989  65.016  1.00  0.00     1.510 Cl 
ENDBRANCH  11  24
ENDBRANCH   4   6
ENDBRANCH   3   4
ENDBRANCH   2   3
TORSDOF 10
ENDMDL
MODEL      194
REMARK 921   NORMALIZED FREE ENERGY PREDICTED BY IDOCK:   -1.62 KCAL/MOL
REMARK 922        TOTAL FREE ENERGY PREDICTED BY IDOCK:   -4.30 KCAL/MOL
REMARK 923 INTER-LIGAND FREE ENERGY PREDICTED BY IDOCK:   -4.66 KCAL/MOL
REMARK 924 INTRA-LIGAND FREE ENERGY PREDICTED BY IDOCK:    0.36 KCAL/MOL
REMARK 927      BINDING AFFINITY PREDICTED BY RF-SCORE:    0.00 PKD
ROOT
HETATM    1  C   UNL     1     -11.015   9.290  69.543  1.00  0.00    -0.169 C  
HETATM    2  C   UNL     1     -10.215  10.568  69.388  1.00  0.00    -0.221 C  
ENDROOT
BRANCH   2   3
HETATM    3  O   UNL     1      -9.170  10.254  68.475  1.00  0.00    -0.135 OA 
BRANCH   3   4
HETATM    4  C   UNL     1      -8.357   9.203  68.732  1.00  0.00    -0.121 C  
HETATM    5  O   UNL     1      -7.976   8.844  69.833  1.00  0.00    -0.097 OA 
BRANCH   4   6
HETATM    6  C   UNL     1      -8.177   8.433  67.467  1.00  0.00    -0.125 C  
HETATM    7  C   UNL     1      -8.424   8.978  66.248  1.00  0.00    -0.125 C  
HETATM    8  C   UNL     1      -7.725   6.204  66.260  1.00  0.00    -0.099 C  
HETATM    9  N   UNL     1      -8.293   8.200  65.112  1.00  0.00    -0.153 NA 
HETATM   10  C   UNL     1      -8.029   6.843  65.103  1.00  0.00    -0.125 C  
HETATM   11  C   UNL     1      -7.704   6.975  67.596  1.00  0.00    -0.112 C  
HETATM   12  C   UNL     1      -8.122   6.185  63.748  1.00  0.00    -0.067 C  
BRANCH   7  13
HETATM   13  C   UNL     1      -8.777  10.441  65.992  1.00  0.00    -0.152 C  
BRANCH  13  14
HETATM   14  O   UNL     1      -9.713  10.592  64.922  1.00  0.00    -0.248 OA 
BRANCH  14  15
HETATM   15  C   UNL     1     -10.320  11.888  64.905  1.00  0.00    -0.286 C  
BRANCH  15  16
HETATM   16  C   UNL     1     -10.696  12.262  63.469  1.00  0.00    -0.451 C  
HETATM   17  N   UNL     1     -12.055  12.803  63.393  1.00  0.00    -0.606 NA 
HETATM   18  H2  UNL     1     -12.179  13.592  64.028  1.00  0.00     0.000 HD 
HETATM   19  H1  UNL     1     -12.306  13.052  62.436  1.00  0.00     0.000 HD 
ENDBRANCH  15  16
ENDBRANCH  14  15
ENDBRANCH  13  14
ENDBRANCH   7  13
BRANCH   8  20
HETATM   20  C   UNL     1      -7.471   4.737  66.238  1.00  0.00    -0.086 C  
HETATM   21  O   UNL     1      -8.346   3.881  66.238  1.00  0.00    -0.104 OA 
BRANCH  20  22
HETATM   22  O   UNL     1      -6.142   4.467  66.205  1.00  0.00    -0.029 OA 
HETATM   23  C   UNL     1      -5.839   3.188  65.637  1.00  0.00    -0.019 C  
ENDBRANCH  20  22
ENDBRANCH   8  20
BRANCH  11  24
HETATM   24  C   UNL     1      -8.403   6.214  68.740  1.00  0.00    -0.111 A  
HETATM   25  C   UNL     1      -9.813   6.295  68.811  1.00  0.00    -0.156 A  
HETATM   26  C   UNL     1     -10.526   5.668  69.835  1.00  0.00    -0.378 A  
HETATM   27  C   UNL     1      -9.845   4.943  70.805  1.00  0.00    -0.285 A  
HETATM   28  C   UNL     1      -8.456   4.829  70.740  1.00  0.00    -0.110 A  
HETATM   29  C   UNL     1      -7.738   5.453  69.713  1.00  0.00    -0.077 A  
HETATM   30 CL   UNL     1      -6.026   5.229  69.704  1.00  0.00    -0.020 Cl 
ENDBRANCH  11  24
ENDBRANCH   4   6
ENDBRANCH   3   4
ENDBRANCH   2   3
TORSDOF 10
ENDMDL
MODEL      195
REMARK 921   NORMALIZED FREE ENERGY PREDICTED BY IDOCK:   -1.58 KCAL/MOL
REMARK 922        TOTAL FREE ENERGY PREDICTED BY IDOCK:   -4.24 KCAL/MOL
REMARK 923 INTER-LIGAND FREE ENERGY PREDICTED BY IDOCK:   -6.02 KCAL/MOL
REMARK 924 INTRA-LIGAND FREE ENERGY PREDICTED BY IDOCK:    1.78 KCAL/MOL
REMARK 927      BINDING AFFINITY PREDICTED BY RF-SCORE:    0.00 PKD
ROOT
HETATM    1  C   UNL     1     -12.187  12.993  70.394  1.00  0.00    -0.386 C  
HETATM    2  C   UNL     1     -11.798  13.290  68.960  1.00  0.00    -0.321 C  
ENDROOT
BRANCH   2   3
HETATM    3  O   UNL     1     -11.938  12.056  68.265  1.00  0.00    -0.426 OA 
BRANCH   3   4
HETATM    4  C   UNL     1     -12.056  10.907  68.969  1.00  0.00    -0.169 C  
HETATM    5  O   UNL     1     -13.039  10.548  69.596  1.00  0.00    -0.020 OA 
BRANCH   4   6
HETATM    6  C   UNL     1     -10.865  10.057  68.679  1.00  0.00    -0.265 C  
HETATM    7  C   UNL     1     -10.196   9.395  69.657  1.00  0.00    -0.212 C  
HETATM    8  C   UNL     1      -9.071   9.220  67.032  1.00  0.00    -0.153 C  
HETATM    9  N   UNL     1      -9.064   8.665  69.338  1.00  0.00    -0.148 NA 
HETATM   10  C   UNL     1      -8.466   8.630  68.093  1.00  0.00    -0.131 C  
HETATM   11  C   UNL     1     -10.412   9.964  67.212  1.00  0.00    -0.319 C  
HETATM   12  C   UNL     1      -7.138   7.914  68.043  1.00  0.00    -0.085 C  
BRANCH   7  13
HETATM   13  C   UNL     1     -10.624   9.315  71.120  1.00  0.00    -0.332 C  
BRANCH  13  14
HETATM   14  O   UNL     1      -9.972   8.250  71.817  1.00  0.00    -0.181 OA 
BRANCH  14  15
HETATM   15  C   UNL     1     -10.614   7.935  73.058  1.00  0.00    -0.339 C  
BRANCH  15  16
HETATM   16  C   UNL     1      -9.637   7.185  73.966  1.00  0.00    -0.270 C  
HETATM   17  N   UNL     1     -10.193   5.906  74.413  1.00  0.00    -0.288 NA 
HETATM   18  H2  UNL     1     -10.485   5.330  73.623  1.00  0.00     0.000 HD 
HETATM   19  H1  UNL     1      -9.542   5.405  75.018  1.00  0.00     0.000 HD 
ENDBRANCH  15  16
ENDBRANCH  14  15
ENDBRANCH  13  14
ENDBRANCH   7  13
BRANCH   8  20
HETATM   20  C   UNL     1      -8.400   9.198  65.703  1.00  0.00    -0.125 C  
HETATM   21  O   UNL     1      -8.640   8.389  64.818  1.00  0.00    -0.147 OA 
BRANCH  20  22
HETATM   22  O   UNL     1      -7.493  10.201  65.592  1.00  0.00    -0.130 OA 
HETATM   23  C   UNL     1      -7.166  10.520  64.235  1.00  0.00     0.114 C  
ENDBRANCH  20  22
ENDBRANCH   8  20
BRANCH  11  24
HETATM   24  C   UNL     1     -10.448  11.321  66.484  1.00  0.00    -0.299 A  
HETATM   25  C   UNL     1     -11.444  11.505  65.496  1.00  0.00    -0.074 A  
HETATM   26  C   UNL     1     -11.527  12.690  64.761  1.00  0.00    -0.364 A  
HETATM   27  C   UNL     1     -10.622  13.715  65.000  1.00  0.00    -0.394 A  
HETATM   28  C   UNL     1      -9.647  13.565  65.987  1.00  0.00    -0.179 A  
HETATM   29  C   UNL     1      -9.562  12.382  66.729  1.00  0.00    -0.224 A  
HETATM   30 CL   UNL     1      -8.340  12.304  67.946  1.00  0.00    -0.153 Cl 
ENDBRANCH  11  24
ENDBRANCH   4   6
ENDBRANCH   3   4
ENDBRANCH   2   3
TORSDOF 10
ENDMDL
MODEL      196
REMARK 921   NORMALIZED FREE ENERGY PREDICTED BY IDOCK:   -1.01 KCAL/MOL
REMARK 922        TOTAL FREE ENERGY PREDICTED BY IDOCK:   -3.34 KCAL/MOL
REMARK 923 INTER-LIGAND FREE ENERGY PREDICTED BY IDOCK:   -2.44 KCAL/MOL
REMARK 924 INTRA-LIGAND FREE ENERGY PREDICTED BY IDOCK:   -0.91 KCAL/MOL
REMARK 927      BINDING AFFINITY PREDICTED BY RF-SCORE:    0.00 PKD
ROOT
HETATM    1  C   UNL     1      -6.078  17.788  68.398  1.00  0.00    -0.174 C  
HETATM    2  C   UNL     1      -7.329  17.472  69.193  1.00  0.00    -0.128 C  
ENDROOT
BRANCH   2   3
HETATM    3  O   UNL     1      -8.186  18.593  69.014  1.00  0.00    -0.232 OA 
BRANCH   3   4
HETATM    4  C   UNL     1      -9.500  18.390  68.759  1.00  0.00    -0.295 C  
HETATM    5  O   UNL     1     -10.428  19.025  69.229  1.00  0.00     0.020 OA 
BRANCH   4   6
HETATM    6  C   UNL     1      -9.611  17.403  67.646  1.00  0.00    -0.261 C  
HETATM    7  C   UNL     1      -9.650  17.785  66.344  1.00  0.00    -0.283 C  
HETATM    8  C   UNL     1      -9.988  14.987  66.838  1.00  0.00    -0.247 C  
HETATM    9  N   UNL     1      -9.810  16.829  65.355  1.00  0.00    -0.508 NA 
HETATM   10  C   UNL     1     -10.048  15.487  65.578  1.00  0.00    -0.373 C  
HETATM   11  C   UNL     1      -9.688  15.917  68.033  1.00  0.00    -0.216 C  
HETATM   12  C   UNL     1     -10.374  14.683  64.343  1.00  0.00     0.412 C  
BRANCH   7  13
HETATM   13  C   UNL     1      -9.459  19.212  65.837  1.00  0.00     0.037 C  
BRANCH  13  14
HETATM   14  O   UNL     1      -8.115  19.461  65.415  1.00  0.00    -0.243 OA 
BRANCH  14  15
HETATM   15  C   UNL     1      -7.682  20.790  65.726  1.00  0.00     0.410 C  
BRANCH  15  16
HETATM   16  C   UNL     1      -6.218  20.962  65.316  1.00  0.00    -0.223 C  
HETATM   17  N   UNL     1      -5.384  19.873  65.827  1.00  0.00    -0.160 NA 
HETATM   18  H2  UNL     1      -5.746  18.961  65.544  1.00  0.00     0.000 HD 
HETATM   19  H1  UNL     1      -4.408  19.987  65.554  1.00  0.00     0.000 HD 
ENDBRANCH  15  16
ENDBRANCH  14  15
ENDBRANCH  13  14
ENDBRANCH   7  13
BRANCH   8  20
HETATM   20  C   UNL     1     -10.275  13.544  67.065  1.00  0.00    -0.249 C  
HETATM   21  O   UNL     1      -9.461  12.732  67.482  1.00  0.00    -0.178 OA 
BRANCH  20  22
HETATM   22  O   UNL     1     -11.564  13.244  66.762  1.00  0.00    -0.330 OA 
HETATM   23  C   UNL     1     -11.793  11.841  66.595  1.00  0.00     0.050 C  
ENDBRANCH  20  22
ENDBRANCH   8  20
BRANCH  11  24
HETATM   24  C   UNL     1     -10.610  15.657  69.241  1.00  0.00    -0.238 A  
HETATM   25  C   UNL     1     -11.995  15.881  69.065  1.00  0.00    -0.243 A  
HETATM   26  C   UNL     1     -12.898  15.706  70.116  1.00  0.00    -0.055 A  
HETATM   27  C   UNL     1     -12.437  15.300  71.362  1.00  0.00    -0.428 A  
HETATM   28  C   UNL     1     -11.078  15.049  71.551  1.00  0.00    -0.128 A  
HETATM   29  C   UNL     1     -10.169  15.219  70.499  1.00  0.00     0.142 A  
HETATM   30 CL   UNL     1      -8.513  14.856  70.826  1.00  0.00     1.686 Cl 
ENDBRANCH  11  24
ENDBRANCH   4   6
ENDBRANCH   3   4
ENDBRANCH   2   3
TORSDOF 10
ENDMDL
MODEL      197
REMARK 921   NORMALIZED FREE ENERGY PREDICTED BY IDOCK:   -0.97 KCAL/MOL
REMARK 922        TOTAL FREE ENERGY PREDICTED BY IDOCK:   -3.27 KCAL/MOL
REMARK 923 INTER-LIGAND FREE ENERGY PREDICTED BY IDOCK:   -2.99 KCAL/MOL
REMARK 924 INTRA-LIGAND FREE ENERGY PREDICTED BY IDOCK:   -0.27 KCAL/MOL
REMARK 927      BINDING AFFINITY PREDICTED BY RF-SCORE:    0.00 PKD
ROOT
HETATM    1  C   UNL     1     -10.169  18.261  68.371  1.00  0.00    -0.402 C  
HETATM    2  C   UNL     1      -9.547  17.032  67.738  1.00  0.00    -0.244 C  
ENDROOT
BRANCH   2   3
HETATM    3  O   UNL     1     -10.178  15.921  68.365  1.00  0.00    -0.219 OA 
BRANCH   3   4
HETATM    4  C   UNL     1      -9.445  15.095  69.146  1.00  0.00    -0.221 C  
HETATM    5  O   UNL     1      -8.727  15.432  70.072  1.00  0.00    -0.028 OA 
BRANCH   4   6
HETATM    6  C   UNL     1      -9.823  13.689  68.821  1.00  0.00    -0.069 C  
HETATM    7  C   UNL     1      -9.423  13.080  67.675  1.00  0.00    -0.201 C  
HETATM    8  C   UNL     1     -11.197  11.573  69.339  1.00  0.00    -0.324 C  
HETATM    9  N   UNL     1      -9.849  11.792  67.399  1.00  0.00    -0.178 NA 
HETATM   10  C   UNL     1     -10.762  11.079  68.152  1.00  0.00    -0.205 C  
HETATM   11  C   UNL     1     -10.703  12.946  69.841  1.00  0.00     0.812 C  
HETATM   12  C   UNL     1     -11.208   9.772  67.543  1.00  0.00     0.080 C  
BRANCH   7  13
HETATM   13  C   UNL     1      -8.454  13.671  66.654  1.00  0.00     0.164 C  
BRANCH  13  14
HETATM   14  O   UNL     1      -7.103  13.662  67.122  1.00  0.00    -0.067 OA 
BRANCH  14  15
HETATM   15  C   UNL     1      -6.730  12.403  67.693  1.00  0.00    -0.132 C  
BRANCH  15  16
HETATM   16  C   UNL     1      -5.675  11.731  66.810  1.00  0.00    -0.113 C  
HETATM   17  N   UNL     1      -6.252  11.254  65.552  1.00  0.00    -0.391 NA 
HETATM   18  H2  UNL     1      -6.732  12.004  65.053  1.00  0.00     0.000 HD 
HETATM   19  H1  UNL     1      -5.549  10.807  64.963  1.00  0.00     0.000 HD 
ENDBRANCH  15  16
ENDBRANCH  14  15
ENDBRANCH  13  14
ENDBRANCH   7  13
BRANCH   8  20
HETATM   20  C   UNL     1     -12.202  10.806  70.124  1.00  0.00    -0.346 C  
HETATM   21  O   UNL     1     -13.396  10.756  69.863  1.00  0.00     0.072 OA 
BRANCH  20  22
HETATM   22  O   UNL     1     -11.622  10.155  71.165  1.00  0.00    -0.359 OA 
HETATM   23  C   UNL     1     -12.538   9.337  71.900  1.00  0.00    -0.390 C  
ENDBRANCH  20  22
ENDBRANCH   8  20
BRANCH  11  24
HETATM   24  C   UNL     1     -11.838  13.822  70.407  1.00  0.00    -0.323 A  
HETATM   25  C   UNL     1     -11.988  13.866  71.813  1.00  0.00     0.276 A  
HETATM   26  C   UNL     1     -13.013  14.604  72.410  1.00  0.00    -0.453 A  
HETATM   27  C   UNL     1     -13.903  15.316  71.617  1.00  0.00    -0.615 A  
HETATM   28  C   UNL     1     -13.758  15.307  70.230  1.00  0.00     0.484 A  
HETATM   29  C   UNL     1     -12.730  14.572  69.626  1.00  0.00     0.077 A  
HETATM   30 CL   UNL     1     -12.617  14.647  67.905  1.00  0.00     0.320 Cl 
ENDBRANCH  11  24
ENDBRANCH   4   6
ENDBRANCH   3   4
ENDBRANCH   2   3
TORSDOF 10
ENDMDL
MODEL      198
REMARK 921   NORMALIZED FREE ENERGY PREDICTED BY IDOCK:   -0.35 KCAL/MOL
REMARK 922        TOTAL FREE ENERGY PREDICTED BY IDOCK:   -2.29 KCAL/MOL
REMARK 923 INTER-LIGAND FREE ENERGY PREDICTED BY IDOCK:   -3.09 KCAL/MOL
REMARK 924 INTRA-LIGAND FREE ENERGY PREDICTED BY IDOCK:    0.80 KCAL/MOL
REMARK 927      BINDING AFFINITY PREDICTED BY RF-SCORE:    0.00 PKD
ROOT
HETATM    1  C   UNL     1      -6.326  11.151  70.231  1.00  0.00    -0.097 C  
HETATM    2  C   UNL     1      -7.255  10.253  69.439  1.00  0.00    -0.104 C  
ENDROOT
BRANCH   2   3
HETATM    3  O   UNL     1      -7.306   9.028  70.163  1.00  0.00    -0.052 OA 
BRANCH   3   4
HETATM    4  C   UNL     1      -6.299   8.135  70.028  1.00  0.00    -0.032 C  
HETATM    5  O   UNL     1      -5.137   8.309  70.355  1.00  0.00    -0.023 OA 
BRANCH   4   6
HETATM    6  C   UNL     1      -6.886   6.829  69.610  1.00  0.00    -0.055 C  
HETATM    7  C   UNL     1      -7.212   6.565  68.319  1.00  0.00    -0.085 C  
HETATM    8  C   UNL     1      -7.898   4.541  70.221  1.00  0.00    -0.060 C  
HETATM    9  N   UNL     1      -7.805   5.356  67.996  1.00  0.00    -0.091 NA 
HETATM   10  C   UNL     1      -8.210   4.401  68.909  1.00  0.00    -0.079 C  
HETATM   11  C   UNL     1      -7.120   5.781  70.711  1.00  0.00    -0.070 C  
HETATM   12  C   UNL     1      -9.001   3.256  68.325  1.00  0.00    -0.188 C  
BRANCH   7  13
HETATM   13  C   UNL     1      -6.914   7.474  67.130  1.00  0.00    -0.083 C  
BRANCH  13  14
HETATM   14  O   UNL     1      -7.210   6.846  65.880  1.00  0.00    -0.070 OA 
BRANCH  14  15
HETATM   15  C   UNL     1      -7.877   7.727  64.970  1.00  0.00    -0.125 C  
BRANCH  15  16
HETATM   16  C   UNL     1      -7.770   7.173  63.547  1.00  0.00    -0.119 C  
HETATM   17  N   UNL     1      -8.714   6.076  63.325  1.00  0.00    -0.319 NA 
HETATM   18  H2  UNL     1      -9.670   6.356  63.546  1.00  0.00     0.000 HD 
HETATM   19  H1  UNL     1      -8.643   5.707  62.376  1.00  0.00     0.000 HD 
ENDBRANCH  15  16
ENDBRANCH  14  15
ENDBRANCH  13  14
ENDBRANCH   7  13
BRANCH   8  20
HETATM   20  C   UNL     1      -8.366   3.518  71.196  1.00  0.00    -0.067 C  
HETATM   21  O   UNL     1      -8.803   3.770  72.311  1.00  0.00    -0.098 OA 
BRANCH  20  22
HETATM   22  O   UNL     1      -8.258   2.265  70.686  1.00  0.00    -0.048 OA 
HETATM   23  C   UNL     1      -9.474   1.515  70.767  1.00  0.00    -0.116 C  
ENDBRANCH  20  22
ENDBRANCH   8  20
BRANCH  11  24
HETATM   24  C   UNL     1      -7.706   6.386  72.002  1.00  0.00    -0.096 A  
HETATM   25  C   UNL     1      -6.859   6.452  73.134  1.00  0.00    -0.074 A  
HETATM   26  C   UNL     1      -7.318   6.950  74.355  1.00  0.00    -0.107 A  
HETATM   27  C   UNL     1      -8.628   7.397  74.470  1.00  0.00    -0.218 A  
HETATM   28  C   UNL     1      -9.473   7.364  73.360  1.00  0.00    -0.276 A  
HETATM   29  C   UNL     1      -9.016   6.869  72.133  1.00  0.00    -0.132 A  
HETATM   30 CL   UNL     1     -10.129   6.896  70.812  1.00  0.00    -0.205 Cl 
ENDBRANCH  11  24
ENDBRANCH   4   6
ENDBRANCH   3   4
ENDBRANCH   2   3
TORSDOF 10
ENDMDL
MODEL      199
REMARK 921   NORMALIZED FREE ENERGY PREDICTED BY IDOCK:   -0.17 KCAL/MOL
REMARK 922        TOTAL FREE ENERGY PREDICTED BY IDOCK:   -2.00 KCAL/MOL
REMARK 923 INTER-LIGAND FREE ENERGY PREDICTED BY IDOCK:   -3.37 KCAL/MOL
REMARK 924 INTRA-LIGAND FREE ENERGY PREDICTED BY IDOCK:    1.37 KCAL/MOL
REMARK 927      BINDING AFFINITY PREDICTED BY RF-SCORE:    0.00 PKD
ROOT
HETATM    1  C   UNL     1      -6.098   9.558  66.308  1.00  0.00    -0.060 C  
HETATM    2  C   UNL     1      -5.469  10.561  67.254  1.00  0.00    -0.041 C  
ENDROOT
BRANCH   2   3
HETATM    3  O   UNL     1      -6.436  11.593  67.412  1.00  0.00    -0.079 OA 
BRANCH   3   4
HETATM    4  C   UNL     1      -7.547  11.585  66.640  1.00  0.00    -0.088 C  
HETATM    5  O   UNL     1      -7.574  11.556  65.421  1.00  0.00     0.542 OA 
BRANCH   4   6
HETATM    6  C   UNL     1      -8.732  11.404  67.529  1.00  0.00    -0.140 C  
HETATM    7  C   UNL     1      -9.333  10.198  67.695  1.00  0.00    -0.148 C  
HETATM    8  C   UNL     1     -10.590  12.412  69.000  1.00  0.00    -0.087 C  
HETATM    9  N   UNL     1     -10.462  10.099  68.489  1.00  0.00    -0.185 NA 
HETATM   10  C   UNL     1     -11.124  11.166  69.065  1.00  0.00    -0.242 C  
HETATM   11  C   UNL     1      -9.260  12.653  68.255  1.00  0.00    -0.184 C  
HETATM   12  C   UNL     1     -12.435  10.820  69.727  1.00  0.00    -0.231 C  
BRANCH   7  13
HETATM   13  C   UNL     1      -8.826   8.875  67.126  1.00  0.00    -0.123 C  
BRANCH  13  14
HETATM   14  O   UNL     1      -9.548   8.476  65.959  1.00  0.00    -0.227 OA 
BRANCH  14  15
HETATM   15  C   UNL     1      -9.010   9.047  64.761  1.00  0.00    -0.095 C  
BRANCH  15  16
HETATM   16  C   UNL     1      -7.678   8.371  64.423  1.00  0.00    -0.133 C  
HETATM   17  N   UNL     1      -7.883   7.054  63.817  1.00  0.00    -0.165 NA 
HETATM   18  H2  UNL     1      -8.491   7.109  62.999  1.00  0.00     0.000 HD 
HETATM   19  H1  UNL     1      -6.995   6.604  63.591  1.00  0.00     0.000 HD 
ENDBRANCH  15  16
ENDBRANCH  14  15
ENDBRANCH  13  14
ENDBRANCH   7  13
BRANCH   8  20
HETATM   20  C   UNL     1     -11.329  13.555  69.602  1.00  0.00    -0.152 C  
HETATM   21  O   UNL     1     -11.055  14.071  70.677  1.00  0.00     0.196 OA 
BRANCH  20  22
HETATM   22  O   UNL     1     -12.343  13.964  68.798  1.00  0.00    -0.288 OA 
HETATM   23  C   UNL     1     -12.730  15.323  69.024  1.00  0.00     0.479 C  
ENDBRANCH  20  22
ENDBRANCH   8  20
BRANCH  11  24
HETATM   24  C   UNL     1      -9.295  13.903  67.355  1.00  0.00    -0.228 A  
HETATM   25  C   UNL     1      -8.517  15.016  67.753  1.00  0.00    -0.161 A  
HETATM   26  C   UNL     1      -8.518  16.203  67.017  1.00  0.00    -0.238 A  
HETATM   27  C   UNL     1      -9.290  16.301  65.866  1.00  0.00    -0.299 A  
HETATM   28  C   UNL     1     -10.045  15.207  65.442  1.00  0.00    -0.384 A  
HETATM   29  C   UNL     1     -10.045  14.014  66.174  1.00  0.00    -0.309 A  
HETATM   30 CL   UNL     1     -10.989  12.710  65.551  1.00  0.00    -0.303 Cl 
ENDBRANCH  11  24
ENDBRANCH   4   6
ENDBRANCH   3   4
ENDBRANCH   2   3
TORSDOF 10
ENDMDL
MODEL      200
REMARK 921   NORMALIZED FREE ENERGY PREDICTED BY IDOCK:   -0.03 KCAL/MOL
REMARK 922        TOTAL FREE ENERGY PREDICTED BY IDOCK:   -1.79 KCAL/MOL
REMARK 923 INTER-LIGAND FREE ENERGY PREDICTED BY IDOCK:   -1.61 KCAL/MOL
REMARK 924 INTRA-LIGAND FREE ENERGY PREDICTED BY IDOCK:   -0.18 KCAL/MOL
REMARK 927      BINDING AFFINITY PREDICTED BY RF-SCORE:    0.00 PKD
ROOT
HETATM    1  C   UNL     1      -6.541   7.449  66.898  1.00  0.00    -0.057 C  
HETATM    2  C   UNL     1      -7.520   8.556  67.234  1.00  0.00    -0.093 C  
ENDROOT
BRANCH   2   3
HETATM    3  O   UNL     1      -7.072   9.097  68.472  1.00  0.00    -0.070 OA 
BRANCH   3   4
HETATM    4  C   UNL     1      -7.934   9.179  69.512  1.00  0.00    -0.098 C  
HETATM    5  O   UNL     1      -7.707   8.837  70.660  1.00  0.00    -0.071 OA 
BRANCH   4   6
HETATM    6  C   UNL     1      -9.131   9.950  69.066  1.00  0.00    -0.164 C  
HETATM    7  C   UNL     1     -10.295   9.342  68.725  1.00  0.00    -0.209 C  
HETATM    8  C   UNL     1     -10.209  12.177  68.353  1.00  0.00    -0.212 C  
HETATM    9  N   UNL     1     -11.356  10.104  68.266  1.00  0.00    -0.186 NA 
HETATM   10  C   UNL     1     -11.308  11.460  68.011  1.00  0.00    -0.303 C  
HETATM   11  C   UNL     1      -8.992  11.481  68.998  1.00  0.00     0.135 C  
HETATM   12  C   UNL     1     -12.535  12.026  67.338  1.00  0.00     1.256 C  
BRANCH   7  13
HETATM   13  C   UNL     1     -10.587   7.851  68.869  1.00  0.00    -0.145 C  
BRANCH  13  14
HETATM   14  O   UNL     1     -11.065   7.516  70.174  1.00  0.00    -0.260 OA 
BRANCH  14  15
HETATM   15  C   UNL     1     -11.015   6.109  70.431  1.00  0.00    -0.337 C  
BRANCH  15  16
HETATM   16  C   UNL     1     -11.881   5.777  71.649  1.00  0.00     0.195 C  
HETATM   17  N   UNL     1     -12.153   6.969  72.455  1.00  0.00    -0.501 NA 
HETATM   18  H2  UNL     1     -12.569   7.712  71.893  1.00  0.00     0.000 HD 
HETATM   19  H1  UNL     1     -12.731   6.748  73.267  1.00  0.00     0.000 HD 
ENDBRANCH  15  16
ENDBRANCH  14  15
ENDBRANCH  13  14
ENDBRANCH   7  13
BRANCH   8  20
HETATM   20  C   UNL     1     -10.162  13.633  68.046  1.00  0.00    -0.248 C  
HETATM   21  O   UNL     1     -10.134  14.104  66.917  1.00  0.00    -0.251 OA 
BRANCH  20  22
HETATM   22  O   UNL     1     -10.165  14.377  69.181  1.00  0.00    -0.212 OA 
HETATM   23  C   UNL     1      -8.991  15.181  69.333  1.00  0.00    -0.176 C  
ENDBRANCH  20  22
ENDBRANCH   8  20
BRANCH  11  24
HETATM   24  C   UNL     1      -7.649  11.937  68.395  1.00  0.00    -0.120 A  
HETATM   25  C   UNL     1      -6.680  12.461  69.283  1.00  0.00    -0.067 A  
HETATM   26  C   UNL     1      -5.450  12.933  68.818  1.00  0.00    -0.071 A  
HETATM   27  C   UNL     1      -5.162  12.886  67.460  1.00  0.00    -0.046 A  
HETATM   28  C   UNL     1      -6.093  12.350  66.571  1.00  0.00     0.946 A  
HETATM   29  C   UNL     1      -7.325  11.872  67.032  1.00  0.00    -0.118 A  
HETATM   30 CL   UNL     1      -8.398  11.202  65.856  1.00  0.00    -0.123 Cl 
ENDBRANCH  11  24
ENDBRANCH   4   6
ENDBRANCH   3   4
ENDBRANCH   2   3
TORSDOF 10
ENDMDL
MODEL      201
REMARK 921   NORMALIZED FREE ENERGY PREDICTED BY IDOCK:    0.13 KCAL/MOL
REMARK 922        TOTAL FREE ENERGY PREDICTED BY IDOCK:   -1.53 KCAL/MOL
REMARK 923 INTER-LIGAND FREE ENERGY PREDICTED BY IDOCK:   -1.76 KCAL/MOL
REMARK 924 INTRA-LIGAND FREE ENERGY PREDICTED BY IDOCK:    0.24 KCAL/MOL
REMARK 927      BINDING AFFINITY PREDICTED BY RF-SCORE:    0.00 PKD
ROOT
HETATM    1  C   UNL     1      -9.988   8.088  72.324  1.00  0.00    -0.304 C  
HETATM    2  C   UNL     1      -9.375   8.774  71.120  1.00  0.00    -0.233 C  
ENDROOT
BRANCH   2   3
HETATM    3  O   UNL     1      -8.096   8.172  70.950  1.00  0.00    -0.090 OA 
BRANCH   3   4
HETATM    4  C   UNL     1      -7.259   8.650  70.001  1.00  0.00    -0.051 C  
HETATM    5  O   UNL     1      -6.142   9.103  70.192  1.00  0.00    -0.033 OA 
BRANCH   4   6
HETATM    6  C   UNL     1      -7.841   8.337  68.664  1.00  0.00    -0.120 C  
HETATM    7  C   UNL     1      -7.913   7.067  68.188  1.00  0.00    -0.119 C  
HETATM    8  C   UNL     1      -8.766   9.126  66.394  1.00  0.00    -0.147 C  
HETATM    9  N   UNL     1      -8.412   6.840  66.917  1.00  0.00    -0.113 NA 
HETATM   10  C   UNL     1      -8.759   7.825  66.012  1.00  0.00    -0.161 C  
HETATM   11  C   UNL     1      -8.356   9.521  67.829  1.00  0.00    -0.118 C  
HETATM   12  C   UNL     1      -9.098   7.327  64.628  1.00  0.00     1.020 C  
BRANCH   7  13
HETATM   13  C   UNL     1      -7.548   5.809  68.972  1.00  0.00    -0.089 C  
BRANCH  13  14
HETATM   14  O   UNL     1      -7.875   4.614  68.260  1.00  0.00    -0.080 OA 
BRANCH  14  15
HETATM   15  C   UNL     1      -9.097   4.023  68.713  1.00  0.00    -0.134 C  
BRANCH  15  16
HETATM   16  C   UNL     1      -8.804   3.049  69.857  1.00  0.00    -0.091 C  
HETATM   17  N   UNL     1      -7.717   2.129  69.515  1.00  0.00    -0.043 NA 
HETATM   18  H2  UNL     1      -6.877   2.634  69.230  1.00  0.00     0.000 HD 
HETATM   19  H1  UNL     1      -7.521   1.481  70.278  1.00  0.00     0.000 HD 
ENDBRANCH  15  16
ENDBRANCH  14  15
ENDBRANCH  13  14
ENDBRANCH   7  13
BRANCH   8  20
HETATM   20  C   UNL     1      -9.114  10.177  65.399  1.00  0.00    -0.188 C  
HETATM   21  O   UNL     1      -8.444  11.178  65.183  1.00  0.00    -0.038 OA 
BRANCH  20  22
HETATM   22  O   UNL     1     -10.267   9.878  64.749  1.00  0.00    -0.134 OA 
HETATM   23  C   UNL     1     -11.155  10.995  64.630  1.00  0.00     0.030 C  
ENDBRANCH  20  22
ENDBRANCH   8  20
BRANCH  11  24
HETATM   24  C   UNL     1      -7.415  10.741  67.870  1.00  0.00    -0.090 A  
HETATM   25  C   UNL     1      -6.077  10.548  67.452  1.00  0.00    -0.053 A  
HETATM   26  C   UNL     1      -5.147  11.589  67.492  1.00  0.00    -0.052 A  
HETATM   27  C   UNL     1      -5.535  12.843  67.943  1.00  0.00    -0.112 A  
HETATM   28  C   UNL     1      -6.855  13.063  68.336  1.00  0.00    -0.097 A  
HETATM   29  C   UNL     1      -7.792  12.024  68.294  1.00  0.00    -0.145 A  
HETATM   30 CL   UNL     1      -9.407  12.403  68.774  1.00  0.00     0.021 Cl 
ENDBRANCH  11  24
ENDBRANCH   4   6
ENDBRANCH   3   4
ENDBRANCH   2   3
TORSDOF 10
ENDMDL
MODEL      202
REMARK 921   NORMALIZED FREE ENERGY PREDICTED BY IDOCK:    0.17 KCAL/MOL
REMARK 922        TOTAL FREE ENERGY PREDICTED BY IDOCK:   -1.46 KCAL/MOL
REMARK 923 INTER-LIGAND FREE ENERGY PREDICTED BY IDOCK:   -3.95 KCAL/MOL
REMARK 924 INTRA-LIGAND FREE ENERGY PREDICTED BY IDOCK:    2.49 KCAL/MOL
REMARK 927      BINDING AFFINITY PREDICTED BY RF-SCORE:    0.00 PKD
ROOT
HETATM    1  C   UNL     1     -12.170  12.106  67.555  1.00  0.00     0.326 C  
HETATM    2  C   UNL     1     -11.692  13.541  67.653  1.00  0.00    -0.363 C  
ENDROOT
BRANCH   2   3
HETATM    3  O   UNL     1     -11.418  13.942  66.315  1.00  0.00    -0.319 OA 
BRANCH   3   4
HETATM    4  C   UNL     1     -10.223  13.633  65.761  1.00  0.00    -0.308 C  
HETATM    5  O   UNL     1      -9.840  13.963  64.651  1.00  0.00    -0.143 OA 
BRANCH   4   6
HETATM    6  C   UNL     1      -9.371  13.003  66.811  1.00  0.00    -0.244 C  
HETATM    7  C   UNL     1      -8.769  13.731  67.786  1.00  0.00    -0.182 C  
HETATM    8  C   UNL     1      -8.151  10.938  67.750  1.00  0.00    -0.115 C  
HETATM    9  N   UNL     1      -7.946  13.101  68.702  1.00  0.00    -0.084 NA 
HETATM   10  C   UNL     1      -7.578  11.770  68.656  1.00  0.00    -0.125 C  
HETATM   11  C   UNL     1      -9.190  11.477  66.744  1.00  0.00    -0.187 C  
HETATM   12  C   UNL     1      -6.522  11.365  69.656  1.00  0.00    -0.133 C  
BRANCH   7  13
HETATM   13  C   UNL     1      -8.975  15.225  68.024  1.00  0.00    -0.171 C  
BRANCH  13  14
HETATM   14  O   UNL     1      -8.386  15.664  69.251  1.00  0.00    -0.229 OA 
BRANCH  14  15
HETATM   15  C   UNL     1      -7.393  16.676  69.050  1.00  0.00    -0.228 C  
BRANCH  15  16
HETATM   16  C   UNL     1      -8.063  17.966  68.571  1.00  0.00    -0.301 C  
HETATM   17  N   UNL     1      -7.413  18.495  67.371  1.00  0.00    -0.218 NA 
HETATM   18  H2  UNL     1      -7.375  17.797  66.628  1.00  0.00     0.000 HD 
HETATM   19  H1  UNL     1      -7.860  19.355  67.051  1.00  0.00     0.000 HD 
ENDBRANCH  15  16
ENDBRANCH  14  15
ENDBRANCH  13  14
ENDBRANCH   7  13
BRANCH   8  20
HETATM   20  C   UNL     1      -7.723   9.514  67.694  1.00  0.00    -0.095 C  
HETATM   21  O   UNL     1      -8.488   8.559  67.702  1.00  0.00    -0.127 OA 
BRANCH  20  22
HETATM   22  O   UNL     1      -6.372   9.407  67.622  1.00  0.00    -0.057 OA 
HETATM   23  C   UNL     1      -5.931   8.495  66.610  1.00  0.00    -0.053 C  
ENDBRANCH  20  22
ENDBRANCH   8  20
BRANCH  11  24
HETATM   24  C   UNL     1      -8.961  10.960  65.310  1.00  0.00    -0.202 A  
HETATM   25  C   UNL     1      -7.630  10.682  64.922  1.00  0.00     0.087 A  
HETATM   26  C   UNL     1      -7.326  10.246  63.630  1.00  0.00    -0.082 A  
HETATM   27  C   UNL     1      -8.346  10.073  62.703  1.00  0.00    -0.165 A  
HETATM   28  C   UNL     1      -9.669  10.317  63.072  1.00  0.00    -0.212 A  
HETATM   29  C   UNL     1      -9.979  10.751  64.367  1.00  0.00    -0.338 A  
HETATM   30 CL   UNL     1     -11.647  10.998  64.734  1.00  0.00     0.317 Cl 
ENDBRANCH  11  24
ENDBRANCH   4   6
ENDBRANCH   3   4
ENDBRANCH   2   3
TORSDOF 10
ENDMDL
MODEL      203
REMARK 921   NORMALIZED FREE ENERGY PREDICTED BY IDOCK:    0.29 KCAL/MOL
REMARK 922        TOTAL FREE ENERGY PREDICTED BY IDOCK:   -1.28 KCAL/MOL
REMARK 923 INTER-LIGAND FREE ENERGY PREDICTED BY IDOCK:   -1.25 KCAL/MOL
REMARK 924 INTRA-LIGAND FREE ENERGY PREDICTED BY IDOCK:   -0.02 KCAL/MOL
REMARK 927      BINDING AFFINITY PREDICTED BY RF-SCORE:    0.00 PKD
ROOT
HETATM    1  C   UNL     1     -12.355  11.854  66.159  1.00  0.00     0.925 C  
HETATM    2  C   UNL     1     -12.254  12.001  67.664  1.00  0.00     0.426 C  
ENDROOT
BRANCH   2   3
HETATM    3  O   UNL     1     -11.081  12.775  67.892  1.00  0.00    -0.225 OA 
BRANCH   3   4
HETATM    4  C   UNL     1     -10.733  13.731  67.000  1.00  0.00    -0.283 C  
HETATM    5  O   UNL     1     -11.492  14.327  66.254  1.00  0.00    -0.337 OA 
BRANCH   4   6
HETATM    6  C   UNL     1      -9.302  14.083  67.230  1.00  0.00    -0.230 C  
HETATM    7  C   UNL     1      -8.288  13.251  66.877  1.00  0.00    -0.003 C  
HETATM    8  C   UNL     1      -7.525  15.635  68.262  1.00  0.00    -0.116 C  
HETATM    9  N   UNL     1      -6.981  13.605  67.164  1.00  0.00    -0.040 NA 
HETATM   10  C   UNL     1      -6.600  14.714  67.895  1.00  0.00    -0.164 C  
HETATM   11  C   UNL     1      -9.012  15.438  67.897  1.00  0.00    -0.173 C  
HETATM   12  C   UNL     1      -5.131  14.780  68.233  1.00  0.00    -0.112 C  
BRANCH   7  13
HETATM   13  C   UNL     1      -8.448  11.946  66.103  1.00  0.00     0.112 C  
BRANCH  13  14
HETATM   14  O   UNL     1      -9.133  10.946  66.862  1.00  0.00    -0.151 OA 
BRANCH  14  15
HETATM   15  C   UNL     1      -8.266  10.262  67.773  1.00  0.00    -0.110 C  
BRANCH  15  16
HETATM   16  C   UNL     1      -8.308   8.758  67.491  1.00  0.00    -0.109 C  
HETATM   17  N   UNL     1      -9.470   8.396  66.677  1.00  0.00    -0.188 NA 
HETATM   18  H2  UNL     1      -9.504   8.938  65.813  1.00  0.00     0.000 HD 
HETATM   19  H1  UNL     1      -9.498   7.394  66.489  1.00  0.00     0.000 HD 
ENDBRANCH  15  16
ENDBRANCH  14  15
ENDBRANCH  13  14
ENDBRANCH   7  13
BRANCH   8  20
HETATM   20  C   UNL     1      -7.104  16.809  69.075  1.00  0.00    -0.221 C  
HETATM   21  O   UNL     1      -6.497  16.738  70.135  1.00  0.00    -0.021 OA 
BRANCH  20  22
HETATM   22  O   UNL     1      -7.467  17.975  68.483  1.00  0.00    -0.261 OA 
HETATM   23  C   UNL     1      -6.749  18.243  67.274  1.00  0.00    -0.195 C  
ENDBRANCH  20  22
ENDBRANCH   8  20
BRANCH  11  24
HETATM   24  C   UNL     1      -9.964  15.748  69.068  1.00  0.00    -0.234 A  
HETATM   25  C   UNL     1     -10.020  14.814  70.129  1.00  0.00     0.363 A  
HETATM   26  C   UNL     1     -10.882  14.996  71.212  1.00  0.00     0.073 A  
HETATM   27  C   UNL     1     -11.701  16.117  71.261  1.00  0.00    -0.480 A  
HETATM   28  C   UNL     1     -11.645  17.063  70.238  1.00  0.00     1.186 A  
HETATM   29  C   UNL     1     -10.779  16.888  69.152  1.00  0.00    -0.298 A  
HETATM   30 CL   UNL     1     -10.762  18.129  67.952  1.00  0.00    -0.387 Cl 
ENDBRANCH  11  24
ENDBRANCH   4   6
ENDBRANCH   3   4
ENDBRANCH   2   3
TORSDOF 10
ENDMDL
MODEL      204
REMARK 921   NORMALIZED FREE ENERGY PREDICTED BY IDOCK:    0.81 KCAL/MOL
REMARK 922        TOTAL FREE ENERGY PREDICTED BY IDOCK:   -0.45 KCAL/MOL
REMARK 923 INTER-LIGAND FREE ENERGY PREDICTED BY IDOCK:   -2.67 KCAL/MOL
REMARK 924 INTRA-LIGAND FREE ENERGY PREDICTED BY IDOCK:    2.22 KCAL/MOL
REMARK 927      BINDING AFFINITY PREDICTED BY RF-SCORE:    0.00 PKD
ROOT
HETATM    1  C   UNL     1      -8.898   9.992  66.587  1.00  0.00    -0.145 C  
HETATM    2  C   UNL     1      -9.065  11.377  67.179  1.00  0.00    -0.164 C  
ENDROOT
BRANCH   2   3
HETATM    3  O   UNL     1      -7.755  11.931  67.224  1.00  0.00    -0.147 OA 
BRANCH   3   4
HETATM    4  C   UNL     1      -7.590  13.263  67.051  1.00  0.00     0.177 C  
HETATM    5  O   UNL     1      -8.095  13.939  66.171  1.00  0.00     1.066 OA 
BRANCH   4   6
HETATM    6  C   UNL     1      -6.861  13.800  68.236  1.00  0.00    -0.109 C  
HETATM    7  C   UNL     1      -6.479  13.007  69.270  1.00  0.00    -0.103 C  
HETATM    8  C   UNL     1      -5.973  15.805  69.588  1.00  0.00    -0.149 C  
HETATM    9  N   UNL     1      -5.854  13.569  70.369  1.00  0.00    -0.161 NA 
HETATM   10  C   UNL     1      -5.668  14.923  70.572  1.00  0.00    -0.147 C  
HETATM   11  C   UNL     1      -6.560  15.309  68.249  1.00  0.00    -0.116 C  
HETATM   12  C   UNL     1      -5.132  15.296  71.932  1.00  0.00    -0.093 C  
BRANCH   7  13
HETATM   13  C   UNL     1      -6.613  11.487  69.311  1.00  0.00    -0.113 C  
BRANCH  13  14
HETATM   14  O   UNL     1      -5.385  10.826  68.997  1.00  0.00    -0.042 OA 
BRANCH  14  15
HETATM   15  C   UNL     1      -5.314   9.510  69.555  1.00  0.00    -0.035 C  
BRANCH  15  16
HETATM   16  C   UNL     1      -5.187   9.603  71.078  1.00  0.00    -0.046 C  
HETATM   17  N   UNL     1      -6.461   9.319  71.742  1.00  0.00    -0.276 NA 
HETATM   18  H2  UNL     1      -6.838   8.415  71.453  1.00  0.00     0.000 HD 
HETATM   19  H1  UNL     1      -6.377   9.380  72.756  1.00  0.00     0.000 HD 
ENDBRANCH  15  16
ENDBRANCH  14  15
ENDBRANCH  13  14
ENDBRANCH   7  13
BRANCH   8  20
HETATM   20  C   UNL     1      -5.795  17.262  69.832  1.00  0.00    -0.240 C  
HETATM   21  O   UNL     1      -5.810  17.788  70.937  1.00  0.00     0.064 OA 
BRANCH  20  22
HETATM   22  O   UNL     1      -5.600  17.937  68.671  1.00  0.00    -0.162 OA 
HETATM   23  C   UNL     1      -6.149  19.259  68.686  1.00  0.00    -0.226 C  
ENDBRANCH  20  22
ENDBRANCH   8  20
BRANCH  11  24
HETATM   24  C   UNL     1      -7.746  16.163  67.760  1.00  0.00    -0.155 A  
HETATM   25  C   UNL     1      -7.592  16.852  66.533  1.00  0.00    -0.328 A  
HETATM   26  C   UNL     1      -8.601  17.678  66.033  1.00  0.00    -0.066 A  
HETATM   27  C   UNL     1      -9.785  17.828  66.743  1.00  0.00    -0.309 A  
HETATM   28  C   UNL     1      -9.968  17.139  67.942  1.00  0.00    -0.292 A  
HETATM   29  C   UNL     1      -8.961  16.306  68.446  1.00  0.00    -0.203 A  
HETATM   30 CL   UNL     1      -9.295  15.474  69.922  1.00  0.00    -0.152 Cl 
ENDBRANCH  11  24
ENDBRANCH   4   6
ENDBRANCH   3   4
ENDBRANCH   2   3
TORSDOF 10
ENDMDL
MODEL      205
REMARK 921   NORMALIZED FREE ENERGY PREDICTED BY IDOCK:    1.44 KCAL/MOL
REMARK 922        TOTAL FREE ENERGY PREDICTED BY IDOCK:    0.55 KCAL/MOL
REMARK 923 INTER-LIGAND FREE ENERGY PREDICTED BY IDOCK:   -3.59 KCAL/MOL
REMARK 924 INTRA-LIGAND FREE ENERGY PREDICTED BY IDOCK:    4.14 KCAL/MOL
REMARK 927      BINDING AFFINITY PREDICTED BY RF-SCORE:    0.00 PKD
ROOT
HETATM    1  C   UNL     1      -6.901  10.383  65.019  1.00  0.00    -0.065 C  
HETATM    2  C   UNL     1      -7.125   9.000  65.597  1.00  0.00    -0.081 C  
ENDROOT
BRANCH   2   3
HETATM    3  O   UNL     1      -7.390   9.205  66.981  1.00  0.00    -0.089 OA 
BRANCH   3   4
HETATM    4  C   UNL     1      -6.685  10.139  67.660  1.00  0.00    -0.075 C  
HETATM    5  O   UNL     1      -5.495  10.091  67.920  1.00  0.00    -0.039 OA 
BRANCH   4   6
HETATM    6  C   UNL     1      -7.560  11.332  67.855  1.00  0.00    -0.100 C  
HETATM    7  C   UNL     1      -7.140  12.431  68.532  1.00  0.00    -0.100 C  
HETATM    8  C   UNL     1      -9.867  12.460  67.666  1.00  0.00    -0.198 C  
HETATM    9  N   UNL     1      -8.013  13.487  68.730  1.00  0.00    -0.062 NA 
HETATM   10  C   UNL     1      -9.350  13.488  68.384  1.00  0.00    -0.171 C  
HETATM   11  C   UNL     1      -8.976  11.267  67.259  1.00  0.00    -0.149 C  
HETATM   12  C   UNL     1     -10.134  14.682  68.873  1.00  0.00    -0.234 C  
BRANCH   7  13
HETATM   13  C   UNL     1      -5.725  12.656  69.058  1.00  0.00    -0.072 C  
BRANCH  13  14
HETATM   14  O   UNL     1      -5.516  12.043  70.332  1.00  0.00    -0.116 OA 
BRANCH  14  15
HETATM   15  C   UNL     1      -5.205  10.650  70.224  1.00  0.00    -0.055 C  
BRANCH  15  16
HETATM   16  C   UNL     1      -5.892   9.880  71.354  1.00  0.00     0.005 C  
HETATM   17  N   UNL     1      -7.324   9.711  71.097  1.00  0.00    -0.313 NA 
HETATM   18  H2  UNL     1      -7.490   9.272  70.191  1.00  0.00     0.000 HD 
HETATM   19  H1  UNL     1      -7.782   9.198  71.850  1.00  0.00     0.000 HD 
ENDBRANCH  15  16
ENDBRANCH  14  15
ENDBRANCH  13  14
ENDBRANCH   7  13
BRANCH   8  20
HETATM   20  C   UNL     1     -11.316  12.462  67.327  1.00  0.00    -0.323 C  
HETATM   21  O   UNL     1     -12.187  11.921  67.996  1.00  0.00    -0.491 OA 
BRANCH  20  22
HETATM   22  O   UNL     1     -11.554  13.153  66.184  1.00  0.00    -0.324 OA 
HETATM   23  C   UNL     1     -12.454  12.483  65.295  1.00  0.00    -0.319 C  
ENDBRANCH  20  22
ENDBRANCH   8  20
BRANCH  11  24
HETATM   24  C   UNL     1      -9.660   9.904  67.480  1.00  0.00    -0.183 A  
HETATM   25  C   UNL     1      -9.703   9.401  68.802  1.00  0.00    -0.161 A  
HETATM   26  C   UNL     1     -10.270   8.158  69.088  1.00  0.00    -0.219 A  
HETATM   27  C   UNL     1     -10.811   7.394  68.062  1.00  0.00    -0.127 A  
HETATM   28  C   UNL     1     -10.803   7.881  66.754  1.00  0.00     0.105 A  
HETATM   29  C   UNL     1     -10.239   9.129  66.463  1.00  0.00    -0.252 A  
HETATM   30 CL   UNL     1     -10.303   9.656  64.820  1.00  0.00     0.613 Cl 
ENDBRANCH  11  24
ENDBRANCH   4   6
ENDBRANCH   3   4
ENDBRANCH   2   3
TORSDOF 10
ENDMDL
MODEL      206
REMARK 921   NORMALIZED FREE ENERGY PREDICTED BY IDOCK:    1.88 KCAL/MOL
REMARK 922        TOTAL FREE ENERGY PREDICTED BY IDOCK:    1.24 KCAL/MOL
REMARK 923 INTER-LIGAND FREE ENERGY PREDICTED BY IDOCK:    1.11 KCAL/MOL
REMARK 924 INTRA-LIGAND FREE ENERGY PREDICTED BY IDOCK:    0.13 KCAL/MOL
REMARK 927      BINDING AFFINITY PREDICTED BY RF-SCORE:    0.00 PKD
ROOT
HETATM    1  C   UNL     1     -12.285  11.092  66.745  1.00  0.00     1.932 C  
HETATM    2  C   UNL     1     -11.972  11.394  68.196  1.00  0.00    -0.130 C  
ENDROOT
BRANCH   2   3
HETATM    3  O   UNL     1     -10.827  12.239  68.170  1.00  0.00    -0.208 OA 
BRANCH   3   4
HETATM    4  C   UNL     1     -10.604  13.021  67.089  1.00  0.00    -0.246 C  
HETATM    5  O   UNL     1     -11.435  13.356  66.262  1.00  0.00    -0.307 OA 
BRANCH   4   6
HETATM    6  C   UNL     1      -9.223  13.577  67.193  1.00  0.00    -0.236 C  
HETATM    7  C   UNL     1      -8.119  12.806  67.019  1.00  0.00    -0.066 C  
HETATM    8  C   UNL     1      -7.641  15.519  67.788  1.00  0.00    -0.162 C  
HETATM    9  N   UNL     1      -6.863  13.363  67.181  1.00  0.00    -0.071 NA 
HETATM   10  C   UNL     1      -6.614  14.648  67.623  1.00  0.00    -0.155 C  
HETATM   11  C   UNL     1      -9.094  15.075  67.517  1.00  0.00    -0.189 C  
HETATM   12  C   UNL     1      -5.163  14.958  67.899  1.00  0.00    -0.091 C  
BRANCH   7  13
HETATM   13  C   UNL     1      -8.125  11.345  66.576  1.00  0.00    -0.141 C  
BRANCH  13  14
HETATM   14  O   UNL     1      -8.345  11.206  65.170  1.00  0.00     0.006 OA 
BRANCH  14  15
HETATM   15  C   UNL     1      -9.537  10.471  64.873  1.00  0.00    -0.277 C  
BRANCH  15  16
HETATM   16  C   UNL     1      -9.518  10.031  63.407  1.00  0.00    -0.188 C  
HETATM   17  N   UNL     1      -9.228  11.153  62.512  1.00  0.00    -0.476 NA 
HETATM   18  H2  UNL     1      -8.360  11.623  62.772  1.00  0.00     0.000 HD 
HETATM   19  H1  UNL     1      -9.214  10.860  61.535  1.00  0.00     0.000 HD 
ENDBRANCH  15  16
ENDBRANCH  14  15
ENDBRANCH  13  14
ENDBRANCH   7  13
BRANCH   8  20
HETATM   20  C   UNL     1      -7.359  16.891  68.293  1.00  0.00    -0.193 C  
HETATM   21  O   UNL     1      -6.957  17.148  69.419  1.00  0.00    -0.220 OA 
BRANCH  20  22
HETATM   22  O   UNL     1      -7.595  17.826  67.337  1.00  0.00    -0.196 OA 
HETATM   23  C   UNL     1      -8.670  18.712  67.667  1.00  0.00    -0.272 C  
ENDBRANCH  20  22
ENDBRANCH   8  20
BRANCH  11  24
HETATM   24  C   UNL     1     -10.078  15.542  68.607  1.00  0.00    -0.210 A  
HETATM   25  C   UNL     1     -11.249  16.214  68.185  1.00  0.00    -0.311 A  
HETATM   26  C   UNL     1     -12.177  16.704  69.106  1.00  0.00     1.227 A  
HETATM   27  C   UNL     1     -11.958  16.528  70.466  1.00  0.00     0.548 A  
HETATM   28  C   UNL     1     -10.822  15.847  70.904  1.00  0.00    -0.102 A  
HETATM   29  C   UNL     1      -9.891  15.350  69.985  1.00  0.00    -0.095 A  
HETATM   30 CL   UNL     1      -8.533  14.496  70.624  1.00  0.00     1.939 Cl 
ENDBRANCH  11  24
ENDBRANCH   4   6
ENDBRANCH   3   4
ENDBRANCH   2   3
TORSDOF 10
ENDMDL
MODEL      207
REMARK 921   NORMALIZED FREE ENERGY PREDICTED BY IDOCK:    2.19 KCAL/MOL
REMARK 922        TOTAL FREE ENERGY PREDICTED BY IDOCK:    1.73 KCAL/MOL
REMARK 923 INTER-LIGAND FREE ENERGY PREDICTED BY IDOCK:    0.07 KCAL/MOL
REMARK 924 INTRA-LIGAND FREE ENERGY PREDICTED BY IDOCK:    1.66 KCAL/MOL
REMARK 927      BINDING AFFINITY PREDICTED BY RF-SCORE:    0.00 PKD
ROOT
HETATM    1  C   UNL     1      -5.700   7.980  67.385  1.00  0.00    -0.038 C  
HETATM    2  C   UNL     1      -6.726   9.042  67.726  1.00  0.00    -0.065 C  
ENDROOT
BRANCH   2   3
HETATM    3  O   UNL     1      -6.219   9.704  68.880  1.00  0.00    -0.042 OA 
BRANCH   3   4
HETATM    4  C   UNL     1      -6.934   9.679  70.028  1.00  0.00    -0.093 C  
HETATM    5  O   UNL     1      -6.486   9.509  71.149  1.00  0.00    -0.142 OA 
BRANCH   4   6
HETATM    6  C   UNL     1      -8.330  10.103  69.716  1.00  0.00    -0.154 C  
HETATM    7  C   UNL     1      -9.362   9.221  69.679  1.00  0.00    -0.179 C  
HETATM    8  C   UNL     1      -9.989  11.911  68.936  1.00  0.00    -0.024 C  
HETATM    9  N   UNL     1     -10.627   9.661  69.331  1.00  0.00    -0.217 NA 
HETATM   10  C   UNL     1     -10.933  10.937  68.899  1.00  0.00    -0.229 C  
HETATM   11  C   UNL     1      -8.561  11.596  69.427  1.00  0.00     0.689 C  
HETATM   12  C   UNL     1     -12.345  11.119  68.399  1.00  0.00     0.443 C  
BRANCH   7  13
HETATM   13  C   UNL     1      -9.276   7.747  70.067  1.00  0.00    -0.153 C  
BRANCH  13  14
HETATM   14  O   UNL     1      -8.586   6.968  69.085  1.00  0.00    -0.131 OA 
BRANCH  14  15
HETATM   15  C   UNL     1      -9.420   6.630  67.972  1.00  0.00    -0.118 C  
BRANCH  15  16
HETATM   16  C   UNL     1      -9.489   5.108  67.825  1.00  0.00    -0.128 C  
HETATM   17  N   UNL     1      -8.673   4.639  66.703  1.00  0.00    -0.111 NA 
HETATM   18  H2  UNL     1      -7.709   4.962  66.782  1.00  0.00     0.000 HD 
HETATM   19  H1  UNL     1      -8.719   3.624  66.605  1.00  0.00     0.000 HD 
ENDBRANCH  15  16
ENDBRANCH  14  15
ENDBRANCH  13  14
ENDBRANCH   7  13
BRANCH   8  20
HETATM   20  C   UNL     1     -10.327  13.274  68.439  1.00  0.00    -0.251 C  
HETATM   21  O   UNL     1     -10.096  14.310  69.046  1.00  0.00    -0.209 OA 
BRANCH  20  22
HETATM   22  O   UNL     1     -10.915  13.222  67.217  1.00  0.00    -0.261 OA 
HETATM   23  C   UNL     1     -10.482  14.265  66.337  1.00  0.00    -0.282 C  
ENDBRANCH  20  22
ENDBRANCH   8  20
BRANCH  11  24
HETATM   24  C   UNL     1      -7.468  12.211  68.531  1.00  0.00    -0.117 A  
HETATM   25  C   UNL     1      -7.273  11.637  67.253  1.00  0.00    -0.137 A  
HETATM   26  C   UNL     1      -6.280  12.106  66.390  1.00  0.00     0.786 A  
HETATM   27  C   UNL     1      -5.467  13.162  66.783  1.00  0.00     1.336 A  
HETATM   28  C   UNL     1      -5.659  13.760  68.029  1.00  0.00    -0.127 A  
HETATM   29  C   UNL     1      -6.655  13.295  68.896  1.00  0.00    -0.107 A  
HETATM   30 CL   UNL     1      -6.832  14.119  70.403  1.00  0.00     0.133 Cl 
ENDBRANCH  11  24
ENDBRANCH   4   6
ENDBRANCH   3   4
ENDBRANCH   2   3
TORSDOF 10
ENDMDL
MODEL      208
REMARK 921   NORMALIZED FREE ENERGY PREDICTED BY IDOCK:    2.51 KCAL/MOL
REMARK 922        TOTAL FREE ENERGY PREDICTED BY IDOCK:    2.24 KCAL/MOL
REMARK 923 INTER-LIGAND FREE ENERGY PREDICTED BY IDOCK:    0.35 KCAL/MOL
REMARK 924 INTRA-LIGAND FREE ENERGY PREDICTED BY IDOCK:    1.89 KCAL/MOL
REMARK 927      BINDING AFFINITY PREDICTED BY RF-SCORE:    0.00 PKD
ROOT
HETATM    1  C   UNL     1     -13.117  14.282  66.650  1.00  0.00     1.307 C  
HETATM    2  C   UNL     1     -12.209  14.645  67.808  1.00  0.00    -0.047 C  
ENDROOT
BRANCH   2   3
HETATM    3  O   UNL     1     -11.205  13.637  67.833  1.00  0.00    -0.255 OA 
BRANCH   3   4
HETATM    4  C   UNL     1     -10.177  13.702  66.956  1.00  0.00    -0.250 C  
HETATM    5  O   UNL     1      -9.734  12.774  66.301  1.00  0.00    -0.259 OA 
BRANCH   4   6
HETATM    6  C   UNL     1      -9.815  15.137  66.768  1.00  0.00    -0.251 C  
HETATM    7  C   UNL     1     -10.354  15.892  65.776  1.00  0.00    -0.376 C  
HETATM    8  C   UNL     1      -8.339  17.161  67.363  1.00  0.00    -0.203 C  
HETATM    9  N   UNL     1      -9.941  17.203  65.614  1.00  0.00    -0.577 NA 
HETATM   10  C   UNL     1      -8.919  17.808  66.321  1.00  0.00    -0.174 C  
HETATM   11  C   UNL     1      -8.790  15.736  67.746  1.00  0.00    -0.173 C  
HETATM   12  C   UNL     1      -8.531  19.182  65.831  1.00  0.00     0.029 C  
BRANCH   7  13
HETATM   13  C   UNL     1     -11.464  15.444  64.829  1.00  0.00    -0.336 C  
BRANCH  13  14
HETATM   14  O   UNL     1     -10.997  14.513  63.850  1.00  0.00     0.362 OA 
BRANCH  14  15
HETATM   15  C   UNL     1     -11.888  13.406  63.679  1.00  0.00    -0.398 C  
BRANCH  15  16
HETATM   16  C   UNL     1     -11.105  12.188  63.182  1.00  0.00    -0.183 C  
HETATM   17  N   UNL     1      -9.729  12.192  63.683  1.00  0.00    -0.589 NA 
HETATM   18  H2  UNL     1      -9.703  12.263  64.701  1.00  0.00     0.000 HD 
HETATM   19  H1  UNL     1      -9.207  11.380  63.353  1.00  0.00     0.000 HD 
ENDBRANCH  15  16
ENDBRANCH  14  15
ENDBRANCH  13  14
ENDBRANCH   7  13
BRANCH   8  20
HETATM   20  C   UNL     1      -7.221  17.815  68.097  1.00  0.00    -0.225 C  
HETATM   21  O   UNL     1      -6.947  17.609  69.271  1.00  0.00    -0.243 OA 
BRANCH  20  22
HETATM   22  O   UNL     1      -6.532  18.663  67.292  1.00  0.00    -0.192 OA 
HETATM   23  C   UNL     1      -5.277  18.132  66.855  1.00  0.00    -0.132 C  
ENDBRANCH  20  22
ENDBRANCH   8  20
BRANCH  11  24
HETATM   24  C   UNL     1      -7.609  14.789  68.033  1.00  0.00    -0.130 A  
HETATM   25  C   UNL     1      -6.520  14.812  67.130  1.00  0.00     0.482 A  
HETATM   26  C   UNL     1      -5.424  13.962  67.293  1.00  0.00     0.544 A  
HETATM   27  C   UNL     1      -5.390  13.076  68.362  1.00  0.00    -0.070 A  
HETATM   28  C   UNL     1      -6.442  13.054  69.279  1.00  0.00    -0.103 A  
HETATM   29  C   UNL     1      -7.541  13.907  69.122  1.00  0.00     0.064 A  
HETATM   30 CL   UNL     1      -8.778  13.824  70.325  1.00  0.00     2.728 Cl 
ENDBRANCH  11  24
ENDBRANCH   4   6
ENDBRANCH   3   4
ENDBRANCH   2   3
TORSDOF 10
ENDMDL
MODEL      209
REMARK 921   NORMALIZED FREE ENERGY PREDICTED BY IDOCK:    2.97 KCAL/MOL
REMARK 922        TOTAL FREE ENERGY PREDICTED BY IDOCK:    2.98 KCAL/MOL
REMARK 923 INTER-LIGAND FREE ENERGY PREDICTED BY IDOCK:   -2.54 KCAL/MOL
REMARK 924 INTRA-LIGAND FREE ENERGY PREDICTED BY IDOCK:    5.51 KCAL/MOL
REMARK 927      BINDING AFFINITY PREDICTED BY RF-SCORE:    0.00 PKD
ROOT
HETATM    1  C   UNL     1      -7.227   6.570  68.289  1.00  0.00    -0.085 C  
HETATM    2  C   UNL     1      -6.772   6.497  69.732  1.00  0.00    -0.050 C  
ENDROOT
BRANCH   2   3
HETATM    3  O   UNL     1      -6.067   7.710  69.970  1.00  0.00    -0.026 OA 
BRANCH   3   4
HETATM    4  C   UNL     1      -6.757   8.869  70.075  1.00  0.00    -0.043 C  
HETATM    5  O   UNL     1      -6.304   9.991  69.923  1.00  0.00    -0.049 OA 
BRANCH   4   6
HETATM    6  C   UNL     1      -8.207   8.539  70.200  1.00  0.00    -0.121 C  
HETATM    7  C   UNL     1      -9.176   9.336  69.682  1.00  0.00    -0.175 C  
HETATM    8  C   UNL     1     -10.085   7.085  71.196  1.00  0.00    -0.197 C  
HETATM    9  N   UNL     1     -10.507   9.009  69.875  1.00  0.00    -0.208 NA 
HETATM   10  C   UNL     1     -10.963   7.970  70.663  1.00  0.00    -0.245 C  
HETATM   11  C   UNL     1      -8.569   7.248  70.955  1.00  0.00    -0.136 C  
HETATM   12  C   UNL     1     -12.459   7.934  70.867  1.00  0.00    -0.053 C  
BRANCH   7  13
HETATM   13  C   UNL     1      -8.934  10.567  68.813  1.00  0.00    -0.166 C  
BRANCH  13  14
HETATM   14  O   UNL     1     -10.013  11.502  68.886  1.00  0.00    -0.187 OA 
BRANCH  14  15
HETATM   15  C   UNL     1      -9.609  12.832  68.544  1.00  0.00    -0.110 C  
BRANCH  15  16
HETATM   16  C   UNL     1     -10.449  13.338  67.368  1.00  0.00    -0.243 C  
HETATM   17  N   UNL     1     -11.538  12.413  67.048  1.00  0.00    -0.372 NA 
HETATM   18  H2  UNL     1     -12.118  12.222  67.866  1.00  0.00     0.000 HD 
HETATM   19  H1  UNL     1     -12.098  12.750  66.265  1.00  0.00     0.000 HD 
ENDBRANCH  15  16
ENDBRANCH  14  15
ENDBRANCH  13  14
ENDBRANCH   7  13
BRANCH   8  20
HETATM   20  C   UNL     1     -10.590   5.988  72.066  1.00  0.00    -0.223 C  
HETATM   21  O   UNL     1     -11.438   6.128  72.937  1.00  0.00    -0.216 OA 
BRANCH  20  22
HETATM   22  O   UNL     1      -9.998   4.805  71.763  1.00  0.00    -0.175 OA 
HETATM   23  C   UNL     1     -10.113   3.832  72.806  1.00  0.00    -0.162 C  
ENDBRANCH  20  22
ENDBRANCH   8  20
BRANCH  11  24
HETATM   24  C   UNL     1      -7.732   7.044  72.233  1.00  0.00    -0.091 A  
HETATM   25  C   UNL     1      -6.709   6.068  72.194  1.00  0.00    -0.068 A  
HETATM   26  C   UNL     1      -5.927   5.791  73.317  1.00  0.00    -0.047 A  
HETATM   27  C   UNL     1      -6.147   6.486  74.500  1.00  0.00    -0.069 A  
HETATM   28  C   UNL     1      -7.134   7.470  74.553  1.00  0.00    -0.132 A  
HETATM   29  C   UNL     1      -7.918   7.754  73.429  1.00  0.00    -0.147 A  
HETATM   30 CL   UNL     1      -9.094   9.008  73.588  1.00  0.00     1.259 Cl 
ENDBRANCH  11  24
ENDBRANCH   4   6
ENDBRANCH   3   4
ENDBRANCH   2   3
TORSDOF 10
ENDMDL
MODEL      210
REMARK 921   NORMALIZED FREE ENERGY PREDICTED BY IDOCK:    4.13 KCAL/MOL
REMARK 922        TOTAL FREE ENERGY PREDICTED BY IDOCK:    4.82 KCAL/MOL
REMARK 923 INTER-LIGAND FREE ENERGY PREDICTED BY IDOCK:   -0.83 KCAL/MOL
REMARK 924 INTRA-LIGAND FREE ENERGY PREDICTED BY IDOCK:    5.64 KCAL/MOL
REMARK 927      BINDING AFFINITY PREDICTED BY RF-SCORE:    0.00 PKD
ROOT
HETATM    1  C   UNL     1      -6.059  10.506  68.781  1.00  0.00    -0.040 C  
HETATM    2  C   UNL     1      -6.714   9.419  69.609  1.00  0.00    -0.048 C  
ENDROOT
BRANCH   2   3
HETATM    3  O   UNL     1      -6.890   8.320  68.721  1.00  0.00    -0.059 OA 
BRANCH   3   4
HETATM    4  C   UNL     1      -8.123   8.052  68.233  1.00  0.00    -0.126 C  
HETATM    5  O   UNL     1      -9.011   8.865  68.041  1.00  0.00    -0.139 OA 
BRANCH   4   6
HETATM    6  C   UNL     1      -8.142   6.634  67.769  1.00  0.00    -0.116 C  
HETATM    7  C   UNL     1      -7.928   5.595  68.616  1.00  0.00    -0.100 C  
HETATM    8  C   UNL     1      -8.229   4.915  65.853  1.00  0.00    -0.113 C  
HETATM    9  N   UNL     1      -7.903   4.303  68.121  1.00  0.00    -0.078 NA 
HETATM   10  C   UNL     1      -7.972   3.962  66.784  1.00  0.00    -0.096 C  
HETATM   11  C   UNL     1      -8.411   6.389  66.275  1.00  0.00    -0.123 C  
HETATM   12  C   UNL     1      -7.735   2.502  66.485  1.00  0.00    -0.072 C  
BRANCH   7  13
HETATM   13  C   UNL     1      -7.774   5.709  70.131  1.00  0.00    -0.086 C  
BRANCH  13  14
HETATM   14  O   UNL     1      -8.813   5.022  70.833  1.00  0.00    -0.127 OA 
BRANCH  14  15
HETATM   15  C   UNL     1     -10.027   5.779  70.891  1.00  0.00    -0.189 C  
BRANCH  15  16
HETATM   16  C   UNL     1     -10.164   6.629  69.625  1.00  0.00    -0.186 C  
HETATM   17  N   UNL     1     -11.569   6.857  69.282  1.00  0.00    -0.581 NA 
HETATM   18  H2  UNL     1     -12.082   7.267  70.063  1.00  0.00     0.000 HD 
HETATM   19  H1  UNL     1     -11.661   7.424  68.438  1.00  0.00     0.000 HD 
ENDBRANCH  15  16
ENDBRANCH  14  15
ENDBRANCH  13  14
ENDBRANCH   7  13
BRANCH   8  20
HETATM   20  C   UNL     1      -8.272   4.537  64.414  1.00  0.00    -0.108 C  
HETATM   21  O   UNL     1      -7.285   4.370  63.710  1.00  0.00    -0.052 OA 
BRANCH  20  22
HETATM   22  O   UNL     1      -9.550   4.389  63.982  1.00  0.00    -0.139 OA 
HETATM   23  C   UNL     1     -10.382   5.515  64.280  1.00  0.00     2.327 C  
ENDBRANCH  20  22
ENDBRANCH   8  20
BRANCH  11  24
HETATM   24  C   UNL     1      -7.657   7.373  65.359  1.00  0.00    -0.096 A  
HETATM   25  C   UNL     1      -8.226   8.654  65.169  1.00  0.00    -0.152 A  
HETATM   26  C   UNL     1      -7.630   9.595  64.326  1.00  0.00    -0.128 A  
HETATM   27  C   UNL     1      -6.453   9.279  63.662  1.00  0.00    -0.092 A  
HETATM   28  C   UNL     1      -5.861   8.030  63.854  1.00  0.00    -0.057 A  
HETATM   29  C   UNL     1      -6.452   7.085  64.700  1.00  0.00    -0.036 A  
HETATM   30 CL   UNL     1      -5.628   5.580  64.894  1.00  0.00    -0.016 Cl 
ENDBRANCH  11  24
ENDBRANCH   4   6
ENDBRANCH   3   4
ENDBRANCH   2   3
TORSDOF 10
ENDMDL
MODEL      211
REMARK 921   NORMALIZED FREE ENERGY PREDICTED BY IDOCK:    4.88 KCAL/MOL
REMARK 922        TOTAL FREE ENERGY PREDICTED BY IDOCK:    6.00 KCAL/MOL
REMARK 923 INTER-LIGAND FREE ENERGY PREDICTED BY IDOCK:   -0.73 KCAL/MOL
REMARK 924 INTRA-LIGAND FREE ENERGY PREDICTED BY IDOCK:    6.73 KCAL/MOL
REMARK 927      BINDING AFFINITY PREDICTED BY RF-SCORE:    0.00 PKD
ROOT
HETATM    1  C   UNL     1      -9.173  15.331  64.814  1.00  0.00     2.417 C  
HETATM    2  C   UNL     1     -10.034  14.358  65.593  1.00  0.00    -0.337 C  
ENDROOT
BRANCH   2   3
HETATM    3  O   UNL     1      -9.820  14.675  66.964  1.00  0.00    -0.236 OA 
BRANCH   3   4
HETATM    4  C   UNL     1      -8.591  14.500  67.502  1.00  0.00    -0.189 C  
HETATM    5  O   UNL     1      -7.676  15.306  67.476  1.00  0.00    -0.143 OA 
BRANCH   4   6
HETATM    6  C   UNL     1      -8.610  13.248  68.312  1.00  0.00    -0.169 C  
HETATM    7  C   UNL     1      -7.471  12.666  68.768  1.00  0.00    -0.044 C  
HETATM    8  C   UNL     1      -9.899  11.245  69.291  1.00  0.00     0.067 C  
HETATM    9  N   UNL     1      -7.545  11.475  69.469  1.00  0.00     0.159 NA 
HETATM   10  C   UNL     1      -8.697  10.739  69.666  1.00  0.00     0.280 C  
HETATM   11  C   UNL     1      -9.985  12.628  68.611  1.00  0.00    -0.106 C  
HETATM   12  C   UNL     1      -8.488   9.384  70.297  1.00  0.00    -0.237 C  
BRANCH   7  13
HETATM   13  C   UNL     1      -6.068  13.253  68.639  1.00  0.00    -0.085 C  
BRANCH  13  14
HETATM   14  O   UNL     1      -5.864  14.366  69.513  1.00  0.00    -0.092 OA 
BRANCH  14  15
HETATM   15  C   UNL     1      -6.281  14.091  70.855  1.00  0.00    -0.049 C  
BRANCH  15  16
HETATM   16  C   UNL     1      -5.156  13.374  71.605  1.00  0.00    -0.178 C  
HETATM   17  N   UNL     1      -5.612  12.869  72.902  1.00  0.00     0.081 NA 
HETATM   18  H2  UNL     1      -6.434  12.272  72.803  1.00  0.00     0.000 HD 
HETATM   19  H1  UNL     1      -4.863  12.391  73.403  1.00  0.00     0.000 HD 
ENDBRANCH  15  16
ENDBRANCH  14  15
ENDBRANCH  13  14
ENDBRANCH   7  13
BRANCH   8  20
HETATM   20  C   UNL     1     -11.128  10.428  69.484  1.00  0.00    -0.264 C  
HETATM   21  O   UNL     1     -11.172   9.208  69.393  1.00  0.00    -0.085 OA 
BRANCH  20  22
HETATM   22  O   UNL     1     -12.196  11.208  69.788  1.00  0.00    -0.315 OA 
HETATM   23  C   UNL     1     -12.273  11.544  71.177  1.00  0.00    -0.182 C  
ENDBRANCH  20  22
ENDBRANCH   8  20
BRANCH  11  24
HETATM   24  C   UNL     1     -10.929  12.640  67.393  1.00  0.00    -0.289 A  
HETATM   25  C   UNL     1     -12.058  13.491  67.450  1.00  0.00    -0.360 A  
HETATM   26  C   UNL     1     -12.985  13.538  66.406  1.00  0.00     0.485 A  
HETATM   27  C   UNL     1     -12.801  12.741  65.284  1.00  0.00    -0.140 A  
HETATM   28  C   UNL     1     -11.682  11.914  65.195  1.00  0.00    -0.244 A  
HETATM   29  C   UNL     1     -10.747  11.866  66.237  1.00  0.00    -0.271 A  
HETATM   30 CL   UNL     1      -9.381  10.832  66.020  1.00  0.00    -0.203 Cl 
ENDBRANCH  11  24
ENDBRANCH   4   6
ENDBRANCH   3   4
ENDBRANCH   2   3
TORSDOF 10
ENDMDL
MODEL      212
REMARK 921   NORMALIZED FREE ENERGY PREDICTED BY IDOCK:    8.36 KCAL/MOL
REMARK 922        TOTAL FREE ENERGY PREDICTED BY IDOCK:   11.51 KCAL/MOL
REMARK 923 INTER-LIGAND FREE ENERGY PREDICTED BY IDOCK:   -4.10 KCAL/MOL
REMARK 924 INTRA-LIGAND FREE ENERGY PREDICTED BY IDOCK:   15.61 KCAL/MOL
REMARK 927      BINDING AFFINITY PREDICTED BY RF-SCORE:    0.00 PKD
ROOT
HETATM    1  C   UNL     1     -12.467  16.030  72.134  1.00  0.00    -0.524 C  
HETATM    2  C   UNL     1     -11.278  15.104  71.973  1.00  0.00    -0.146 C  
ENDROOT
BRANCH   2   3
HETATM    3  O   UNL     1     -10.814  15.309  70.644  1.00  0.00    -0.300 OA 
BRANCH   3   4
HETATM    4  C   UNL     1     -11.527  16.097  69.806  1.00  0.00    -0.282 C  
HETATM    5  O   UNL     1     -11.744  17.288  69.952  1.00  0.00     1.315 OA 
BRANCH   4   6
HETATM    6  C   UNL     1     -11.822  15.315  68.570  1.00  0.00    -0.305 C  
HETATM    7  C   UNL     1     -12.306  14.048  68.616  1.00  0.00    -0.008 C  
HETATM    8  C   UNL     1     -11.703  15.063  66.010  1.00  0.00    -0.094 C  
HETATM    9  N   UNL     1     -12.510  13.350  67.438  1.00  0.00    -0.039 NA 
HETATM   10  C   UNL     1     -12.156  13.795  66.179  1.00  0.00    -0.441 C  
HETATM   11  C   UNL     1     -11.547  16.005  67.223  1.00  0.00     0.304 C  
HETATM   12  C   UNL     1     -12.308  12.776  65.077  1.00  0.00    -0.559 C  
BRANCH   7  13
HETATM   13  C   UNL     1     -12.730  13.311  69.884  1.00  0.00     0.233 C  
BRANCH  13  14
HETATM   14  O   UNL     1     -11.701  12.452  70.381  1.00  0.00    -0.234 OA 
BRANCH  14  15
HETATM   15  C   UNL     1     -12.175  11.127  70.644  1.00  0.00    -0.397 C  
BRANCH  15  16
HETATM   16  C   UNL     1     -12.152  10.306  69.352  1.00  0.00     0.094 C  
HETATM   17  N   UNL     1     -10.792   9.890  69.003  1.00  0.00    -0.240 NA 
HETATM   18  H2  UNL     1     -10.347   9.387  69.772  1.00  0.00     0.000 HD 
HETATM   19  H1  UNL     1     -10.777   9.343  68.142  1.00  0.00     0.000 HD 
ENDBRANCH  15  16
ENDBRANCH  14  15
ENDBRANCH  13  14
ENDBRANCH   7  13
BRANCH   8  20
HETATM   20  C   UNL     1     -11.300  15.518  64.652  1.00  0.00    -0.357 C  
HETATM   21  O   UNL     1     -11.672  16.560  64.130  1.00  0.00    -0.998 OA 
BRANCH  20  22
HETATM   22  O   UNL     1     -10.452  14.635  64.067  1.00  0.00     0.470 OA 
HETATM   23  C   UNL     1     -10.266  13.439  64.831  1.00  0.00    -0.319 C  
ENDBRANCH  20  22
ENDBRANCH   8  20
BRANCH  11  24
HETATM   24  C   UNL     1     -10.220  16.788  67.207  1.00  0.00    -0.292 A  
HETATM   25  C   UNL     1     -10.052  17.805  68.176  1.00  0.00    -0.362 A  
HETATM   26  C   UNL     1      -8.897  18.590  68.212  1.00  0.00    -0.332 A  
HETATM   27  C   UNL     1      -7.886  18.371  67.286  1.00  0.00    -0.234 A  
HETATM   28  C   UNL     1      -8.020  17.357  66.337  1.00  0.00    -0.325 A  
HETATM   29  C   UNL     1      -9.174  16.565  66.300  1.00  0.00    -0.310 A  
HETATM   30 CL   UNL     1      -9.232  15.318  65.107  1.00  0.00     0.578 Cl 
ENDBRANCH  11  24
ENDBRANCH   4   6
ENDBRANCH   3   4
ENDBRANCH   2   3
TORSDOF 10
ENDMDL
MODEL      213
REMARK 921   NORMALIZED FREE ENERGY PREDICTED BY IDOCK:    9.42 KCAL/MOL
REMARK 922        TOTAL FREE ENERGY PREDICTED BY IDOCK:   13.19 KCAL/MOL
REMARK 923 INTER-LIGAND FREE ENERGY PREDICTED BY IDOCK:    6.50 KCAL/MOL
REMARK 924 INTRA-LIGAND FREE ENERGY PREDICTED BY IDOCK:    6.70 KCAL/MOL
REMARK 927      BINDING AFFINITY PREDICTED BY RF-SCORE:    0.00 PKD
ROOT
HETATM    1  C   UNL     1      -6.381  13.082  66.268  1.00  0.00     3.132 C  
HETATM    2  C   UNL     1      -6.127  11.590  66.331  1.00  0.00    -0.022 C  
ENDROOT
BRANCH   2   3
HETATM    3  O   UNL     1      -5.867  11.307  67.701  1.00  0.00    -0.046 OA 
BRANCH   3   4
HETATM    4  C   UNL     1      -6.414  12.093  68.657  1.00  0.00    -0.072 C  
HETATM    5  O   UNL     1      -5.817  12.898  69.351  1.00  0.00    -0.083 OA 
BRANCH   4   6
HETATM    6  C   UNL     1      -7.898  11.964  68.574  1.00  0.00    -0.136 C  
HETATM    7  C   UNL     1      -8.712  13.046  68.481  1.00  0.00    -0.042 C  
HETATM    8  C   UNL     1     -10.020  10.511  68.704  1.00  0.00    -0.188 C  
HETATM    9  N   UNL     1     -10.085  12.870  68.463  1.00  0.00    -0.220 NA 
HETATM   10  C   UNL     1     -10.733  11.663  68.643  1.00  0.00    -0.212 C  
HETATM   11  C   UNL     1      -8.480  10.540  68.607  1.00  0.00    -0.138 C  
HETATM   12  C   UNL     1     -12.234  11.759  68.770  1.00  0.00    -0.024 C  
BRANCH   7  13
HETATM   13  C   UNL     1      -8.245  14.490  68.318  1.00  0.00    -0.149 C  
BRANCH  13  14
HETATM   14  O   UNL     1      -9.313  15.426  68.478  1.00  0.00    -0.187 OA 
BRANCH  14  15
HETATM   15  C   UNL     1     -10.277  15.342  67.423  1.00  0.00    -0.249 C  
BRANCH  15  16
HETATM   16  C   UNL     1      -9.859  16.259  66.271  1.00  0.00    -0.313 C  
HETATM   17  N   UNL     1     -10.530  15.893  65.022  1.00  0.00    -0.559 NA 
HETATM   18  H2  UNL     1     -11.544  15.874  65.134  1.00  0.00     0.000 HD 
HETATM   19  H1  UNL     1     -10.252  16.504  64.254  1.00  0.00     0.000 HD 
ENDBRANCH  15  16
ENDBRANCH  14  15
ENDBRANCH  13  14
ENDBRANCH   7  13
BRANCH   8  20
HETATM   20  C   UNL     1     -10.732   9.223  68.928  1.00  0.00    -0.156 C  
HETATM   21  O   UNL     1     -10.803   8.647  70.005  1.00  0.00    -0.232 OA 
BRANCH  20  22
HETATM   22  O   UNL     1     -11.304   8.771  67.783  1.00  0.00     0.394 OA 
HETATM   23  C   UNL     1     -12.519   8.047  68.007  1.00  0.00     6.715 C  
ENDBRANCH  20  22
ENDBRANCH   8  20
BRANCH  11  24
HETATM   24  C   UNL     1      -7.795   9.634  69.648  1.00  0.00    -0.129 A  
HETATM   25  C   UNL     1      -8.530   9.305  70.811  1.00  0.00    -0.244 A  
HETATM   26  C   UNL     1      -7.974   8.520  71.823  1.00  0.00    -0.177 A  
HETATM   27  C   UNL     1      -6.677   8.042  71.692  1.00  0.00    -0.055 A  
HETATM   28  C   UNL     1      -5.943   8.333  70.542  1.00  0.00    -0.032 A  
HETATM   29  C   UNL     1      -6.497   9.116  69.523  1.00  0.00    -0.043 A  
HETATM   30 CL   UNL     1      -5.519   9.396  68.127  1.00  0.00    -0.037 Cl 
ENDBRANCH  11  24
ENDBRANCH   4   6
ENDBRANCH   3   4
ENDBRANCH   2   3
TORSDOF 10
ENDMDL
MODEL      214
REMARK 921   NORMALIZED FREE ENERGY PREDICTED BY IDOCK:   10.36 KCAL/MOL
REMARK 922        TOTAL FREE ENERGY PREDICTED BY IDOCK:   14.68 KCAL/MOL
REMARK 923 INTER-LIGAND FREE ENERGY PREDICTED BY IDOCK:   -1.73 KCAL/MOL
REMARK 924 INTRA-LIGAND FREE ENERGY PREDICTED BY IDOCK:   16.40 KCAL/MOL
REMARK 927      BINDING AFFINITY PREDICTED BY RF-SCORE:    0.00 PKD
ROOT
HETATM    1  C   UNL     1      -5.989  10.533  68.751  1.00  0.00    -0.040 C  
HETATM    2  C   UNL     1      -6.494   9.211  69.291  1.00  0.00    -0.045 C  
ENDROOT
BRANCH   2   3
HETATM    3  O   UNL     1      -6.264   8.264  68.254  1.00  0.00    -0.048 OA 
BRANCH   3   4
HETATM    4  C   UNL     1      -7.285   7.908  67.441  1.00  0.00    -0.088 C  
HETATM    5  O   UNL     1      -8.284   8.569  67.212  1.00  0.00    -0.107 OA 
BRANCH   4   6
HETATM    6  C   UNL     1      -6.888   6.671  66.708  1.00  0.00    -0.065 C  
HETATM    7  C   UNL     1      -6.501   5.541  67.355  1.00  0.00    -0.051 C  
HETATM    8  C   UNL     1      -6.323   5.471  64.500  1.00  0.00    -0.029 C  
HETATM    9  N   UNL     1      -6.090   4.440  66.624  1.00  0.00    -0.030 NA 
HETATM   10  C   UNL     1      -5.928   4.413  65.252  1.00  0.00    -0.023 C  
HETATM   11  C   UNL     1      -6.925   6.724  65.171  1.00  0.00    -0.055 C  
HETATM   12  C   UNL     1      -5.290   3.157  64.710  1.00  0.00    -0.009 C  
BRANCH   7  13
HETATM   13  C   UNL     1      -6.542   5.333  68.867  1.00  0.00    -0.051 C  
BRANCH  13  14
HETATM   14  O   UNL     1      -7.807   4.834  69.310  1.00  0.00    -0.069 OA 
BRANCH  14  15
HETATM   15  C   UNL     1      -7.747   4.289  70.632  1.00  0.00    -0.052 C  
BRANCH  15  16
HETATM   16  C   UNL     1      -8.541   5.178  71.592  1.00  0.00    -0.129 C  
HETATM   17  N   UNL     1      -9.463   4.393  72.414  1.00  0.00    -0.135 NA 
HETATM   18  H2  UNL     1      -8.976   3.647  72.913  1.00  0.00     0.000 HD 
HETATM   19  H1  UNL     1      -9.992   4.985  73.054  1.00  0.00     0.000 HD 
ENDBRANCH  15  16
ENDBRANCH  14  15
ENDBRANCH  13  14
ENDBRANCH   7  13
BRANCH   8  20
HETATM   20  C   UNL     1      -6.116   5.438  63.027  1.00  0.00    -0.021 C  
HETATM   21  O   UNL     1      -5.389   6.206  62.411  1.00  0.00    -0.020 OA 
BRANCH  20  22
HETATM   22  O   UNL     1      -6.827   4.435  62.451  1.00  0.00    -0.029 OA 
HETATM   23  C   UNL     1      -8.178   4.361  62.917  1.00  0.00    -0.087 C  
ENDBRANCH  20  22
ENDBRANCH   8  20
BRANCH  11  24
HETATM   24  C   UNL     1      -6.360   8.040  64.601  1.00  0.00    -0.052 A  
HETATM   25  C   UNL     1      -6.580   9.222  65.347  1.00  0.00    -0.069 A  
HETATM   26  C   UNL     1      -6.136  10.463  64.887  1.00  0.00    -0.108 A  
HETATM   27  C   UNL     1      -5.458  10.549  63.678  1.00  0.00    -0.149 A  
HETATM   28  C   UNL     1      -5.207   9.393  62.938  1.00  0.00    -0.071 A  
HETATM   29  C   UNL     1      -5.647   8.145  63.397  1.00  0.00    -0.062 A  
HETATM   30 CL   UNL     1      -5.264   6.771  62.425  1.00  0.00    -0.030 Cl 
ENDBRANCH  11  24
ENDBRANCH   4   6
ENDBRANCH   3   4
ENDBRANCH   2   3
TORSDOF 10
ENDMDL
MODEL      215
REMARK 921   NORMALIZED FREE ENERGY PREDICTED BY IDOCK:   14.02 KCAL/MOL
REMARK 922        TOTAL FREE ENERGY PREDICTED BY IDOCK:   20.49 KCAL/MOL
REMARK 923 INTER-LIGAND FREE ENERGY PREDICTED BY IDOCK:    7.41 KCAL/MOL
REMARK 924 INTRA-LIGAND FREE ENERGY PREDICTED BY IDOCK:   13.07 KCAL/MOL
REMARK 927      BINDING AFFINITY PREDICTED BY RF-SCORE:    0.00 PKD
ROOT
HETATM    1  C   UNL     1      -7.063  11.524  71.956  1.00  0.00     7.183 C  
HETATM    2  C   UNL     1      -5.620  11.068  71.873  1.00  0.00     0.516 C  
ENDROOT
BRANCH   2   3
HETATM    3  O   UNL     1      -5.477  10.497  70.578  1.00  0.00    -0.059 OA 
BRANCH   3   4
HETATM    4  C   UNL     1      -6.582  10.171  69.869  1.00  0.00    -0.100 C  
HETATM    5  O   UNL     1      -6.644  10.033  68.659  1.00  0.00    -0.049 OA 
BRANCH   4   6
HETATM    6  C   UNL     1      -7.661   9.803  70.832  1.00  0.00     0.251 C  
HETATM    7  C   UNL     1      -7.423   9.029  71.921  1.00  0.00     0.175 C  
HETATM    8  C   UNL     1     -10.154   9.754  71.475  1.00  0.00     0.614 C  
HETATM    9  N   UNL     1      -8.472   8.673  72.751  1.00  0.00    -0.418 NA 
HETATM   10  C   UNL     1      -9.804   8.952  72.511  1.00  0.00     0.154 C  
HETATM   11  C   UNL     1      -9.074  10.334  70.537  1.00  0.00     0.823 C  
HETATM   12  C   UNL     1     -10.774   8.296  73.463  1.00  0.00     1.008 C  
BRANCH   7  13
HETATM   13  C   UNL     1      -6.048   8.550  72.379  1.00  0.00    -0.071 C  
BRANCH  13  14
HETATM   14  O   UNL     1      -5.339   7.868  71.342  1.00  0.00    -0.033 OA 
BRANCH  14  15
HETATM   15  C   UNL     1      -6.016   6.685  70.904  1.00  0.00    -0.028 C  
BRANCH  15  16
HETATM   16  C   UNL     1      -6.106   5.686  72.060  1.00  0.00    -0.038 C  
HETATM   17  N   UNL     1      -5.747   6.307  73.336  1.00  0.00    -0.044 NA 
HETATM   18  H2  UNL     1      -6.310   7.139  73.518  1.00  0.00     0.000 HD 
HETATM   19  H1  UNL     1      -5.807   5.641  74.107  1.00  0.00     0.000 HD 
ENDBRANCH  15  16
ENDBRANCH  14  15
ENDBRANCH  13  14
ENDBRANCH   7  13
BRANCH   8  20
HETATM   20  C   UNL     1     -11.595  10.021  71.212  1.00  0.00    -0.350 C  
HETATM   21  O   UNL     1     -12.016  10.926  70.505  1.00  0.00    -0.313 OA 
BRANCH  20  22
HETATM   22  O   UNL     1     -12.387   9.121  71.849  1.00  0.00    -0.342 OA 
HETATM   23  C   UNL     1     -12.720   7.989  71.040  1.00  0.00    -0.032 C  
ENDBRANCH  20  22
ENDBRANCH   8  20
BRANCH  11  24
HETATM   24  C   UNL     1      -9.456  10.234  69.047  1.00  0.00    -0.206 A  
HETATM   25  C   UNL     1     -10.317   9.179  68.664  1.00  0.00    -0.233 A  
HETATM   26  C   UNL     1     -10.685   8.990  67.330  1.00  0.00    -0.222 A  
HETATM   27  C   UNL     1     -10.206   9.854  66.353  1.00  0.00    -0.292 A  
HETATM   28  C   UNL     1      -9.376  10.916  66.712  1.00  0.00    -0.185 A  
HETATM   29  C   UNL     1      -9.007  11.112  68.049  1.00  0.00    -0.149 A  
HETATM   30 CL   UNL     1      -8.000  12.471  68.395  1.00  0.00    -0.148 Cl 
ENDBRANCH  11  24
ENDBRANCH   4   6
ENDBRANCH   3   4
ENDBRANCH   2   3
TORSDOF 10
ENDMDL
MODEL      216
REMARK 921   NORMALIZED FREE ENERGY PREDICTED BY IDOCK:   14.61 KCAL/MOL
REMARK 922        TOTAL FREE ENERGY PREDICTED BY IDOCK:   21.41 KCAL/MOL
REMARK 923 INTER-LIGAND FREE ENERGY PREDICTED BY IDOCK:    2.05 KCAL/MOL
REMARK 924 INTRA-LIGAND FREE ENERGY PREDICTED BY IDOCK:   19.36 KCAL/MOL
REMARK 927      BINDING AFFINITY PREDICTED BY RF-SCORE:    0.00 PKD
ROOT
HETATM    1  C   UNL     1     -10.047   7.992  72.702  1.00  0.00    -0.370 C  
HETATM    2  C   UNL     1      -8.950   8.433  71.755  1.00  0.00    -0.198 C  
ENDROOT
BRANCH   2   3
HETATM    3  O   UNL     1      -8.336   7.232  71.300  1.00  0.00    -0.110 OA 
BRANCH   3   4
HETATM    4  C   UNL     1      -7.092   7.282  70.770  1.00  0.00    -0.065 C  
HETATM    5  O   UNL     1      -6.067   6.898  71.307  1.00  0.00    -0.036 OA 
BRANCH   4   6
HETATM    6  C   UNL     1      -7.211   7.689  69.339  1.00  0.00    -0.081 C  
HETATM    7  C   UNL     1      -6.878   6.854  68.322  1.00  0.00    -0.074 C  
HETATM    8  C   UNL     1      -7.638   9.507  67.566  1.00  0.00    -0.095 C  
HETATM    9  N   UNL     1      -6.956   7.303  67.015  1.00  0.00    -0.079 NA 
HETATM   10  C   UNL     1      -7.249   8.599  66.636  1.00  0.00    -0.081 C  
HETATM   11  C   UNL     1      -7.724   9.111  69.055  1.00  0.00    -0.078 C  
HETATM   12  C   UNL     1      -7.088   8.885  65.163  1.00  0.00    -0.084 C  
BRANCH   7  13
HETATM   13  C   UNL     1      -6.477   5.389  68.477  1.00  0.00    -0.040 C  
BRANCH  13  14
HETATM   14  O   UNL     1      -6.296   4.741  67.216  1.00  0.00    -0.038 OA 
BRANCH  14  15
HETATM   15  C   UNL     1      -7.323   5.074  66.277  1.00  0.00    -0.082 C  
BRANCH  15  16
HETATM   16  C   UNL     1      -8.474   4.072  66.395  1.00  0.00    -0.109 C  
HETATM   17  N   UNL     1      -8.013   2.698  66.185  1.00  0.00    -0.081 NA 
HETATM   18  H2  UNL     1      -7.246   2.461  66.815  1.00  0.00     0.000 HD 
HETATM   19  H1  UNL     1      -8.780   2.029  66.264  1.00  0.00     0.000 HD 
ENDBRANCH  15  16
ENDBRANCH  14  15
ENDBRANCH  13  14
ENDBRANCH   7  13
BRANCH   8  20
HETATM   20  C   UNL     1      -7.922  10.906  67.146  1.00  0.00    -0.127 C  
HETATM   21  O   UNL     1      -7.806  11.886  67.871  1.00  0.00    -0.121 OA 
BRANCH  20  22
HETATM   22  O   UNL     1      -8.316  10.962  65.849  1.00  0.00    -0.163 OA 
HETATM   23  C   UNL     1      -9.525  11.704  65.656  1.00  0.00    -0.209 C  
ENDBRANCH  20  22
ENDBRANCH   8  20
BRANCH  11  24
HETATM   24  C   UNL     1      -7.114  10.169  69.995  1.00  0.00    -0.156 A  
HETATM   25  C   UNL     1      -6.591  11.343  69.402  1.00  0.00    -0.119 A  
HETATM   26  C   UNL     1      -5.986  12.338  70.174  1.00  0.00    -0.148 A  
HETATM   27  C   UNL     1      -5.897  12.184  71.551  1.00  0.00     0.794 A  
HETATM   28  C   UNL     1      -6.428  11.046  72.159  1.00  0.00     3.123 A  
HETATM   29  C   UNL     1      -7.039  10.048  71.390  1.00  0.00     0.982 A  
HETATM   30 CL   UNL     1      -7.691   8.692  72.238  1.00  0.00    -0.107 Cl 
ENDBRANCH  11  24
ENDBRANCH   4   6
ENDBRANCH   3   4
ENDBRANCH   2   3
TORSDOF 10
ENDMDL
MODEL      217
REMARK 921   NORMALIZED FREE ENERGY PREDICTED BY IDOCK:   15.43 KCAL/MOL
REMARK 922        TOTAL FREE ENERGY PREDICTED BY IDOCK:   22.71 KCAL/MOL
REMARK 923 INTER-LIGAND FREE ENERGY PREDICTED BY IDOCK:   18.21 KCAL/MOL
REMARK 924 INTRA-LIGAND FREE ENERGY PREDICTED BY IDOCK:    4.50 KCAL/MOL
REMARK 927      BINDING AFFINITY PREDICTED BY RF-SCORE:    0.00 PKD
ROOT
HETATM    1  C   UNL     1      -6.300   9.351  70.146  1.00  0.00    -0.058 C  
HETATM    2  C   UNL     1      -7.629  10.077  70.096  1.00  0.00    -0.155 C  
ENDROOT
BRANCH   2   3
HETATM    3  O   UNL     1      -8.081   9.949  68.753  1.00  0.00    -0.095 OA 
BRANCH   3   4
HETATM    4  C   UNL     1      -8.402  11.061  68.052  1.00  0.00    -0.125 C  
HETATM    5  O   UNL     1      -8.409  12.203  68.481  1.00  0.00    -0.152 OA 
BRANCH   4   6
HETATM    6  C   UNL     1      -8.540  10.683  66.615  1.00  0.00    -0.139 C  
HETATM    7  C   UNL     1      -8.315   9.418  66.177  1.00  0.00    -0.115 C  
HETATM    8  C   UNL     1      -8.880  11.359  64.154  1.00  0.00     0.306 C  
HETATM    9  N   UNL     1      -8.404   9.135  64.825  1.00  0.00    -0.159 NA 
HETATM   10  C   UNL     1      -8.602  10.072  63.829  1.00  0.00    -0.198 C  
HETATM   11  C   UNL     1      -8.944  11.796  65.633  1.00  0.00     0.045 C  
HETATM   12  C   UNL     1      -8.473   9.543  62.422  1.00  0.00    -0.191 C  
BRANCH   7  13
HETATM   13  C   UNL     1      -8.031   8.212  67.070  1.00  0.00    -0.104 C  
BRANCH  13  14
HETATM   14  O   UNL     1      -6.631   7.978  67.235  1.00  0.00    -0.055 OA 
BRANCH  14  15
HETATM   15  C   UNL     1      -6.346   6.639  67.653  1.00  0.00    -0.044 C  
BRANCH  15  16
HETATM   16  C   UNL     1      -6.055   6.621  69.156  1.00  0.00    -0.026 C  
HETATM   17  N   UNL     1      -5.448   5.354  69.571  1.00  0.00    -0.007 NA 
HETATM   18  H2  UNL     1      -4.610   5.146  69.026  1.00  0.00     0.000 HD 
HETATM   19  H1  UNL     1      -5.253   5.342  70.572  1.00  0.00     0.000 HD 
ENDBRANCH  15  16
ENDBRANCH  14  15
ENDBRANCH  13  14
ENDBRANCH   7  13
BRANCH   8  20
HETATM   20  C   UNL     1      -9.063  12.363  63.069  1.00  0.00     1.869 C  
HETATM   21  O   UNL     1      -8.208  13.162  62.712  1.00  0.00     6.062 OA 
BRANCH  20  22
HETATM   22  O   UNL     1     -10.298  12.271  62.515  1.00  0.00     0.693 OA 
HETATM   23  C   UNL     1     -10.889  10.975  62.664  1.00  0.00     0.911 C  
ENDBRANCH  20  22
ENDBRANCH   8  20
BRANCH  11  24
HETATM   24  C   UNL     1      -8.213  13.127  65.899  1.00  0.00     1.796 A  
HETATM   25  C   UNL     1      -6.881  13.057  66.370  1.00  0.00     2.216 A  
HETATM   26  C   UNL     1      -6.157  14.213  66.672  1.00  0.00     2.727 A  
HETATM   27  C   UNL     1      -6.746  15.459  66.504  1.00  0.00     1.587 A  
HETATM   28  C   UNL     1      -8.049  15.552  66.017  1.00  0.00     0.887 A  
HETATM   29  C   UNL     1      -8.778  14.397  65.709  1.00  0.00     1.153 A  
HETATM   30 CL   UNL     1     -10.373  14.617  65.085  1.00  0.00    -0.420 Cl 
ENDBRANCH  11  24
ENDBRANCH   4   6
ENDBRANCH   3   4
ENDBRANCH   2   3
TORSDOF 10
ENDMDL
MODEL      218
REMARK 921   NORMALIZED FREE ENERGY PREDICTED BY IDOCK:   17.46 KCAL/MOL
REMARK 922        TOTAL FREE ENERGY PREDICTED BY IDOCK:   25.93 KCAL/MOL
REMARK 923 INTER-LIGAND FREE ENERGY PREDICTED BY IDOCK:    4.59 KCAL/MOL
REMARK 924 INTRA-LIGAND FREE ENERGY PREDICTED BY IDOCK:   21.33 KCAL/MOL
REMARK 927      BINDING AFFINITY PREDICTED BY RF-SCORE:    0.00 PKD
ROOT
HETATM    1  C   UNL     1      -9.562   8.047  73.255  1.00  0.00    -0.322 C  
HETATM    2  C   UNL     1      -8.614   8.646  72.236  1.00  0.00    -0.105 C  
ENDROOT
BRANCH   2   3
HETATM    3  O   UNL     1      -8.249   7.570  71.379  1.00  0.00    -0.104 OA 
BRANCH   3   4
HETATM    4  C   UNL     1      -7.103   7.652  70.663  1.00  0.00    -0.054 C  
HETATM    5  O   UNL     1      -6.140   6.910  70.764  1.00  0.00    -0.031 OA 
BRANCH   4   6
HETATM    6  C   UNL     1      -7.298   8.665  69.586  1.00  0.00    -0.056 C  
HETATM    7  C   UNL     1      -7.187   8.350  68.270  1.00  0.00    -0.086 C  
HETATM    8  C   UNL     1      -7.624  11.115  68.862  1.00  0.00    -0.133 C  
HETATM    9  N   UNL     1      -7.324   9.342  67.315  1.00  0.00    -0.087 NA 
HETATM   10  C   UNL     1      -7.461  10.691  67.584  1.00  0.00    -0.091 C  
HETATM   11  C   UNL     1      -7.624  10.102  70.027  1.00  0.00    -0.164 C  
HETATM   12  C   UNL     1      -7.401  11.591  66.374  1.00  0.00     0.059 C  
BRANCH   7  13
HETATM   13  C   UNL     1      -6.990   6.942  67.714  1.00  0.00    -0.083 C  
BRANCH  13  14
HETATM   14  O   UNL     1      -6.977   6.922  66.284  1.00  0.00    -0.065 OA 
BRANCH  14  15
HETATM   15  C   UNL     1      -7.904   5.975  65.743  1.00  0.00    -0.104 C  
BRANCH  15  16
HETATM   16  C   UNL     1      -9.295   6.608  65.657  1.00  0.00     0.286 C  
HETATM   17  N   UNL     1      -9.296   7.976  66.181  1.00  0.00    -0.337 NA 
HETATM   18  H2  UNL     1      -8.594   8.553  65.717  1.00  0.00     0.000 HD 
HETATM   19  H1  UNL     1     -10.223   8.398  66.123  1.00  0.00     0.000 HD 
ENDBRANCH  15  16
ENDBRANCH  14  15
ENDBRANCH  13  14
ENDBRANCH   7  13
BRANCH   8  20
HETATM   20  C   UNL     1      -7.741  12.573  69.137  1.00  0.00     0.306 C  
HETATM   21  O   UNL     1      -7.413  13.110  70.187  1.00  0.00     1.168 OA 
BRANCH  20  22
HETATM   22  O   UNL     1      -8.248  13.238  68.069  1.00  0.00    -0.139 OA 
HETATM   23  C   UNL     1      -9.674  13.155  67.977  1.00  0.00    -0.224 C  
ENDBRANCH  20  22
ENDBRANCH   8  20
BRANCH  11  24
HETATM   24  C   UNL     1      -6.780  10.570  71.229  1.00  0.00     1.084 A  
HETATM   25  C   UNL     1      -6.125  11.819  71.120  1.00  0.00     0.796 A  
HETATM   26  C   UNL     1      -5.310  12.303  72.145  1.00  0.00     0.399 A  
HETATM   27  C   UNL     1      -5.138  11.553  73.302  1.00  0.00     0.508 A  
HETATM   28  C   UNL     1      -5.795  10.330  73.441  1.00  0.00     0.985 A  
HETATM   29  C   UNL     1      -6.616   9.842  72.417  1.00  0.00     1.331 A  
HETATM   30 CL   UNL     1      -7.407   8.333  72.697  1.00  0.00    -0.143 Cl 
ENDBRANCH  11  24
ENDBRANCH   4   6
ENDBRANCH   3   4
ENDBRANCH   2   3
TORSDOF 10
ENDMDL
MODEL      219
REMARK 921   NORMALIZED FREE ENERGY PREDICTED BY IDOCK:   21.02 KCAL/MOL
REMARK 922        TOTAL FREE ENERGY PREDICTED BY IDOCK:   31.58 KCAL/MOL
REMARK 923 INTER-LIGAND FREE ENERGY PREDICTED BY IDOCK:    1.91 KCAL/MOL
REMARK 924 INTRA-LIGAND FREE ENERGY PREDICTED BY IDOCK:   29.67 KCAL/MOL
REMARK 927      BINDING AFFINITY PREDICTED BY RF-SCORE:    0.00 PKD
ROOT
HETATM    1  C   UNL     1     -11.604  13.386  69.612  1.00  0.00    -0.334 C  
HETATM    2  C   UNL     1     -11.600  14.596  68.701  1.00  0.00    -0.314 C  
ENDROOT
BRANCH   2   3
HETATM    3  O   UNL     1     -10.277  15.117  68.767  1.00  0.00    -0.220 OA 
BRANCH   3   4
HETATM    4  C   UNL     1      -9.998  16.108  69.644  1.00  0.00    -0.179 C  
HETATM    5  O   UNL     1     -10.247  16.101  70.838  1.00  0.00     0.624 OA 
BRANCH   4   6
HETATM    6  C   UNL     1      -9.146  17.118  68.951  1.00  0.00    -0.192 C  
HETATM    7  C   UNL     1      -9.582  18.379  68.700  1.00  0.00    -0.340 C  
HETATM    8  C   UNL     1      -7.006  17.714  67.648  1.00  0.00    -0.186 C  
HETATM    9  N   UNL     1      -8.770  19.258  68.005  1.00  0.00    -0.307 NA 
HETATM   10  C   UNL     1      -7.558  18.933  67.427  1.00  0.00    -0.230 C  
HETATM   11  C   UNL     1      -7.740  16.670  68.517  1.00  0.00    -0.215 C  
HETATM   12  C   UNL     1      -6.954  20.013  66.563  1.00  0.00    -0.257 C  
BRANCH   7  13
HETATM   13  C   UNL     1     -10.902  18.970  69.190  1.00  0.00     1.198 C  
BRANCH  13  14
HETATM   14  O   UNL     1     -11.139  18.694  70.572  1.00  0.00     2.393 OA 
BRANCH  14  15
HETATM   15  C   UNL     1     -10.788  17.353  70.931  1.00  0.00     1.508 C  
BRANCH  15  16
HETATM   16  C   UNL     1     -12.021  16.627  71.475  1.00  0.00     0.352 C  
HETATM   17  N   UNL     1     -12.925  16.220  70.398  1.00  0.00    -0.114 NA 
HETATM   18  H2  UNL     1     -12.441  15.659  69.697  1.00  0.00     0.000 HD 
HETATM   19  H1  UNL     1     -13.747  15.736  70.761  1.00  0.00     0.000 HD 
ENDBRANCH  15  16
ENDBRANCH  14  15
ENDBRANCH  13  14
ENDBRANCH   7  13
BRANCH   8  20
HETATM   20  C   UNL     1      -5.714  17.368  66.995  1.00  0.00    -0.153 C  
HETATM   21  O   UNL     1      -5.233  17.971  66.046  1.00  0.00    -0.153 OA 
BRANCH  20  22
HETATM   22  O   UNL     1      -5.128  16.302  67.596  1.00  0.00    -0.117 OA 
HETATM   23  C   UNL     1      -5.625  16.052  68.914  1.00  0.00    -0.108 C  
ENDBRANCH  20  22
ENDBRANCH   8  20
BRANCH  11  24
HETATM   24  C   UNL     1      -7.722  15.257  67.902  1.00  0.00    -0.147 A  
HETATM   25  C   UNL     1      -8.849  14.861  67.145  1.00  0.00    -0.235 A  
HETATM   26  C   UNL     1      -8.933  13.585  66.583  1.00  0.00    -0.133 A  
HETATM   27  C   UNL     1      -7.893  12.683  66.760  1.00  0.00     0.159 A  
HETATM   28  C   UNL     1      -6.761  13.061  67.482  1.00  0.00    -0.156 A  
HETATM   29  C   UNL     1      -6.670  14.340  68.044  1.00  0.00    -0.148 A  
HETATM   30 CL   UNL     1      -5.217  14.723  68.895  1.00  0.00    -0.087 Cl 
ENDBRANCH  11  24
ENDBRANCH   4   6
ENDBRANCH   3   4
ENDBRANCH   2   3
TORSDOF 10
ENDMDL
