MODEL        1
REMARK 921   NORMALIZED FREE ENERGY PREDICTED BY IDOCK:   -6.88 KCAL/MOL
REMARK 922        TOTAL FREE ENERGY PREDICTED BY IDOCK:   -7.85 KCAL/MOL
REMARK 923 INTER-LIGAND FREE ENERGY PREDICTED BY IDOCK:   -7.69 KCAL/MOL
REMARK 924 INTRA-LIGAND FREE ENERGY PREDICTED BY IDOCK:   -0.16 KCAL/MOL
REMARK 927      BINDING AFFINITY PREDICTED BY RF-SCORE:    0.00 PKD
ROOT
HETATM    1  C   UNL     1     -12.027  14.265  67.642  1.00  0.00    -0.400 C  
HETATM    2  C   UNL     1     -11.594  14.483  66.147  1.00  0.00    -0.366 C  
HETATM    3  C   UNL     1     -11.634  13.249  65.292  1.00  0.00    -0.335 C  
HETATM    4  C   UNL     1     -11.304  11.972  66.037  1.00  0.00    -0.398 C  
HETATM    5  C   UNL     1     -10.635  12.086  67.410  1.00  0.00    -0.253 C  
HETATM    6  C   UNL     1     -11.052  13.267  68.353  1.00  0.00    -0.299 C  
HETATM    7  C   UNL     1      -9.665  14.048  68.822  1.00  0.00    -0.123 C  
HETATM    8  C   UNL     1      -9.599  15.616  69.234  1.00  0.00    -0.268 C  
HETATM    9  N   UNL     1     -10.720  16.552  68.782  1.00  0.00    -0.317 NA 
HETATM   10  H   UNL     1     -13.598   9.680  72.261  1.00  0.00     0.000 HD 
HETATM   11  C   UNL     1     -11.890  15.624  68.465  1.00  0.00    -0.237 C  
HETATM   12  C   UNL     1     -12.300  15.280  69.959  1.00  0.00    -0.366 C  
HETATM   13  C   UNL     1     -12.836  13.513  71.703  1.00  0.00    -0.419 A  
HETATM   14  C   UNL     1     -12.299  13.840  70.437  1.00  0.00    -0.423 A  
HETATM   15  O   UNL     1     -13.172   9.892  71.439  1.00  0.00    -0.375 OA 
HETATM   16  C   UNL     1     -11.834  12.820  69.602  1.00  0.00    -0.384 A  
HETATM   17  C   UNL     1     -12.145  11.487  69.946  1.00  0.00    -0.389 A  
HETATM   18  C   UNL     1     -12.774  11.174  71.157  1.00  0.00    -0.408 A  
HETATM   19  C   UNL     1     -13.065  12.176  72.059  1.00  0.00    -0.462 A  
ENDROOT
BRANCH   9  20
HETATM   20  C   UNL     1     -10.304  17.374  67.603  1.00  0.00    -0.355 C  
BRANCH  20  21
HETATM   21  C   UNL     1     -10.602  18.864  67.576  1.00  0.00    -0.524 C  
HETATM   22  C   UNL     1     -10.069  19.842  66.826  1.00  0.00    -0.586 C  
ENDBRANCH  20  21
ENDBRANCH   9  20
TORSDOF 2
ENDMDL
MODEL        2
REMARK 921   NORMALIZED FREE ENERGY PREDICTED BY IDOCK:   -6.71 KCAL/MOL
REMARK 922        TOTAL FREE ENERGY PREDICTED BY IDOCK:   -7.66 KCAL/MOL
REMARK 923 INTER-LIGAND FREE ENERGY PREDICTED BY IDOCK:   -7.25 KCAL/MOL
REMARK 924 INTRA-LIGAND FREE ENERGY PREDICTED BY IDOCK:   -0.40 KCAL/MOL
REMARK 927      BINDING AFFINITY PREDICTED BY RF-SCORE:    0.00 PKD
ROOT
HETATM    1  C   UNL     1     -11.955  13.485  68.934  1.00  0.00    -0.378 C  
HETATM    2  C   UNL     1     -11.829  13.684  70.487  1.00  0.00    -0.277 C  
HETATM    3  C   UNL     1     -11.777  15.116  70.938  1.00  0.00    -0.378 C  
HETATM    4  C   UNL     1     -11.089  16.045  69.959  1.00  0.00    -0.362 C  
HETATM    5  C   UNL     1     -10.234  15.426  68.850  1.00  0.00    -0.219 C  
HETATM    6  C   UNL     1     -10.703  14.077  68.204  1.00  0.00    -0.254 C  
HETATM    7  C   UNL     1      -9.431  13.014  68.282  1.00  0.00    -0.208 C  
HETATM    8  C   UNL     1      -9.597  11.401  68.344  1.00  0.00    -0.197 C  
HETATM    9  N   UNL     1     -10.934  10.807  68.783  1.00  0.00    -0.228 NA 
HETATM   10  H   UNL     1     -11.828  16.583  63.000  1.00  0.00     0.000 HD 
HETATM   11  C   UNL     1     -11.943  11.932  68.570  1.00  0.00    -0.212 C  
HETATM   12  C   UNL     1     -12.024  11.849  66.986  1.00  0.00    -0.024 C  
HETATM   13  C   UNL     1     -11.914  13.045  64.749  1.00  0.00    -0.443 A  
HETATM   14  C   UNL     1     -11.668  13.057  66.141  1.00  0.00    -0.445 A  
HETATM   15  O   UNL     1     -11.594  16.581  63.921  1.00  0.00    -1.175 OA 
HETATM   16  C   UNL     1     -11.165  14.215  66.741  1.00  0.00    -0.330 A  
HETATM   17  C   UNL     1     -11.155  15.406  65.983  1.00  0.00    -0.233 A  
HETATM   18  C   UNL     1     -11.500  15.409  64.626  1.00  0.00    -0.337 A  
HETATM   19  C   UNL     1     -11.821  14.224  63.996  1.00  0.00    -0.267 A  
ENDROOT
BRANCH   9  20
HETATM   20  C   UNL     1     -10.887  10.342  70.205  1.00  0.00    -0.302 C  
BRANCH  20  21
HETATM   21  C   UNL     1     -12.149   9.823  70.875  1.00  0.00    -0.407 C  
HETATM   22  C   UNL     1     -13.000  10.436  71.713  1.00  0.00    -0.580 C  
ENDBRANCH  20  21
ENDBRANCH   9  20
TORSDOF 2
ENDMDL
MODEL        3
REMARK 921   NORMALIZED FREE ENERGY PREDICTED BY IDOCK:   -6.68 KCAL/MOL
REMARK 922        TOTAL FREE ENERGY PREDICTED BY IDOCK:   -7.63 KCAL/MOL
REMARK 923 INTER-LIGAND FREE ENERGY PREDICTED BY IDOCK:   -7.20 KCAL/MOL
REMARK 924 INTRA-LIGAND FREE ENERGY PREDICTED BY IDOCK:   -0.42 KCAL/MOL
REMARK 927      BINDING AFFINITY PREDICTED BY RF-SCORE:    0.00 PKD
ROOT
HETATM    1  C   UNL     1     -11.892  12.013  68.841  1.00  0.00    -0.356 C  
HETATM    2  C   UNL     1     -11.956  12.173  70.403  1.00  0.00    -0.360 C  
HETATM    3  C   UNL     1     -12.613  13.436  70.881  1.00  0.00    -0.406 C  
HETATM    4  C   UNL     1     -12.398  14.626  69.969  1.00  0.00    -0.365 C  
HETATM    5  C   UNL     1     -11.294  14.539  68.911  1.00  0.00    -0.298 C  
HETATM    6  C   UNL     1     -11.034  13.160  68.209  1.00  0.00    -0.278 C  
HETATM    7  C   UNL     1      -9.416  12.821  68.356  1.00  0.00    -0.162 C  
HETATM    8  C   UNL     1      -8.800  11.320  68.378  1.00  0.00    -0.159 C  
HETATM    9  N   UNL     1      -9.717  10.145  68.713  1.00  0.00    -0.165 NA 
HETATM   10  H   UNL     1     -12.938  15.089  62.987  1.00  0.00     0.000 HD 
HETATM   11  C   UNL     1     -11.126  10.670  68.450  1.00  0.00    -0.272 C  
HETATM   12  C   UNL     1     -11.074  10.635  66.864  1.00  0.00    -0.162 C  
HETATM   13  C   UNL     1     -11.427  11.849  64.661  1.00  0.00    -0.345 A  
HETATM   14  C   UNL     1     -11.290  11.908  66.067  1.00  0.00    -0.375 A  
HETATM   15  O   UNL     1     -12.780  15.153  63.921  1.00  0.00    -0.759 OA 
HETATM   16  C   UNL     1     -11.428  13.135  66.721  1.00  0.00    -0.386 A  
HETATM   17  C   UNL     1     -11.944  14.225  65.987  1.00  0.00    -0.412 A  
HETATM   18  C   UNL     1     -12.178  14.131  64.610  1.00  0.00    -0.445 A  
HETATM   19  C   UNL     1     -11.865  12.967  63.938  1.00  0.00    -0.542 A  
ENDROOT
BRANCH   9  20
HETATM   20  C   UNL     1      -9.529   9.689  70.126  1.00  0.00    -0.253 C  
BRANCH  20  21
HETATM   21  C   UNL     1     -10.522   8.721  70.747  1.00  0.00    -0.270 C  
HETATM   22  C   UNL     1     -11.147   8.762  71.935  1.00  0.00    -0.434 C  
ENDBRANCH  20  21
ENDBRANCH   9  20
TORSDOF 2
ENDMDL
MODEL        4
REMARK 921   NORMALIZED FREE ENERGY PREDICTED BY IDOCK:   -6.61 KCAL/MOL
REMARK 922        TOTAL FREE ENERGY PREDICTED BY IDOCK:   -7.55 KCAL/MOL
REMARK 923 INTER-LIGAND FREE ENERGY PREDICTED BY IDOCK:   -7.02 KCAL/MOL
REMARK 924 INTRA-LIGAND FREE ENERGY PREDICTED BY IDOCK:   -0.53 KCAL/MOL
REMARK 927      BINDING AFFINITY PREDICTED BY RF-SCORE:    0.00 PKD
ROOT
HETATM    1  C   UNL     1      -9.533  17.431  68.189  1.00  0.00    -0.288 C  
HETATM    2  C   UNL     1      -9.314  18.858  68.809  1.00  0.00    -0.381 C  
HETATM    3  C   UNL     1     -10.279  19.907  68.337  1.00  0.00    -0.557 C  
HETATM    4  C   UNL     1     -10.734  19.725  66.903  1.00  0.00    -0.541 C  
HETATM    5  C   UNL     1      -9.936  18.775  66.005  1.00  0.00    -0.286 C  
HETATM    6  C   UNL     1      -9.332  17.473  66.637  1.00  0.00    -0.275 C  
HETATM    7  C   UNL     1      -7.716  17.437  66.262  1.00  0.00    -0.340 C  
HETATM    8  C   UNL     1      -6.589  16.699  67.165  1.00  0.00    -0.187 C  
HETATM    9  N   UNL     1      -6.896  16.386  68.629  1.00  0.00    -0.145 NA 
HETATM   10  H   UNL     1     -12.907  13.938  63.580  1.00  0.00     0.000 HD 
HETATM   11  C   UNL     1      -8.420  16.418  68.717  1.00  0.00    -0.249 C  
HETATM   12  C   UNL     1      -8.704  15.033  67.994  1.00  0.00    -0.159 C  
HETATM   13  C   UNL     1      -9.958  13.748  66.198  1.00  0.00    -0.318 A  
HETATM   14  C   UNL     1      -9.553  14.990  66.737  1.00  0.00    -0.260 A  
HETATM   15  O   UNL     1     -12.586  14.776  63.890  1.00  0.00    -0.834 OA 
HETATM   16  C   UNL     1     -10.000  16.175  66.146  1.00  0.00    -0.357 A  
HETATM   17  C   UNL     1     -11.035  16.092  65.191  1.00  0.00    -0.360 A  
HETATM   18  C   UNL     1     -11.508  14.855  64.734  1.00  0.00    -0.410 A  
HETATM   19  C   UNL     1     -10.932  13.688  65.192  1.00  0.00    -0.334 A  
ENDROOT
BRANCH   9  20
HETATM   20  C   UNL     1      -6.249  17.374  69.548  1.00  0.00    -0.249 C  
BRANCH  20  21
HETATM   21  C   UNL     1      -5.528  18.583  68.973  1.00  0.00    -0.200 C  
HETATM   22  C   UNL     1      -5.848  19.886  69.017  1.00  0.00    -0.289 C  
ENDBRANCH  20  21
ENDBRANCH   9  20
TORSDOF 2
ENDMDL
MODEL        5
REMARK 921   NORMALIZED FREE ENERGY PREDICTED BY IDOCK:   -6.58 KCAL/MOL
REMARK 922        TOTAL FREE ENERGY PREDICTED BY IDOCK:   -7.51 KCAL/MOL
REMARK 923 INTER-LIGAND FREE ENERGY PREDICTED BY IDOCK:   -7.17 KCAL/MOL
REMARK 924 INTRA-LIGAND FREE ENERGY PREDICTED BY IDOCK:   -0.34 KCAL/MOL
REMARK 927      BINDING AFFINITY PREDICTED BY RF-SCORE:    0.00 PKD
ROOT
HETATM    1  C   UNL     1      -9.924  14.211  68.760  1.00  0.00    -0.184 C  
HETATM    2  C   UNL     1      -8.878  14.827  67.763  1.00  0.00    -0.175 C  
HETATM    3  C   UNL     1      -8.546  16.271  68.009  1.00  0.00    -0.176 C  
HETATM    4  C   UNL     1      -9.703  17.085  68.551  1.00  0.00    -0.282 C  
HETATM    5  C   UNL     1     -11.114  16.497  68.450  1.00  0.00    -0.333 C  
HETATM    6  C   UNL     1     -11.298  14.951  68.637  1.00  0.00    -0.309 C  
HETATM    7  C   UNL     1     -12.145  14.385  67.327  1.00  0.00    -0.358 C  
HETATM    8  C   UNL     1     -12.032  12.870  66.756  1.00  0.00    -0.350 C  
HETATM    9  N   UNL     1     -10.811  12.028  67.121  1.00  0.00    -0.242 NA 
HETATM   10  H   UNL     1     -14.231  15.584  73.698  1.00  0.00     0.000 HD 
HETATM   11  C   UNL     1     -10.240  12.697  68.369  1.00  0.00    -0.232 C  
HETATM   12  C   UNL     1     -11.337  12.194  69.401  1.00  0.00    -0.311 C  
HETATM   13  C   UNL     1     -13.003  12.756  71.233  1.00  0.00    -0.310 A  
HETATM   14  C   UNL     1     -12.161  13.196  70.187  1.00  0.00    -0.392 A  
HETATM   15  O   UNL     1     -13.724  15.887  72.956  1.00  0.00    -0.591 OA 
HETATM   16  C   UNL     1     -12.039  14.565  69.931  1.00  0.00    -0.389 A  
HETATM   17  C   UNL     1     -12.562  15.467  70.881  1.00  0.00    -0.512 A  
HETATM   18  C   UNL     1     -13.310  15.020  71.977  1.00  0.00    -0.379 A  
HETATM   19  C   UNL     1     -13.580  13.675  72.121  1.00  0.00    -0.632 A  
ENDROOT
BRANCH   9  20
HETATM   20  C   UNL     1      -9.824  11.977  65.996  1.00  0.00    -0.237 C  
BRANCH  20  21
HETATM   21  C   UNL     1     -10.166  12.617  64.660  1.00  0.00    -0.319 C  
HETATM   22  C   UNL     1     -10.183  12.091  63.426  1.00  0.00    -0.457 C  
ENDBRANCH  20  21
ENDBRANCH   9  20
TORSDOF 2
ENDMDL
MODEL        6
REMARK 921   NORMALIZED FREE ENERGY PREDICTED BY IDOCK:   -6.57 KCAL/MOL
REMARK 922        TOTAL FREE ENERGY PREDICTED BY IDOCK:   -7.50 KCAL/MOL
REMARK 923 INTER-LIGAND FREE ENERGY PREDICTED BY IDOCK:   -7.24 KCAL/MOL
REMARK 924 INTRA-LIGAND FREE ENERGY PREDICTED BY IDOCK:   -0.27 KCAL/MOL
REMARK 927      BINDING AFFINITY PREDICTED BY RF-SCORE:    0.00 PKD
ROOT
HETATM    1  C   UNL     1      -9.693  13.673  68.372  1.00  0.00    -0.217 C  
HETATM    2  C   UNL     1      -8.606  13.802  67.245  1.00  0.00    -0.221 C  
HETATM    3  C   UNL     1      -7.637  14.935  67.428  1.00  0.00    -0.232 C  
HETATM    4  C   UNL     1      -8.236  16.155  68.098  1.00  0.00    -0.157 C  
HETATM    5  C   UNL     1      -9.761  16.262  68.180  1.00  0.00    -0.227 C  
HETATM    6  C   UNL     1     -10.595  14.953  68.410  1.00  0.00    -0.244 C  
HETATM    7  C   UNL     1     -11.752  14.881  67.223  1.00  0.00    -0.308 C  
HETATM    8  C   UNL     1     -12.396  13.500  66.663  1.00  0.00    -0.297 C  
HETATM    9  N   UNL     1     -11.647  12.187  66.885  1.00  0.00    -0.476 NA 
HETATM   10  H   UNL     1     -12.322  16.607  73.786  1.00  0.00     0.000 HD 
HETATM   11  C   UNL     1     -10.696  12.478  68.044  1.00  0.00    -0.221 C  
HETATM   12  C   UNL     1     -11.773  12.471  69.210  1.00  0.00    -0.379 C  
HETATM   13  C   UNL     1     -12.785  13.637  71.226  1.00  0.00    -0.443 A  
HETATM   14  C   UNL     1     -11.964  13.701  70.078  1.00  0.00    -0.413 A  
HETATM   15  O   UNL     1     -11.823  16.685  72.982  1.00  0.00    -0.496 OA 
HETATM   16  C   UNL     1     -11.273  14.882  69.790  1.00  0.00    -0.308 A  
HETATM   17  C   UNL     1     -11.223  15.881  70.786  1.00  0.00    -0.398 A  
HETATM   18  C   UNL     1     -11.958  15.767  71.972  1.00  0.00    -0.479 A  
HETATM   19  C   UNL     1     -12.783  14.678  72.166  1.00  0.00    -0.408 A  
ENDROOT
BRANCH   9  20
HETATM   20  C   UNL     1     -10.926  11.751  65.648  1.00  0.00    -0.295 C  
BRANCH  20  21
HETATM   21  C   UNL     1     -11.367  12.275  64.291  1.00  0.00    -0.415 C  
HETATM   22  C   UNL     1     -12.334  11.842  63.466  1.00  0.00    -0.603 C  
ENDBRANCH  20  21
ENDBRANCH   9  20
TORSDOF 2
ENDMDL
MODEL        7
REMARK 921   NORMALIZED FREE ENERGY PREDICTED BY IDOCK:   -6.38 KCAL/MOL
REMARK 922        TOTAL FREE ENERGY PREDICTED BY IDOCK:   -7.29 KCAL/MOL
REMARK 923 INTER-LIGAND FREE ENERGY PREDICTED BY IDOCK:   -6.76 KCAL/MOL
REMARK 924 INTRA-LIGAND FREE ENERGY PREDICTED BY IDOCK:   -0.53 KCAL/MOL
REMARK 927      BINDING AFFINITY PREDICTED BY RF-SCORE:    0.00 PKD
ROOT
HETATM    1  C   UNL     1     -11.910  12.593  66.492  1.00  0.00    -0.463 C  
HETATM    2  C   UNL     1     -12.203  13.718  65.435  1.00  0.00    -0.465 C  
HETATM    3  C   UNL     1     -12.263  13.245  64.010  1.00  0.00    -0.475 C  
HETATM    4  C   UNL     1     -11.332  12.090  63.705  1.00  0.00    -0.536 C  
HETATM    5  C   UNL     1     -10.215  11.776  64.704  1.00  0.00    -0.326 C  
HETATM    6  C   UNL     1     -10.504  11.955  66.235  1.00  0.00    -0.274 C  
HETATM    7  C   UNL     1      -9.307  12.919  66.862  1.00  0.00    -0.240 C  
HETATM    8  C   UNL     1      -9.495  13.873  68.161  1.00  0.00    -0.207 C  
HETATM    9  N   UNL     1     -10.906  14.266  68.597  1.00  0.00    -0.246 NA 
HETATM   10  H   UNL     1     -10.174   6.179  67.307  1.00  0.00     0.000 HD 
HETATM   11  C   UNL     1     -11.812  13.219  67.956  1.00  0.00    -0.355 C  
HETATM   12  C   UNL     1     -11.466  12.013  68.930  1.00  0.00    -0.356 C  
HETATM   13  C   UNL     1     -10.751   9.592  69.205  1.00  0.00    -0.246 A  
HETATM   14  C   UNL     1     -10.888  10.726  68.373  1.00  0.00    -0.276 A  
HETATM   15  O   UNL     1     -10.195   6.950  66.754  1.00  0.00    -0.219 OA 
HETATM   16  C   UNL     1     -10.555  10.630  67.018  1.00  0.00    -0.317 A  
HETATM   17  C   UNL     1     -10.334   9.345  66.478  1.00  0.00    -0.268 A  
HETATM   18  C   UNL     1     -10.302   8.207  67.294  1.00  0.00    -0.303 A  
HETATM   19  C   UNL     1     -10.451   8.336  68.659  1.00  0.00    -0.199 A  
ENDROOT
BRANCH   9  20
HETATM   20  C   UNL     1     -11.245  15.659  68.165  1.00  0.00    -0.345 C  
BRANCH  20  21
HETATM   21  C   UNL     1     -10.251  16.458  67.337  1.00  0.00    -0.281 C  
HETATM   22  C   UNL     1     -10.278  16.798  66.039  1.00  0.00    -0.361 C  
ENDBRANCH  20  21
ENDBRANCH   9  20
TORSDOF 2
ENDMDL
MODEL        8
REMARK 921   NORMALIZED FREE ENERGY PREDICTED BY IDOCK:   -6.34 KCAL/MOL
REMARK 922        TOTAL FREE ENERGY PREDICTED BY IDOCK:   -7.25 KCAL/MOL
REMARK 923 INTER-LIGAND FREE ENERGY PREDICTED BY IDOCK:   -7.04 KCAL/MOL
REMARK 924 INTRA-LIGAND FREE ENERGY PREDICTED BY IDOCK:   -0.21 KCAL/MOL
REMARK 927      BINDING AFFINITY PREDICTED BY RF-SCORE:    0.00 PKD
ROOT
HETATM    1  C   UNL     1      -9.919  13.721  68.633  1.00  0.00    -0.175 C  
HETATM    2  C   UNL     1      -9.088  14.651  67.677  1.00  0.00    -0.193 C  
HETATM    3  C   UNL     1      -9.131  16.112  68.024  1.00  0.00    -0.190 C  
HETATM    4  C   UNL     1     -10.446  16.563  68.626  1.00  0.00    -0.304 C  
HETATM    5  C   UNL     1     -11.661  15.641  68.490  1.00  0.00    -0.378 C  
HETATM    6  C   UNL     1     -11.439  14.090  68.568  1.00  0.00    -0.336 C  
HETATM    7  C   UNL     1     -12.142  13.415  67.225  1.00  0.00    -0.352 C  
HETATM    8  C   UNL     1     -11.658  12.022  66.548  1.00  0.00    -0.314 C  
HETATM    9  N   UNL     1     -10.254  11.499  66.848  1.00  0.00    -0.212 NA 
HETATM   10  H   UNL     1     -14.324  13.607  73.674  1.00  0.00     0.000 HD 
HETATM   11  C   UNL     1      -9.846  12.207  68.137  1.00  0.00    -0.207 C  
HETATM   12  C   UNL     1     -10.754  11.370  69.136  1.00  0.00    -0.229 C  
HETATM   13  C   UNL     1     -12.468  11.361  71.010  1.00  0.00    -0.486 A  
HETATM   14  C   UNL     1     -11.790  12.072  69.994  1.00  0.00    -0.392 A  
HETATM   15  O   UNL     1     -13.928  14.080  72.952  1.00  0.00    -0.617 OA 
HETATM   16  C   UNL     1     -12.028  13.441  69.835  1.00  0.00    -0.408 A  
HETATM   17  C   UNL     1     -12.743  14.113  70.849  1.00  0.00    -0.432 A  
HETATM   18  C   UNL     1     -13.327  13.415  71.913  1.00  0.00    -0.451 A  
HETATM   19  C   UNL     1     -13.241  12.039  71.963  1.00  0.00    -0.481 A  
ENDROOT
BRANCH   9  20
HETATM   20  C   UNL     1      -9.313  11.779  65.718  1.00  0.00    -0.185 C  
BRANCH  20  21
HETATM   21  C   UNL     1      -9.550  11.142  64.358  1.00  0.00    -0.288 C  
HETATM   22  C   UNL     1      -9.892  11.701  63.186  1.00  0.00    -0.407 C  
ENDBRANCH  20  21
ENDBRANCH   9  20
TORSDOF 2
ENDMDL
MODEL        9
REMARK 921   NORMALIZED FREE ENERGY PREDICTED BY IDOCK:   -6.23 KCAL/MOL
REMARK 922        TOTAL FREE ENERGY PREDICTED BY IDOCK:   -7.12 KCAL/MOL
REMARK 923 INTER-LIGAND FREE ENERGY PREDICTED BY IDOCK:   -6.88 KCAL/MOL
REMARK 924 INTRA-LIGAND FREE ENERGY PREDICTED BY IDOCK:   -0.24 KCAL/MOL
REMARK 927      BINDING AFFINITY PREDICTED BY RF-SCORE:    0.00 PKD
ROOT
HETATM    1  C   UNL     1      -8.606  15.579  66.611  1.00  0.00    -0.325 C  
HETATM    2  C   UNL     1      -7.464  16.034  67.590  1.00  0.00    -0.171 C  
HETATM    3  C   UNL     1      -6.354  15.038  67.771  1.00  0.00    -0.176 C  
HETATM    4  C   UNL     1      -6.803  13.593  67.690  1.00  0.00    -0.185 C  
HETATM    5  C   UNL     1      -8.300  13.292  67.802  1.00  0.00    -0.171 C  
HETATM    6  C   UNL     1      -9.319  14.298  67.161  1.00  0.00    -0.233 C  
HETATM    7  C   UNL     1     -10.423  14.707  68.330  1.00  0.00    -0.243 C  
HETATM    8  C   UNL     1     -11.230  16.115  68.367  1.00  0.00    -0.358 C  
HETATM    9  N   UNL     1     -10.684  17.305  67.580  1.00  0.00    -0.321 NA 
HETATM   10  H   UNL     1     -11.025  10.455  63.045  1.00  0.00     0.000 HD 
HETATM   11  C   UNL     1      -9.752  16.685  66.542  1.00  0.00    -0.274 C  
HETATM   12  C   UNL     1     -10.869  16.105  65.573  1.00  0.00    -0.280 C  
HETATM   13  C   UNL     1     -11.792  14.127  64.277  1.00  0.00    -0.420 A  
HETATM   14  C   UNL     1     -10.921  14.619  65.275  1.00  0.00    -0.374 A  
HETATM   15  O   UNL     1     -10.486  10.761  63.764  1.00  0.00    -0.319 OA 
HETATM   16  C   UNL     1     -10.060  13.736  65.933  1.00  0.00    -0.325 A  
HETATM   17  C   UNL     1      -9.912  12.435  65.406  1.00  0.00    -0.253 A  
HETATM   18  C   UNL     1     -10.706  11.984  64.345  1.00  0.00    -0.323 A  
HETATM   19  C   UNL     1     -11.683  12.805  63.821  1.00  0.00    -0.562 A  
ENDROOT
BRANCH   9  20
HETATM   20  C   UNL     1      -9.979  18.276  68.475  1.00  0.00    -0.393 C  
BRANCH  20  21
HETATM   21  C   UNL     1     -10.130  19.770  68.239  1.00  0.00    -0.575 C  
HETATM   22  C   UNL     1      -9.700  20.536  67.223  1.00  0.00    -0.600 C  
ENDBRANCH  20  21
ENDBRANCH   9  20
TORSDOF 2
ENDMDL
MODEL       10
REMARK 921   NORMALIZED FREE ENERGY PREDICTED BY IDOCK:   -6.19 KCAL/MOL
REMARK 922        TOTAL FREE ENERGY PREDICTED BY IDOCK:   -7.08 KCAL/MOL
REMARK 923 INTER-LIGAND FREE ENERGY PREDICTED BY IDOCK:   -6.55 KCAL/MOL
REMARK 924 INTRA-LIGAND FREE ENERGY PREDICTED BY IDOCK:   -0.53 KCAL/MOL
REMARK 927      BINDING AFFINITY PREDICTED BY RF-SCORE:    0.00 PKD
ROOT
HETATM    1  C   UNL     1      -9.148  11.695  65.830  1.00  0.00    -0.155 C  
HETATM    2  C   UNL     1      -8.977  10.249  65.240  1.00  0.00    -0.214 C  
HETATM    3  C   UNL     1      -9.211  10.139  63.761  1.00  0.00    -0.321 C  
HETATM    4  C   UNL     1     -10.260  11.094  63.230  1.00  0.00    -0.403 C  
HETATM    5  C   UNL     1     -11.194  11.776  64.234  1.00  0.00    -0.414 C  
HETATM    6  C   UNL     1     -10.618  12.195  65.631  1.00  0.00    -0.297 C  
HETATM    7  C   UNL     1     -11.611  11.554  66.796  1.00  0.00    -0.133 C  
HETATM    8  C   UNL     1     -11.123  11.170  68.296  1.00  0.00    -0.251 C  
HETATM    9  N   UNL     1      -9.633  10.965  68.563  1.00  0.00    -0.180 NA 
HETATM   10  H   UNL     1     -11.142  17.943  64.485  1.00  0.00     0.000 HD 
HETATM   11  C   UNL     1      -8.933  11.680  67.410  1.00  0.00    -0.166 C  
HETATM   12  C   UNL     1      -9.177  13.169  67.904  1.00  0.00    -0.207 C  
HETATM   13  C   UNL     1      -9.994  15.515  67.379  1.00  0.00    -0.234 A  
HETATM   14  C   UNL     1      -9.935  14.148  67.027  1.00  0.00    -0.260 A  
HETATM   15  O   UNL     1     -11.169  17.018  64.272  1.00  0.00    -1.186 OA 
HETATM   16  C   UNL     1     -10.516  13.719  65.830  1.00  0.00    -0.303 A  
HETATM   17  C   UNL     1     -10.920  14.700  64.899  1.00  0.00    -0.419 A  
HETATM   18  C   UNL     1     -10.880  16.064  65.214  1.00  0.00    -0.362 A  
HETATM   19  C   UNL     1     -10.475  16.468  66.469  1.00  0.00    -0.270 A  
ENDROOT
BRANCH   9  20
HETATM   20  C   UNL     1      -9.284   9.510  68.631  1.00  0.00    -0.135 C  
BRANCH  20  21
HETATM   21  C   UNL     1     -10.349   8.462  68.349  1.00  0.00    -0.239 C  
HETATM   22  C   UNL     1     -10.490   7.628  67.307  1.00  0.00    -0.396 C  
ENDBRANCH  20  21
ENDBRANCH   9  20
TORSDOF 2
ENDMDL
MODEL       11
REMARK 921   NORMALIZED FREE ENERGY PREDICTED BY IDOCK:   -6.19 KCAL/MOL
REMARK 922        TOTAL FREE ENERGY PREDICTED BY IDOCK:   -7.08 KCAL/MOL
REMARK 923 INTER-LIGAND FREE ENERGY PREDICTED BY IDOCK:   -6.65 KCAL/MOL
REMARK 924 INTRA-LIGAND FREE ENERGY PREDICTED BY IDOCK:   -0.43 KCAL/MOL
REMARK 927      BINDING AFFINITY PREDICTED BY RF-SCORE:    0.00 PKD
ROOT
HETATM    1  C   UNL     1     -11.363  10.890  68.221  1.00  0.00    -0.374 C  
HETATM    2  C   UNL     1     -11.446  10.769  69.785  1.00  0.00    -0.386 C  
HETATM    3  C   UNL     1     -12.225  11.861  70.463  1.00  0.00    -0.426 C  
HETATM    4  C   UNL     1     -12.126  13.206  69.774  1.00  0.00    -0.336 C  
HETATM    5  C   UNL     1     -11.017  13.411  68.738  1.00  0.00    -0.290 C  
HETATM    6  C   UNL     1     -10.621  12.207  67.814  1.00  0.00    -0.229 C  
HETATM    7  C   UNL     1      -8.978  12.006  67.930  1.00  0.00    -0.182 C  
HETATM    8  C   UNL     1      -8.217  10.590  67.704  1.00  0.00    -0.111 C  
HETATM    9  N   UNL     1      -9.015   9.292  67.813  1.00  0.00    -0.127 NA 
HETATM   10  H   UNL     1     -12.696  14.822  62.968  1.00  0.00     0.000 HD 
HETATM   11  C   UNL     1     -10.468   9.716  67.619  1.00  0.00    -0.261 C  
HETATM   12  C   UNL     1     -10.411   9.963  66.051  1.00  0.00    -0.202 C  
HETATM   13  C   UNL     1     -10.877  11.501  64.086  1.00  0.00    -0.435 A  
HETATM   14  C   UNL     1     -10.749  11.328  65.482  1.00  0.00    -0.283 A  
HETATM   15  O   UNL     1     -12.546  14.738  63.902  1.00  0.00    -0.834 OA 
HETATM   16  C   UNL     1     -11.008  12.404  66.336  1.00  0.00    -0.315 A  
HETATM   17  C   UNL     1     -11.627  13.549  65.792  1.00  0.00    -0.351 A  
HETATM   18  C   UNL     1     -11.848  13.674  64.415  1.00  0.00    -0.424 A  
HETATM   19  C   UNL     1     -11.421  12.681  63.558  1.00  0.00    -0.557 A  
ENDROOT
BRANCH   9  20
HETATM   20  C   UNL     1      -8.786   8.617  69.129  1.00  0.00    -0.137 C  
BRANCH  20  21
HETATM   21  C   UNL     1      -9.626   7.411  69.518  1.00  0.00    -0.155 C  
HETATM   22  C   UNL     1     -10.488   7.246  70.534  1.00  0.00    -0.229 C  
ENDBRANCH  20  21
ENDBRANCH   9  20
TORSDOF 2
ENDMDL
MODEL       12
REMARK 921   NORMALIZED FREE ENERGY PREDICTED BY IDOCK:   -6.17 KCAL/MOL
REMARK 922        TOTAL FREE ENERGY PREDICTED BY IDOCK:   -7.06 KCAL/MOL
REMARK 923 INTER-LIGAND FREE ENERGY PREDICTED BY IDOCK:   -6.88 KCAL/MOL
REMARK 924 INTRA-LIGAND FREE ENERGY PREDICTED BY IDOCK:   -0.18 KCAL/MOL
REMARK 927      BINDING AFFINITY PREDICTED BY RF-SCORE:    0.00 PKD
ROOT
HETATM    1  C   UNL     1      -9.725  14.337  67.516  1.00  0.00    -0.223 C  
HETATM    2  C   UNL     1      -8.718  14.831  68.616  1.00  0.00    -0.178 C  
HETATM    3  C   UNL     1      -7.275  14.527  68.333  1.00  0.00    -0.116 C  
HETATM    4  C   UNL     1      -7.055  13.232  67.578  1.00  0.00    -0.156 C  
HETATM    5  C   UNL     1      -8.210  12.229  67.506  1.00  0.00    -0.170 C  
HETATM    6  C   UNL     1      -9.675  12.778  67.389  1.00  0.00    -0.197 C  
HETATM    7  C   UNL     1     -10.572  12.070  68.593  1.00  0.00    -0.253 C  
HETATM    8  C   UNL     1     -11.884  12.747  69.266  1.00  0.00    -0.303 C  
HETATM    9  N   UNL     1     -12.092  14.255  69.138  1.00  0.00    -0.326 NA 
HETATM   10  H   UNL     1     -10.360  10.713  61.922  1.00  0.00     0.000 HD 
HETATM   11  C   UNL     1     -11.225  14.662  67.949  1.00  0.00    -0.304 C  
HETATM   12  C   UNL     1     -12.153  14.080  66.799  1.00  0.00    -0.480 C  
HETATM   13  C   UNL     1     -12.372  12.652  64.711  1.00  0.00    -0.556 A  
HETATM   14  C   UNL     1     -11.614  13.036  65.841  1.00  0.00    -0.405 A  
HETATM   15  O   UNL     1      -9.870  10.909  62.712  1.00  0.00    -0.289 OA 
HETATM   16  C   UNL     1     -10.337  12.499  66.027  1.00  0.00    -0.277 A  
HETATM   17  C   UNL     1      -9.751  11.790  64.956  1.00  0.00    -0.212 A  
HETATM   18  C   UNL     1     -10.473  11.501  63.792  1.00  0.00    -0.405 A  
HETATM   19  C   UNL     1     -11.797  11.879  63.693  1.00  0.00    -0.573 A  
ENDROOT
BRANCH   9  20
HETATM   20  C   UNL     1     -11.709  14.970  70.396  1.00  0.00    -0.291 C  
BRANCH  20  21
HETATM   21  C   UNL     1     -12.780  15.647  71.237  1.00  0.00    -0.537 C  
HETATM   22  C   UNL     1     -14.016  15.237  71.561  1.00  0.00    -0.627 C  
ENDBRANCH  20  21
ENDBRANCH   9  20
TORSDOF 2
ENDMDL
MODEL       13
REMARK 921   NORMALIZED FREE ENERGY PREDICTED BY IDOCK:   -6.10 KCAL/MOL
REMARK 922        TOTAL FREE ENERGY PREDICTED BY IDOCK:   -6.98 KCAL/MOL
REMARK 923 INTER-LIGAND FREE ENERGY PREDICTED BY IDOCK:   -6.79 KCAL/MOL
REMARK 924 INTRA-LIGAND FREE ENERGY PREDICTED BY IDOCK:   -0.19 KCAL/MOL
REMARK 927      BINDING AFFINITY PREDICTED BY RF-SCORE:    0.00 PKD
ROOT
HETATM    1  C   UNL     1     -11.471  13.112  66.835  1.00  0.00    -0.384 C  
HETATM    2  C   UNL     1     -10.961  13.326  65.364  1.00  0.00    -0.299 C  
HETATM    3  C   UNL     1     -10.695  12.062  64.598  1.00  0.00    -0.355 C  
HETATM    4  C   UNL     1     -10.193  10.917  65.454  1.00  0.00    -0.339 C  
HETATM    5  C   UNL     1      -9.677  11.235  66.861  1.00  0.00    -0.215 C  
HETATM    6  C   UNL     1     -10.389  12.364  67.685  1.00  0.00    -0.223 C  
HETATM    7  C   UNL     1      -9.220  13.425  68.196  1.00  0.00    -0.215 C  
HETATM    8  C   UNL     1      -9.487  14.996  68.499  1.00  0.00    -0.203 C  
HETATM    9  N   UNL     1     -10.722  15.669  67.902  1.00  0.00    -0.286 NA 
HETATM   10  H   UNL     1     -12.533   8.575  71.643  1.00  0.00     0.000 HD 
HETATM   11  C   UNL     1     -11.664  14.516  67.567  1.00  0.00    -0.386 C  
HETATM   12  C   UNL     1     -12.128  14.183  69.048  1.00  0.00    -0.348 C  
HETATM   13  C   UNL     1     -12.466  12.446  70.870  1.00  0.00    -0.367 A  
HETATM   14  C   UNL     1     -11.894  12.800  69.626  1.00  0.00    -0.384 A  
HETATM   15  O   UNL     1     -12.087   8.820  70.841  1.00  0.00    -0.264 OA 
HETATM   16  C   UNL     1     -11.176  11.844  68.902  1.00  0.00    -0.310 A  
HETATM   17  C   UNL     1     -11.257  10.497  69.316  1.00  0.00    -0.320 A  
HETATM   18  C   UNL     1     -11.916  10.137  70.498  1.00  0.00    -0.311 A  
HETATM   19  C   UNL     1     -12.467  11.112  71.303  1.00  0.00    -0.466 A  
ENDROOT
BRANCH   9  20
HETATM   20  C   UNL     1     -10.371  16.489  66.699  1.00  0.00    -0.298 C  
BRANCH  20  21
HETATM   21  C   UNL     1     -10.183  17.992  66.836  1.00  0.00    -0.366 C  
HETATM   22  C   UNL     1     -10.596  18.833  67.797  1.00  0.00    -0.452 C  
ENDBRANCH  20  21
ENDBRANCH   9  20
TORSDOF 2
ENDMDL
MODEL       14
REMARK 921   NORMALIZED FREE ENERGY PREDICTED BY IDOCK:   -6.04 KCAL/MOL
REMARK 922        TOTAL FREE ENERGY PREDICTED BY IDOCK:   -6.91 KCAL/MOL
REMARK 923 INTER-LIGAND FREE ENERGY PREDICTED BY IDOCK:   -6.64 KCAL/MOL
REMARK 924 INTRA-LIGAND FREE ENERGY PREDICTED BY IDOCK:   -0.27 KCAL/MOL
REMARK 927      BINDING AFFINITY PREDICTED BY RF-SCORE:    0.00 PKD
ROOT
HETATM    1  C   UNL     1     -11.027  11.358  66.815  1.00  0.00    -0.347 C  
HETATM    2  C   UNL     1     -10.343  11.289  65.402  1.00  0.00    -0.328 C  
HETATM    3  C   UNL     1      -9.900   9.916  64.982  1.00  0.00    -0.323 C  
HETATM    4  C   UNL     1      -9.445   9.037  66.129  1.00  0.00    -0.318 C  
HETATM    5  C   UNL     1      -9.139   9.702  67.475  1.00  0.00    -0.142 C  
HETATM    6  C   UNL     1     -10.022  10.916  67.931  1.00  0.00    -0.195 C  
HETATM    7  C   UNL     1      -8.997  12.163  68.316  1.00  0.00    -0.186 C  
HETATM    8  C   UNL     1      -9.399  13.733  68.218  1.00  0.00    -0.209 C  
HETATM    9  N   UNL     1     -10.584  14.144  67.345  1.00  0.00    -0.277 NA 
HETATM   10  H   UNL     1     -12.428   7.912  72.382  1.00  0.00     0.000 HD 
HETATM   11  C   UNL     1     -11.401  12.865  67.178  1.00  0.00    -0.306 C  
HETATM   12  C   UNL     1     -12.034  12.825  68.634  1.00  0.00    -0.272 C  
HETATM   13  C   UNL     1     -12.500  11.508  70.754  1.00  0.00    -0.444 A  
HETATM   14  C   UNL     1     -11.793  11.630  69.537  1.00  0.00    -0.414 A  
HETATM   15  O   UNL     1     -11.897   8.013  71.602  1.00  0.00    -0.268 OA 
HETATM   16  C   UNL     1     -10.927  10.607  69.138  1.00  0.00    -0.296 A  
HETATM   17  C   UNL     1     -10.979   9.383  69.838  1.00  0.00    -0.251 A  
HETATM   18  C   UNL     1     -11.763   9.233  70.988  1.00  0.00    -0.311 A  
HETATM   19  C   UNL     1     -12.475  10.308  71.479  1.00  0.00    -0.524 A  
ENDROOT
BRANCH   9  20
HETATM   20  C   UNL     1     -10.129  14.708  66.035  1.00  0.00    -0.311 C  
BRANCH  20  21
HETATM   21  C   UNL     1     -11.154  15.212  65.031  1.00  0.00    -0.428 C  
HETATM   22  C   UNL     1     -12.090  14.544  64.338  1.00  0.00    -0.492 C  
ENDBRANCH  20  21
ENDBRANCH   9  20
TORSDOF 2
ENDMDL
MODEL       15
REMARK 921   NORMALIZED FREE ENERGY PREDICTED BY IDOCK:   -6.03 KCAL/MOL
REMARK 922        TOTAL FREE ENERGY PREDICTED BY IDOCK:   -6.90 KCAL/MOL
REMARK 923 INTER-LIGAND FREE ENERGY PREDICTED BY IDOCK:   -6.50 KCAL/MOL
REMARK 924 INTRA-LIGAND FREE ENERGY PREDICTED BY IDOCK:   -0.40 KCAL/MOL
REMARK 927      BINDING AFFINITY PREDICTED BY RF-SCORE:    0.00 PKD
ROOT
HETATM    1  C   UNL     1     -10.252  12.799  65.889  1.00  0.00    -0.300 C  
HETATM    2  C   UNL     1     -11.013  11.675  65.097  1.00  0.00    -0.326 C  
HETATM    3  C   UNL     1     -11.552  12.099  63.761  1.00  0.00    -0.557 C  
HETATM    4  C   UNL     1     -11.994  13.547  63.706  1.00  0.00    -0.475 C  
HETATM    5  C   UNL     1     -12.191  14.295  65.027  1.00  0.00    -0.438 C  
HETATM    6  C   UNL     1     -11.220  13.985  66.219  1.00  0.00    -0.320 C  
HETATM    7  C   UNL     1     -12.152  13.620  67.543  1.00  0.00    -0.352 C  
HETATM    8  C   UNL     1     -11.669  12.657  68.757  1.00  0.00    -0.323 C  
HETATM    9  N   UNL     1     -10.511  11.688  68.522  1.00  0.00    -0.211 NA 
HETATM   10  H   UNL     1      -8.751  19.322  66.027  1.00  0.00     0.000 HD 
HETATM   11  C   UNL     1      -9.776  12.254  67.310  1.00  0.00    -0.195 C  
HETATM   12  C   UNL     1      -9.071  13.475  68.039  1.00  0.00    -0.201 C  
HETATM   13  C   UNL     1      -8.567  15.963  68.093  1.00  0.00    -0.169 A  
HETATM   14  C   UNL     1      -9.329  14.894  67.570  1.00  0.00    -0.193 A  
HETATM   15  O   UNL     1      -9.317  18.626  65.717  1.00  0.00    -0.416 OA 
HETATM   16  C   UNL     1     -10.270  15.146  66.567  1.00  0.00    -0.283 A  
HETATM   17  C   UNL     1     -10.249  16.410  65.938  1.00  0.00    -0.379 A  
HETATM   18  C   UNL     1      -9.415  17.437  66.395  1.00  0.00    -0.261 A  
HETATM   19  C   UNL     1      -8.620  17.235  67.504  1.00  0.00    -0.213 A  
ENDROOT
BRANCH   9  20
HETATM   20  C   UNL     1     -11.003  10.293  68.295  1.00  0.00    -0.264 C  
BRANCH  20  21
HETATM   21  C   UNL     1     -10.081   9.258  67.670  1.00  0.00    -0.266 C  
HETATM   22  C   UNL     1     -10.351   8.258  66.816  1.00  0.00    -0.361 C  
ENDBRANCH  20  21
ENDBRANCH   9  20
TORSDOF 2
ENDMDL
MODEL       16
REMARK 921   NORMALIZED FREE ENERGY PREDICTED BY IDOCK:   -6.03 KCAL/MOL
REMARK 922        TOTAL FREE ENERGY PREDICTED BY IDOCK:   -6.89 KCAL/MOL
REMARK 923 INTER-LIGAND FREE ENERGY PREDICTED BY IDOCK:   -6.63 KCAL/MOL
REMARK 924 INTRA-LIGAND FREE ENERGY PREDICTED BY IDOCK:   -0.26 KCAL/MOL
REMARK 927      BINDING AFFINITY PREDICTED BY RF-SCORE:    0.00 PKD
ROOT
HETATM    1  C   UNL     1     -10.183  12.362  65.315  1.00  0.00    -0.306 C  
HETATM    2  C   UNL     1     -11.267  11.500  64.573  1.00  0.00    -0.301 C  
HETATM    3  C   UNL     1     -11.992  12.213  63.467  1.00  0.00    -0.619 C  
HETATM    4  C   UNL     1     -12.188  13.695  63.714  1.00  0.00    -0.413 C  
HETATM    5  C   UNL     1     -11.981  14.227  65.135  1.00  0.00    -0.395 C  
HETATM    6  C   UNL     1     -10.850  13.592  66.018  1.00  0.00    -0.275 C  
HETATM    7  C   UNL     1     -11.537  13.134  67.457  1.00  0.00    -0.398 C  
HETATM    8  C   UNL     1     -10.982  11.923  68.385  1.00  0.00    -0.232 C  
HETATM    9  N   UNL     1     -10.075  10.864  67.760  1.00  0.00    -0.174 NA 
HETATM   10  H   UNL     1      -7.620  18.510  65.996  1.00  0.00     0.000 HD 
HETATM   11  C   UNL     1      -9.523  11.525  66.500  1.00  0.00    -0.204 C  
HETATM   12  C   UNL     1      -8.488  12.500  67.208  1.00  0.00    -0.185 C  
HETATM   13  C   UNL     1      -7.576  14.854  67.485  1.00  0.00    -0.218 A  
HETATM   14  C   UNL     1      -8.598  14.000  67.009  1.00  0.00    -0.193 A  
HETATM   15  O   UNL     1      -8.346  17.957  65.732  1.00  0.00    -0.521 OA 
HETATM   16  C   UNL     1      -9.669  14.541  66.294  1.00  0.00    -0.330 A  
HETATM   17  C   UNL     1      -9.568  15.879  65.856  1.00  0.00    -0.378 A  
HETATM   18  C   UNL     1      -8.498  16.694  66.245  1.00  0.00    -0.320 A  
HETATM   19  C   UNL     1      -7.537  16.203  67.104  1.00  0.00    -0.237 A  
ENDROOT
BRANCH   9  20
HETATM   20  C   UNL     1     -10.829   9.605  67.462  1.00  0.00    -0.198 C  
BRANCH  20  21
HETATM   21  C   UNL     1     -10.102   8.410  66.866  1.00  0.00    -0.364 C  
HETATM   22  C   UNL     1     -10.364   7.098  66.965  1.00  0.00    -0.368 C  
ENDBRANCH  20  21
ENDBRANCH   9  20
TORSDOF 2
ENDMDL
MODEL       17
REMARK 921   NORMALIZED FREE ENERGY PREDICTED BY IDOCK:   -5.93 KCAL/MOL
REMARK 922        TOTAL FREE ENERGY PREDICTED BY IDOCK:   -6.78 KCAL/MOL
REMARK 923 INTER-LIGAND FREE ENERGY PREDICTED BY IDOCK:   -6.47 KCAL/MOL
REMARK 924 INTRA-LIGAND FREE ENERGY PREDICTED BY IDOCK:   -0.31 KCAL/MOL
REMARK 927      BINDING AFFINITY PREDICTED BY RF-SCORE:    0.00 PKD
ROOT
HETATM    1  C   UNL     1      -9.450  12.080  65.790  1.00  0.00    -0.186 C  
HETATM    2  C   UNL     1      -9.743  10.716  65.067  1.00  0.00    -0.336 C  
HETATM    3  C   UNL     1     -10.384  10.843  63.715  1.00  0.00    -0.384 C  
HETATM    4  C   UNL     1     -11.319  12.027  63.585  1.00  0.00    -0.536 C  
HETATM    5  C   UNL     1     -11.789  12.723  64.865  1.00  0.00    -0.424 C  
HETATM    6  C   UNL     1     -10.785  12.851  66.063  1.00  0.00    -0.296 C  
HETATM    7  C   UNL     1     -11.536  12.245  67.414  1.00  0.00    -0.425 C  
HETATM    8  C   UNL     1     -10.752  11.590  68.674  1.00  0.00    -0.207 C  
HETATM    9  N   UNL     1      -9.319  11.095  68.482  1.00  0.00    -0.185 NA 
HETATM   10  H   UNL     1     -10.416  18.701  65.558  1.00  0.00     0.000 HD 
HETATM   11  C   UNL     1      -8.825  11.822  67.234  1.00  0.00    -0.167 C  
HETATM   12  C   UNL     1      -8.618  13.254  67.889  1.00  0.00    -0.188 C  
HETATM   13  C   UNL     1      -9.051  15.754  67.802  1.00  0.00    -0.188 A  
HETATM   14  C   UNL     1      -9.368  14.455  67.345  1.00  0.00    -0.199 A  
HETATM   15  O   UNL     1     -10.688  17.831  65.292  1.00  0.00    -0.649 OA 
HETATM   16  C   UNL     1     -10.325  14.294  66.339  1.00  0.00    -0.287 A  
HETATM   17  C   UNL     1     -10.756  15.444  65.642  1.00  0.00    -0.381 A  
HETATM   18  C   UNL     1     -10.356  16.727  66.035  1.00  0.00    -0.335 A  
HETATM   19  C   UNL     1      -9.554  16.887  67.146  1.00  0.00    -0.245 A  
ENDROOT
BRANCH   9  20
HETATM   20  C   UNL     1      -9.268   9.606  68.336  1.00  0.00    -0.133 C  
BRANCH  20  21
HETATM   21  C   UNL     1     -10.469   8.860  67.778  1.00  0.00    -0.300 C  
HETATM   22  C   UNL     1     -10.529   7.727  67.059  1.00  0.00    -0.419 C  
ENDBRANCH  20  21
ENDBRANCH   9  20
TORSDOF 2
ENDMDL
MODEL       18
REMARK 921   NORMALIZED FREE ENERGY PREDICTED BY IDOCK:   -5.90 KCAL/MOL
REMARK 922        TOTAL FREE ENERGY PREDICTED BY IDOCK:   -6.75 KCAL/MOL
REMARK 923 INTER-LIGAND FREE ENERGY PREDICTED BY IDOCK:   -6.40 KCAL/MOL
REMARK 924 INTRA-LIGAND FREE ENERGY PREDICTED BY IDOCK:   -0.35 KCAL/MOL
REMARK 927      BINDING AFFINITY PREDICTED BY RF-SCORE:    0.00 PKD
ROOT
HETATM    1  C   UNL     1      -9.035  15.720  68.586  1.00  0.00    -0.204 C  
HETATM    2  C   UNL     1      -8.408  14.300  68.827  1.00  0.00    -0.095 C  
HETATM    3  C   UNL     1      -6.913  14.286  68.970  1.00  0.00    -0.112 C  
HETATM    4  C   UNL     1      -6.205  15.336  68.139  1.00  0.00    -0.138 C  
HETATM    5  C   UNL     1      -6.989  16.022  67.017  1.00  0.00    -0.209 C  
HETATM    6  C   UNL     1      -8.511  16.327  67.241  1.00  0.00    -0.199 C  
HETATM    7  C   UNL     1      -9.344  15.691  65.955  1.00  0.00    -0.357 C  
HETATM    8  C   UNL     1     -10.888  15.195  66.027  1.00  0.00    -0.335 C  
HETATM    9  N   UNL     1     -11.504  14.877  67.388  1.00  0.00    -0.348 NA 
HETATM   10  H   UNL     1      -7.669  22.150  67.315  1.00  0.00     0.000 HD 
HETATM   11  C   UNL     1     -10.614  15.605  68.392  1.00  0.00    -0.252 C  
HETATM   12  C   UNL     1     -11.133  17.079  68.107  1.00  0.00    -0.163 C  
HETATM   13  C   UNL     1     -10.583  19.499  67.569  1.00  0.00    -0.599 A  
HETATM   14  C   UNL     1     -10.164  18.152  67.646  1.00  0.00    -0.385 A  
HETATM   15  O   UNL     1      -7.392  21.242  67.296  1.00  0.00    -0.484 OA 
HETATM   16  C   UNL     1      -8.833  17.828  67.367  1.00  0.00    -0.240 A  
HETATM   17  C   UNL     1      -7.901  18.882  67.261  1.00  0.00    -0.250 A  
HETATM   18  C   UNL     1      -8.309  20.221  67.289  1.00  0.00    -0.347 A  
HETATM   19  C   UNL     1      -9.650  20.529  67.383  1.00  0.00    -0.578 A  
ENDROOT
BRANCH   9  20
HETATM   20  C   UNL     1     -11.556  13.402  67.635  1.00  0.00    -0.340 C  
BRANCH  20  21
HETATM   21  C   UNL     1     -11.825  12.877  69.036  1.00  0.00    -0.352 C  
HETATM   22  C   UNL     1     -11.721  11.634  69.531  1.00  0.00    -0.410 C  
ENDBRANCH  20  21
ENDBRANCH   9  20
TORSDOF 2
ENDMDL
MODEL       19
REMARK 921   NORMALIZED FREE ENERGY PREDICTED BY IDOCK:   -5.89 KCAL/MOL
REMARK 922        TOTAL FREE ENERGY PREDICTED BY IDOCK:   -6.74 KCAL/MOL
REMARK 923 INTER-LIGAND FREE ENERGY PREDICTED BY IDOCK:   -6.21 KCAL/MOL
REMARK 924 INTRA-LIGAND FREE ENERGY PREDICTED BY IDOCK:   -0.53 KCAL/MOL
REMARK 927      BINDING AFFINITY PREDICTED BY RF-SCORE:    0.00 PKD
ROOT
HETATM    1  C   UNL     1     -11.933  14.018  68.422  1.00  0.00    -0.378 C  
HETATM    2  C   UNL     1     -12.235  13.039  69.613  1.00  0.00    -0.219 C  
HETATM    3  C   UNL     1     -12.475  13.708  70.936  1.00  0.00    -0.448 C  
HETATM    4  C   UNL     1     -11.677  14.981  71.136  1.00  0.00    -0.385 C  
HETATM    5  C   UNL     1     -10.497  15.251  70.199  1.00  0.00    -0.252 C  
HETATM    6  C   UNL     1     -10.617  14.822  68.696  1.00  0.00    -0.255 C  
HETATM    7  C   UNL     1      -9.289  13.897  68.331  1.00  0.00    -0.201 C  
HETATM    8  C   UNL     1      -9.267  12.748  67.184  1.00  0.00    -0.219 C  
HETATM    9  N   UNL     1     -10.590  12.160  66.696  1.00  0.00    -0.230 NA 
HETATM   10  H   UNL     1     -10.665  20.382  66.771  1.00  0.00     0.000 HD 
HETATM   11  C   UNL     1     -11.639  13.197  67.087  1.00  0.00    -0.361 C  
HETATM   12  C   UNL     1     -11.300  14.274  65.971  1.00  0.00    -0.335 C  
HETATM   13  C   UNL     1     -10.766  16.686  65.384  1.00  0.00    -0.228 A  
HETATM   14  C   UNL     1     -10.889  15.680  66.368  1.00  0.00    -0.252 A  
HETATM   15  O   UNL     1     -10.677  19.702  67.433  1.00  0.00    -0.463 OA 
HETATM   16  C   UNL     1     -10.701  16.006  67.715  1.00  0.00    -0.323 A  
HETATM   17  C   UNL     1     -10.642  17.372  68.065  1.00  0.00    -0.389 A  
HETATM   18  C   UNL     1     -10.625  18.375  67.088  1.00  0.00    -0.383 A  
HETATM   19  C   UNL     1     -10.627  18.032  65.752  1.00  0.00    -0.174 A  
ENDROOT
BRANCH   9  20
HETATM   20  C   UNL     1     -10.853  10.820  67.310  1.00  0.00    -0.288 C  
BRANCH  20  21
HETATM   21  C   UNL     1      -9.884  10.254  68.336  1.00  0.00    -0.168 C  
HETATM   22  C   UNL     1     -10.030  10.072  69.658  1.00  0.00    -0.263 C  
ENDBRANCH  20  21
ENDBRANCH   9  20
TORSDOF 2
ENDMDL
MODEL       20
REMARK 921   NORMALIZED FREE ENERGY PREDICTED BY IDOCK:   -5.87 KCAL/MOL
REMARK 922        TOTAL FREE ENERGY PREDICTED BY IDOCK:   -6.72 KCAL/MOL
REMARK 923 INTER-LIGAND FREE ENERGY PREDICTED BY IDOCK:   -6.42 KCAL/MOL
REMARK 924 INTRA-LIGAND FREE ENERGY PREDICTED BY IDOCK:   -0.30 KCAL/MOL
REMARK 927      BINDING AFFINITY PREDICTED BY RF-SCORE:    0.00 PKD
ROOT
HETATM    1  C   UNL     1      -9.916  12.351  65.676  1.00  0.00    -0.261 C  
HETATM    2  C   UNL     1     -10.429  11.380  64.552  1.00  0.00    -0.381 C  
HETATM    3  C   UNL     1     -11.298  12.024  63.510  1.00  0.00    -0.528 C  
HETATM    4  C   UNL     1     -12.159  13.153  64.038  1.00  0.00    -0.511 C  
HETATM    5  C   UNL     1     -12.337  13.282  65.553  1.00  0.00    -0.533 C  
HETATM    6  C   UNL     1     -11.123  12.936  66.484  1.00  0.00    -0.318 C  
HETATM    7  C   UNL     1     -11.652  11.839  67.611  1.00  0.00    -0.364 C  
HETATM    8  C   UNL     1     -10.694  10.748  68.337  1.00  0.00    -0.217 C  
HETATM    9  N   UNL     1      -9.358  10.384  67.691  1.00  0.00    -0.148 NA 
HETATM   10  H   UNL     1     -10.459  18.515  68.235  1.00  0.00     0.000 HD 
HETATM   11  C   UNL     1      -9.055  11.550  66.753  1.00  0.00    -0.181 C  
HETATM   12  C   UNL     1      -8.635  12.609  67.859  1.00  0.00    -0.181 C  
HETATM   13  C   UNL     1      -8.905  14.936  68.840  1.00  0.00    -0.184 A  
HETATM   14  C   UNL     1      -9.389  13.920  67.985  1.00  0.00    -0.204 A  
HETATM   15  O   UNL     1     -10.833  17.818  67.710  1.00  0.00    -0.371 OA 
HETATM   16  C   UNL     1     -10.523  14.159  67.204  1.00  0.00    -0.270 A  
HETATM   17  C   UNL     1     -10.997  15.485  67.109  1.00  0.00    -0.295 A  
HETATM   18  C   UNL     1     -10.445  16.513  67.883  1.00  0.00    -0.313 A  
HETATM   19  C   UNL     1      -9.443  16.230  68.788  1.00  0.00    -0.237 A  
ENDROOT
BRANCH   9  20
HETATM   20  C   UNL     1      -9.437   9.075  66.969  1.00  0.00    -0.163 C  
BRANCH  20  21
HETATM   21  C   UNL     1     -10.621   8.151  67.203  1.00  0.00    -0.355 C  
HETATM   22  C   UNL     1     -10.661   6.821  67.378  1.00  0.00    -0.405 C  
ENDBRANCH  20  21
ENDBRANCH   9  20
TORSDOF 2
ENDMDL
MODEL       21
REMARK 921   NORMALIZED FREE ENERGY PREDICTED BY IDOCK:   -5.84 KCAL/MOL
REMARK 922        TOTAL FREE ENERGY PREDICTED BY IDOCK:   -6.69 KCAL/MOL
REMARK 923 INTER-LIGAND FREE ENERGY PREDICTED BY IDOCK:   -6.33 KCAL/MOL
REMARK 924 INTRA-LIGAND FREE ENERGY PREDICTED BY IDOCK:   -0.36 KCAL/MOL
REMARK 927      BINDING AFFINITY PREDICTED BY RF-SCORE:    0.00 PKD
ROOT
HETATM    1  C   UNL     1      -8.490  16.186  67.095  1.00  0.00    -0.218 C  
HETATM    2  C   UNL     1      -7.314  16.861  67.888  1.00  0.00    -0.176 C  
HETATM    3  C   UNL     1      -6.689  15.999  68.947  1.00  0.00    -0.138 C  
HETATM    4  C   UNL     1      -7.660  15.051  69.621  1.00  0.00    -0.140 C  
HETATM    5  C   UNL     1      -9.160  15.302  69.443  1.00  0.00    -0.228 C  
HETATM    6  C   UNL     1      -9.673  15.841  68.062  1.00  0.00    -0.212 C  
HETATM    7  C   UNL     1     -10.589  17.192  68.360  1.00  0.00    -0.371 C  
HETATM    8  C   UNL     1     -10.786  18.409  67.305  1.00  0.00    -0.353 C  
HETATM    9  N   UNL     1      -9.780  18.576  66.167  1.00  0.00    -0.493 NA 
HETATM   10  H   UNL     1     -12.526  10.852  66.802  1.00  0.00     0.000 HD 
HETATM   11  C   UNL     1      -9.111  17.210  66.042  1.00  0.00    -0.105 C  
HETATM   12  C   UNL     1     -10.313  16.447  65.339  1.00  0.00    -0.287 C  
HETATM   13  C   UNL     1     -11.866  14.438  65.289  1.00  0.00    -0.373 A  
HETATM   14  C   UNL     1     -10.925  15.223  65.994  1.00  0.00    -0.317 A  
HETATM   15  O   UNL     1     -11.948  11.406  67.313  1.00  0.00    -0.580 OA 
HETATM   16  C   UNL     1     -10.509  14.821  67.267  1.00  0.00    -0.264 A  
HETATM   17  C   UNL     1     -10.852  13.522  67.699  1.00  0.00    -0.273 A  
HETATM   18  C   UNL     1     -11.704  12.705  66.946  1.00  0.00    -0.383 A  
HETATM   19  C   UNL     1     -12.256  13.182  65.775  1.00  0.00    -0.514 A  
ENDROOT
BRANCH   9  20
HETATM   20  C   UNL     1      -8.800  19.669  66.458  1.00  0.00    -0.364 C  
BRANCH  20  21
HETATM   21  C   UNL     1      -7.468  19.707  65.725  1.00  0.00    -0.304 C  
HETATM   22  C   UNL     1      -6.304  20.278  66.072  1.00  0.00    -0.232 C  
ENDBRANCH  20  21
ENDBRANCH   9  20
TORSDOF 2
ENDMDL
MODEL       22
REMARK 921   NORMALIZED FREE ENERGY PREDICTED BY IDOCK:   -5.77 KCAL/MOL
REMARK 922        TOTAL FREE ENERGY PREDICTED BY IDOCK:   -6.61 KCAL/MOL
REMARK 923 INTER-LIGAND FREE ENERGY PREDICTED BY IDOCK:   -6.11 KCAL/MOL
REMARK 924 INTRA-LIGAND FREE ENERGY PREDICTED BY IDOCK:   -0.50 KCAL/MOL
REMARK 927      BINDING AFFINITY PREDICTED BY RF-SCORE:    0.00 PKD
ROOT
HETATM    1  C   UNL     1     -10.890   9.940  68.133  1.00  0.00    -0.282 C  
HETATM    2  C   UNL     1     -10.877   9.482  69.636  1.00  0.00    -0.255 C  
HETATM    3  C   UNL     1     -11.823  10.230  70.532  1.00  0.00    -0.419 C  
HETATM    4  C   UNL     1     -12.020  11.681  70.145  1.00  0.00    -0.441 C  
HETATM    5  C   UNL     1     -11.020  12.315  69.174  1.00  0.00    -0.217 C  
HETATM    6  C   UNL     1     -10.438  11.434  68.014  1.00  0.00    -0.215 C  
HETATM    7  C   UNL     1      -8.784  11.546  68.081  1.00  0.00    -0.157 C  
HETATM    8  C   UNL     1      -7.772  10.390  67.557  1.00  0.00    -0.094 C  
HETATM    9  N   UNL     1      -8.295   8.965  67.389  1.00  0.00    -0.108 NA 
HETATM   10  H   UNL     1     -13.199  14.529  63.840  1.00  0.00     0.000 HD 
HETATM   11  C   UNL     1      -9.810   9.120  67.293  1.00  0.00    -0.189 C  
HETATM   12  C   UNL     1      -9.873   9.693  65.814  1.00  0.00    -0.373 C  
HETATM   13  C   UNL     1     -10.718  11.481  64.221  1.00  0.00    -0.416 A  
HETATM   14  C   UNL     1     -10.497  11.051  65.549  1.00  0.00    -0.302 A  
HETATM   15  O   UNL     1     -12.994  14.283  64.734  1.00  0.00    -0.653 OA 
HETATM   16  C   UNL     1     -10.922  11.851  66.613  1.00  0.00    -0.336 A  
HETATM   17  C   UNL     1     -11.777  12.937  66.326  1.00  0.00    -0.457 A  
HETATM   18  C   UNL     1     -12.079  13.299  65.007  1.00  0.00    -0.408 A  
HETATM   19  C   UNL     1     -11.506  12.611  63.958  1.00  0.00    -0.475 A  
ENDROOT
BRANCH   9  20
HETATM   20  C   UNL     1      -7.880   8.091  68.531  1.00  0.00    -0.115 C  
BRANCH  20  21
HETATM   21  C   UNL     1      -7.201   8.704  69.746  1.00  0.00    -0.051 C  
HETATM   22  C   UNL     1      -7.697   9.008  70.956  1.00  0.00    -0.153 C  
ENDBRANCH  20  21
ENDBRANCH   9  20
TORSDOF 2
ENDMDL
MODEL       23
REMARK 921   NORMALIZED FREE ENERGY PREDICTED BY IDOCK:   -5.74 KCAL/MOL
REMARK 922        TOTAL FREE ENERGY PREDICTED BY IDOCK:   -6.57 KCAL/MOL
REMARK 923 INTER-LIGAND FREE ENERGY PREDICTED BY IDOCK:   -6.07 KCAL/MOL
REMARK 924 INTRA-LIGAND FREE ENERGY PREDICTED BY IDOCK:   -0.50 KCAL/MOL
REMARK 927      BINDING AFFINITY PREDICTED BY RF-SCORE:    0.00 PKD
ROOT
HETATM    1  C   UNL     1     -10.274  14.220  69.366  1.00  0.00     0.061 C  
HETATM    2  C   UNL     1     -10.310  15.791  69.335  1.00  0.00    -0.263 C  
HETATM    3  C   UNL     1     -11.100  16.426  70.443  1.00  0.00    -0.246 C  
HETATM    4  C   UNL     1     -12.297  15.613  70.891  1.00  0.00    -0.479 C  
HETATM    5  C   UNL     1     -12.782  14.477  69.986  1.00  0.00    -0.187 C  
HETATM    6  C   UNL     1     -11.717  13.637  69.198  1.00  0.00    -0.376 C  
HETATM    7  C   UNL     1     -12.160  13.639  67.599  1.00  0.00    -0.328 C  
HETATM    8  C   UNL     1     -11.116  13.482  66.366  1.00  0.00    -0.302 C  
HETATM    9  N   UNL     1      -9.635  13.772  66.604  1.00  0.00    -0.280 NA 
HETATM   10  H   UNL     1     -12.792   8.756  72.303  1.00  0.00     0.000 HD 
HETATM   11  C   UNL     1      -9.459  13.658  68.116  1.00  0.00    -0.217 C  
HETATM   12  C   UNL     1      -9.528  12.075  68.219  1.00  0.00    -0.199 C  
HETATM   13  C   UNL     1     -10.544  10.021  69.314  1.00  0.00    -0.249 A  
HETATM   14  C   UNL     1     -10.592  11.413  69.074  1.00  0.00    -0.224 A  
HETATM   15  O   UNL     1     -12.877   9.678  72.095  1.00  0.00    -0.390 OA 
HETATM   16  C   UNL     1     -11.583  12.183  69.689  1.00  0.00    -0.361 A  
HETATM   17  C   UNL     1     -12.344  11.589  70.719  1.00  0.00    -0.472 A  
HETATM   18  C   UNL     1     -12.218  10.228  71.025  1.00  0.00    -0.384 A  
HETATM   19  C   UNL     1     -11.366   9.434  70.287  1.00  0.00    -0.261 A  
ENDROOT
BRANCH   9  20
HETATM   20  C   UNL     1      -9.251  15.122  66.084  1.00  0.00    -0.283 C  
BRANCH  20  21
HETATM   21  C   UNL     1     -10.327  16.089  65.619  1.00  0.00    -0.414 C  
HETATM   22  C   UNL     1     -10.565  17.361  65.978  1.00  0.00    -0.210 C  
ENDBRANCH  20  21
ENDBRANCH   9  20
TORSDOF 2
ENDMDL
MODEL       24
REMARK 921   NORMALIZED FREE ENERGY PREDICTED BY IDOCK:   -5.66 KCAL/MOL
REMARK 922        TOTAL FREE ENERGY PREDICTED BY IDOCK:   -6.48 KCAL/MOL
REMARK 923 INTER-LIGAND FREE ENERGY PREDICTED BY IDOCK:   -6.17 KCAL/MOL
REMARK 924 INTRA-LIGAND FREE ENERGY PREDICTED BY IDOCK:   -0.31 KCAL/MOL
REMARK 927      BINDING AFFINITY PREDICTED BY RF-SCORE:    0.00 PKD
ROOT
HETATM    1  C   UNL     1      -9.518  14.504  68.202  1.00  0.00    -0.208 C  
HETATM    2  C   UNL     1      -9.077  13.010  67.996  1.00  0.00    -0.210 C  
HETATM    3  C   UNL     1      -7.641  12.724  68.335  1.00  0.00    -0.133 C  
HETATM    4  C   UNL     1      -6.700  13.876  68.053  1.00  0.00    -0.146 C  
HETATM    5  C   UNL     1      -7.196  15.016  67.159  1.00  0.00    -0.051 C  
HETATM    6  C   UNL     1      -8.700  15.450  67.260  1.00  0.00    -0.215 C  
HETATM    7  C   UNL     1      -9.333  15.428  65.726  1.00  0.00    -0.265 C  
HETATM    8  C   UNL     1     -10.901  15.175  65.393  1.00  0.00    -0.381 C  
HETATM    9  N   UNL     1     -11.786  14.505  66.444  1.00  0.00    -0.376 NA 
HETATM   10  H   UNL     1      -7.369  20.696  69.568  1.00  0.00     0.000 HD 
HETATM   11  C   UNL     1     -11.037  14.702  67.759  1.00  0.00    -0.298 C  
HETATM   12  C   UNL     1     -11.359  16.243  67.960  1.00  0.00    -0.205 C  
HETATM   13  C   UNL     1     -10.505  18.589  68.424  1.00  0.00    -0.272 A  
HETATM   14  C   UNL     1     -10.230  17.250  68.064  1.00  0.00    -0.332 A  
HETATM   15  O   UNL     1      -7.176  19.820  69.260  1.00  0.00    -0.340 OA 
HETATM   16  C   UNL     1      -8.905  16.847  67.877  1.00  0.00    -0.218 A  
HETATM   17  C   UNL     1      -7.878  17.720  68.296  1.00  0.00    -0.279 A  
HETATM   18  C   UNL     1      -8.163  19.013  68.752  1.00  0.00    -0.334 A  
HETATM   19  C   UNL     1      -9.465  19.468  68.760  1.00  0.00    -0.447 A  
ENDROOT
BRANCH   9  20
HETATM   20  C   UNL     1     -12.015  13.061  66.126  1.00  0.00    -0.427 C  
BRANCH  20  21
HETATM   21  C   UNL     1     -11.701  12.532  64.735  1.00  0.00    -0.411 C  
HETATM   22  C   UNL     1     -12.525  12.154  63.745  1.00  0.00    -0.620 C  
ENDBRANCH  20  21
ENDBRANCH   9  20
TORSDOF 2
ENDMDL
MODEL       25
REMARK 921   NORMALIZED FREE ENERGY PREDICTED BY IDOCK:   -5.65 KCAL/MOL
REMARK 922        TOTAL FREE ENERGY PREDICTED BY IDOCK:   -6.48 KCAL/MOL
REMARK 923 INTER-LIGAND FREE ENERGY PREDICTED BY IDOCK:   -6.27 KCAL/MOL
REMARK 924 INTRA-LIGAND FREE ENERGY PREDICTED BY IDOCK:   -0.21 KCAL/MOL
REMARK 927      BINDING AFFINITY PREDICTED BY RF-SCORE:    0.00 PKD
ROOT
HETATM    1  C   UNL     1     -11.886  12.250  66.451  1.00  0.00    -0.382 C  
HETATM    2  C   UNL     1     -12.329  13.471  65.567  1.00  0.00    -0.524 C  
HETATM    3  C   UNL     1     -12.314  13.216  64.086  1.00  0.00    -0.418 C  
HETATM    4  C   UNL     1     -11.228  12.262  63.636  1.00  0.00    -0.539 C  
HETATM    5  C   UNL     1     -10.083  11.957  64.606  1.00  0.00    -0.301 C  
HETATM    6  C   UNL     1     -10.403  11.859  66.139  1.00  0.00    -0.261 C  
HETATM    7  C   UNL     1      -9.357  12.872  66.935  1.00  0.00    -0.240 C  
HETATM    8  C   UNL     1      -9.684  13.582  68.357  1.00  0.00    -0.207 C  
HETATM    9  N   UNL     1     -11.139  13.705  68.809  1.00  0.00    -0.260 NA 
HETATM   10  H   UNL     1      -9.269   6.088  66.340  1.00  0.00     0.000 HD 
HETATM   11  C   UNL     1     -11.885  12.652  67.994  1.00  0.00    -0.323 C  
HETATM   12  C   UNL     1     -11.378  11.372  68.785  1.00  0.00    -0.334 C  
HETATM   13  C   UNL     1     -10.331   9.060  68.713  1.00  0.00    -0.236 A  
HETATM   14  C   UNL     1     -10.621  10.277  68.056  1.00  0.00    -0.272 A  
HETATM   15  O   UNL     1      -9.396   6.925  65.909  1.00  0.00    -0.049 OA 
HETATM   16  C   UNL     1     -10.271  10.436  66.713  1.00  0.00    -0.282 A  
HETATM   17  C   UNL     1      -9.868   9.291  65.992  1.00  0.00    -0.363 A  
HETATM   18  C   UNL     1      -9.681   8.058  66.628  1.00  0.00    -0.243 A  
HETATM   19  C   UNL     1      -9.854   7.955  67.992  1.00  0.00    -0.195 A  
ENDROOT
BRANCH   9  20
HETATM   20  C   UNL     1     -11.668  15.087  68.582  1.00  0.00    -0.337 C  
BRANCH  20  21
HETATM   21  C   UNL     1     -12.492  15.769  69.661  1.00  0.00    -0.006 C  
HETATM   22  C   UNL     1     -12.474  15.614  70.994  1.00  0.00    -0.501 C  
ENDBRANCH  20  21
ENDBRANCH   9  20
TORSDOF 2
ENDMDL
MODEL       26
REMARK 921   NORMALIZED FREE ENERGY PREDICTED BY IDOCK:   -5.64 KCAL/MOL
REMARK 922        TOTAL FREE ENERGY PREDICTED BY IDOCK:   -6.46 KCAL/MOL
REMARK 923 INTER-LIGAND FREE ENERGY PREDICTED BY IDOCK:   -6.05 KCAL/MOL
REMARK 924 INTRA-LIGAND FREE ENERGY PREDICTED BY IDOCK:   -0.41 KCAL/MOL
REMARK 927      BINDING AFFINITY PREDICTED BY RF-SCORE:    0.00 PKD
ROOT
HETATM    1  C   UNL     1     -10.883   8.975  67.867  1.00  0.00    -0.118 C  
HETATM    2  C   UNL     1     -10.255   7.933  66.872  1.00  0.00    -0.380 C  
HETATM    3  C   UNL     1     -10.667   6.508  67.107  1.00  0.00    -0.438 C  
HETATM    4  C   UNL     1     -10.911   6.169  68.563  1.00  0.00    -0.404 C  
HETATM    5  C   UNL     1     -10.387   7.135  69.630  1.00  0.00    -0.224 C  
HETATM    6  C   UNL     1     -10.426   8.675  69.334  1.00  0.00    -0.224 C  
HETATM    7  C   UNL     1      -8.901   9.274  69.598  1.00  0.00    -0.159 C  
HETATM    8  C   UNL     1      -8.297  10.584  68.855  1.00  0.00    -0.147 C  
HETATM    9  N   UNL     1      -8.939  11.062  67.553  1.00  0.00    -0.137 NA 
HETATM   10  H   UNL     1     -14.497   9.698  73.457  1.00  0.00     0.000 HD 
HETATM   11  C   UNL     1     -10.332  10.440  67.560  1.00  0.00    -0.224 C  
HETATM   12  C   UNL     1     -10.987  11.395  68.646  1.00  0.00    -0.267 C  
HETATM   13  C   UNL     1     -12.311  11.634  70.799  1.00  0.00    -0.454 A  
HETATM   14  C   UNL     1     -11.569  10.814  69.920  1.00  0.00    -0.410 A  
HETATM   15  O   UNL     1     -13.943   9.152  72.913  1.00  0.00    -0.427 OA 
HETATM   16  C   UNL     1     -11.437   9.450  70.198  1.00  0.00    -0.175 A  
HETATM   17  C   UNL     1     -12.254   8.895  71.207  1.00  0.00    -0.351 A  
HETATM   18  C   UNL     1     -13.070   9.702  72.009  1.00  0.00    -0.445 A  
HETATM   19  C   UNL     1     -13.055  11.072  71.846  1.00  0.00    -0.525 A  
ENDROOT
BRANCH   9  20
HETATM   20  C   UNL     1      -8.132  10.648  66.361  1.00  0.00    -0.148 C  
BRANCH  20  21
HETATM   21  C   UNL     1      -8.722  10.778  64.966  1.00  0.00    -0.160 C  
HETATM   22  C   UNL     1      -8.669   9.937  63.921  1.00  0.00    -0.230 C  
ENDBRANCH  20  21
ENDBRANCH   9  20
TORSDOF 2
ENDMDL
MODEL       27
REMARK 921   NORMALIZED FREE ENERGY PREDICTED BY IDOCK:   -5.63 KCAL/MOL
REMARK 922        TOTAL FREE ENERGY PREDICTED BY IDOCK:   -6.45 KCAL/MOL
REMARK 923 INTER-LIGAND FREE ENERGY PREDICTED BY IDOCK:   -5.92 KCAL/MOL
REMARK 924 INTRA-LIGAND FREE ENERGY PREDICTED BY IDOCK:   -0.53 KCAL/MOL
REMARK 927      BINDING AFFINITY PREDICTED BY RF-SCORE:    0.00 PKD
ROOT
HETATM    1  C   UNL     1     -12.205   7.779  70.354  1.00  0.00     0.266 C  
HETATM    2  C   UNL     1     -13.031   6.724  71.174  1.00  0.00    -0.152 C  
HETATM    3  C   UNL     1     -14.349   7.222  71.696  1.00  0.00    -0.583 C  
HETATM    4  C   UNL     1     -14.351   8.692  72.063  1.00  0.00    -0.512 C  
HETATM    5  C   UNL     1     -13.003   9.402  72.217  1.00  0.00    -0.479 C  
HETATM    6  C   UNL     1     -11.828   9.000  71.258  1.00  0.00    -0.379 C  
HETATM    7  C   UNL     1     -10.513   8.637  72.203  1.00  0.00    -0.411 C  
HETATM    8  C   UNL     1      -9.336   7.609  71.766  1.00  0.00    -0.145 C  
HETATM    9  N   UNL     1      -9.610   6.591  70.660  1.00  0.00    -0.172 NA 
HETATM   10  H   UNL     1     -11.846  14.208  68.520  1.00  0.00     0.000 HD 
HETATM   11  C   UNL     1     -10.806   7.160  69.902  1.00  0.00    -0.254 C  
HETATM   12  C   UNL     1     -10.039   8.318  69.132  1.00  0.00    -0.205 C  
HETATM   13  C   UNL     1      -9.900  10.773  68.501  1.00  0.00    -0.182 A  
HETATM   14  C   UNL     1     -10.457   9.764  69.319  1.00  0.00    -0.236 A  
HETATM   15  O   UNL     1     -12.177  13.553  69.122  1.00  0.00    -0.307 OA 
HETATM   16  C   UNL     1     -11.445  10.099  70.249  1.00  0.00    -0.381 A  
HETATM   17  C   UNL     1     -12.029  11.381  70.166  1.00  0.00    -0.460 A  
HETATM   18  C   UNL     1     -11.541  12.348  69.278  1.00  0.00    -0.319 A  
HETATM   19  C   UNL     1     -10.444  12.066  68.491  1.00  0.00    -0.244 A  
ENDROOT
BRANCH   9  20
HETATM   20  C   UNL     1      -9.884   5.231  71.223  1.00  0.00    -0.173 C  
BRANCH  20  21
HETATM   21  C   UNL     1      -9.934   5.031  72.729  1.00  0.00    -0.200 C  
HETATM   22  C   UNL     1     -10.985   4.881  73.550  1.00  0.00    -0.397 C  
ENDBRANCH  20  21
ENDBRANCH   9  20
TORSDOF 2
ENDMDL
MODEL       28
REMARK 921   NORMALIZED FREE ENERGY PREDICTED BY IDOCK:   -5.52 KCAL/MOL
REMARK 922        TOTAL FREE ENERGY PREDICTED BY IDOCK:   -6.33 KCAL/MOL
REMARK 923 INTER-LIGAND FREE ENERGY PREDICTED BY IDOCK:   -5.91 KCAL/MOL
REMARK 924 INTRA-LIGAND FREE ENERGY PREDICTED BY IDOCK:   -0.42 KCAL/MOL
REMARK 927      BINDING AFFINITY PREDICTED BY RF-SCORE:    0.00 PKD
ROOT
HETATM    1  C   UNL     1      -8.542  11.312  66.647  1.00  0.00    -0.167 C  
HETATM    2  C   UNL     1      -7.325  10.325  66.536  1.00  0.00    -0.113 C  
HETATM    3  C   UNL     1      -6.858  10.054  65.134  1.00  0.00    -0.130 C  
HETATM    4  C   UNL     1      -7.967  10.068  64.101  1.00  0.00    -0.152 C  
HETATM    5  C   UNL     1      -9.415   9.987  64.592  1.00  0.00    -0.367 C  
HETATM    6  C   UNL     1      -9.798  10.714  65.928  1.00  0.00    -0.296 C  
HETATM    7  C   UNL     1     -10.551   9.604  66.905  1.00  0.00    -0.241 C  
HETATM    8  C   UNL     1     -10.550   9.672  68.527  1.00  0.00    -0.220 C  
HETATM    9  N   UNL     1      -9.484  10.506  69.235  1.00  0.00    -0.199 NA 
HETATM   10  H   UNL     1     -13.194  14.661  63.187  1.00  0.00     0.000 HD 
HETATM   11  C   UNL     1      -8.986  11.479  68.170  1.00  0.00    -0.172 C  
HETATM   12  C   UNL     1     -10.243  12.448  68.160  1.00  0.00    -0.225 C  
HETATM   13  C   UNL     1     -12.030  13.660  66.824  1.00  0.00    -0.458 A  
HETATM   14  C   UNL     1     -11.029  12.664  66.881  1.00  0.00    -0.297 A  
HETATM   15  O   UNL     1     -12.574  13.943  63.230  1.00  0.00    -0.824 OA 
HETATM   16  C   UNL     1     -10.721  11.931  65.731  1.00  0.00    -0.327 A  
HETATM   17  C   UNL     1     -11.241  12.380  64.498  1.00  0.00    -0.371 A  
HETATM   18  C   UNL     1     -12.155  13.439  64.435  1.00  0.00    -0.416 A  
HETATM   19  C   UNL     1     -12.594  14.038  65.597  1.00  0.00    -0.542 A  
ENDROOT
BRANCH   9  20
HETATM   20  C   UNL     1      -8.389   9.645  69.783  1.00  0.00    -0.174 C  
BRANCH  20  21
HETATM   21  C   UNL     1      -8.455   8.136  69.611  1.00  0.00    -0.126 C  
HETATM   22  C   UNL     1      -7.477   7.247  69.375  1.00  0.00    -0.092 C  
ENDBRANCH  20  21
ENDBRANCH   9  20
TORSDOF 2
ENDMDL
MODEL       29
REMARK 921   NORMALIZED FREE ENERGY PREDICTED BY IDOCK:   -5.50 KCAL/MOL
REMARK 922        TOTAL FREE ENERGY PREDICTED BY IDOCK:   -6.31 KCAL/MOL
REMARK 923 INTER-LIGAND FREE ENERGY PREDICTED BY IDOCK:   -5.94 KCAL/MOL
REMARK 924 INTRA-LIGAND FREE ENERGY PREDICTED BY IDOCK:   -0.37 KCAL/MOL
REMARK 927      BINDING AFFINITY PREDICTED BY RF-SCORE:    0.00 PKD
ROOT
HETATM    1  C   UNL     1      -8.876  14.149  67.097  1.00  0.00    -0.241 C  
HETATM    2  C   UNL     1      -8.187  14.625  68.426  1.00  0.00    -0.154 C  
HETATM    3  C   UNL     1      -7.043  13.767  68.887  1.00  0.00    -0.107 C  
HETATM    4  C   UNL     1      -7.205  12.297  68.558  1.00  0.00    -0.103 C  
HETATM    5  C   UNL     1      -8.592  11.793  68.152  1.00  0.00    -0.160 C  
HETATM    6  C   UNL     1      -9.508  12.729  67.288  1.00  0.00    -0.204 C  
HETATM    7  C   UNL     1     -10.973  12.847  68.059  1.00  0.00    -0.271 C  
HETATM    8  C   UNL     1     -11.968  14.123  67.932  1.00  0.00    -0.343 C  
HETATM    9  N   UNL     1     -11.404  15.461  67.457  1.00  0.00    -0.308 NA 
HETATM   10  H   UNL     1      -9.199   9.225  62.571  1.00  0.00     0.000 HD 
HETATM   11  C   UNL     1     -10.107  15.097  66.738  1.00  0.00    -0.258 C  
HETATM   12  C   UNL     1     -10.755  14.499  65.417  1.00  0.00    -0.372 C  
HETATM   13  C   UNL     1     -10.895  12.590  63.750  1.00  0.00    -0.489 A  
HETATM   14  C   UNL     1     -10.471  13.066  65.011  1.00  0.00    -0.345 A  
HETATM   15  O   UNL     1      -8.968   9.509  63.447  1.00  0.00    -0.235 OA 
HETATM   16  C   UNL     1      -9.727  12.229  65.848  1.00  0.00    -0.247 A  
HETATM   17  C   UNL     1      -9.214  11.032  65.305  1.00  0.00    -0.229 A  
HETATM   18  C   UNL     1      -9.553  10.614  64.012  1.00  0.00    -0.299 A  
HETATM   19  C   UNL     1     -10.437  11.359  63.259  1.00  0.00    -0.397 A  
ENDROOT
BRANCH   9  20
HETATM   20  C   UNL     1     -11.180  16.399  68.601  1.00  0.00    -0.332 C  
BRANCH  20  21
HETATM   21  C   UNL     1     -10.388  17.679  68.388  1.00  0.00    -0.375 C  
HETATM   22  C   UNL     1     -10.609  18.707  67.553  1.00  0.00    -0.472 C  
ENDBRANCH  20  21
ENDBRANCH   9  20
TORSDOF 2
ENDMDL
MODEL       30
REMARK 921   NORMALIZED FREE ENERGY PREDICTED BY IDOCK:   -5.46 KCAL/MOL
REMARK 922        TOTAL FREE ENERGY PREDICTED BY IDOCK:   -6.26 KCAL/MOL
REMARK 923 INTER-LIGAND FREE ENERGY PREDICTED BY IDOCK:   -5.91 KCAL/MOL
REMARK 924 INTRA-LIGAND FREE ENERGY PREDICTED BY IDOCK:   -0.35 KCAL/MOL
REMARK 927      BINDING AFFINITY PREDICTED BY RF-SCORE:    0.00 PKD
ROOT
HETATM    1  C   UNL     1     -10.063  14.339  68.684  1.00  0.00    -0.238 C  
HETATM    2  C   UNL     1     -10.425  15.734  69.310  1.00  0.00    -0.247 C  
HETATM    3  C   UNL     1     -11.071  15.669  70.665  1.00  0.00    -0.382 C  
HETATM    4  C   UNL     1     -11.951  14.454  70.871  1.00  0.00    -0.393 C  
HETATM    5  C   UNL     1     -12.378  13.651  69.639  1.00  0.00    -0.257 C  
HETATM    6  C   UNL     1     -11.359  13.490  68.457  1.00  0.00    -0.327 C  
HETATM    7  C   UNL     1     -12.127  13.966  67.065  1.00  0.00    -0.451 C  
HETATM    8  C   UNL     1     -11.363  14.570  65.767  1.00  0.00    -0.336 C  
HETATM    9  N   UNL     1      -9.957  15.144  65.931  1.00  0.00    -0.304 NA 
HETATM   10  H   UNL     1     -10.722   7.711  69.362  1.00  0.00     0.000 HD 
HETATM   11  C   UNL     1      -9.440  14.527  67.229  1.00  0.00    -0.217 C  
HETATM   12  C   UNL     1      -9.161  13.066  66.674  1.00  0.00    -0.222 C  
HETATM   13  C   UNL     1      -9.477  10.559  66.929  1.00  0.00    -0.191 A  
HETATM   14  C   UNL     1      -9.858  11.870  67.295  1.00  0.00    -0.197 A  
HETATM   15  O   UNL     1     -11.036   8.583  69.567  1.00  0.00    -0.173 OA 
HETATM   16  C   UNL     1     -10.829  12.054  68.283  1.00  0.00    -0.263 A  
HETATM   17  C   UNL     1     -11.213  10.936  69.054  1.00  0.00    -0.327 A  
HETATM   18  C   UNL     1     -10.750   9.649  68.753  1.00  0.00    -0.206 A  
HETATM   19  C   UNL     1      -9.932   9.452  67.659  1.00  0.00    -0.238 A  
ENDROOT
BRANCH   9  20
HETATM   20  C   UNL     1      -9.977  16.640  65.976  1.00  0.00    -0.324 C  
BRANCH  20  21
HETATM   21  C   UNL     1      -8.790  17.396  66.550  1.00  0.00    -0.290 C  
HETATM   22  C   UNL     1      -7.500  17.397  66.177  1.00  0.00    -0.331 C  
ENDBRANCH  20  21
ENDBRANCH   9  20
TORSDOF 2
ENDMDL
MODEL       31
REMARK 921   NORMALIZED FREE ENERGY PREDICTED BY IDOCK:   -5.43 KCAL/MOL
REMARK 922        TOTAL FREE ENERGY PREDICTED BY IDOCK:   -6.23 KCAL/MOL
REMARK 923 INTER-LIGAND FREE ENERGY PREDICTED BY IDOCK:   -5.83 KCAL/MOL
REMARK 924 INTRA-LIGAND FREE ENERGY PREDICTED BY IDOCK:   -0.40 KCAL/MOL
REMARK 927      BINDING AFFINITY PREDICTED BY RF-SCORE:    0.00 PKD
ROOT
HETATM    1  C   UNL     1     -10.028   9.243  66.436  1.00  0.00    -0.356 C  
HETATM    2  C   UNL     1      -9.671   8.294  67.635  1.00  0.00    -0.201 C  
HETATM    3  C   UNL     1     -10.514   8.484  68.864  1.00  0.00    -0.207 C  
HETATM    4  C   UNL     1     -10.962   9.914  69.088  1.00  0.00    -0.233 C  
HETATM    5  C   UNL     1     -10.254  11.026  68.310  1.00  0.00    -0.192 C  
HETATM    6  C   UNL     1      -9.799  10.740  66.836  1.00  0.00    -0.224 C  
HETATM    7  C   UNL     1      -8.190  11.129  66.724  1.00  0.00    -0.154 C  
HETATM    8  C   UNL     1      -7.161  10.446  65.671  1.00  0.00    -0.142 C  
HETATM    9  N   UNL     1      -7.523   9.101  65.043  1.00  0.00    -0.103 NA 
HETATM   10  H   UNL     1     -13.675  14.535  64.556  1.00  0.00     0.000 HD 
HETATM   11  C   UNL     1      -9.036   8.993  65.213  1.00  0.00    -0.183 C  
HETATM   12  C   UNL     1      -9.452  10.031  64.085  1.00  0.00    -0.314 C  
HETATM   13  C   UNL     1     -10.804  12.074  63.419  1.00  0.00    -0.471 A  
HETATM   14  C   UNL     1     -10.280  11.251  64.442  1.00  0.00    -0.377 A  
HETATM   15  O   UNL     1     -13.273  14.032  65.254  1.00  0.00    -0.782 OA 
HETATM   16  C   UNL     1     -10.591  11.527  65.776  1.00  0.00    -0.315 A  
HETATM   17  C   UNL     1     -11.614  12.463  66.039  1.00  0.00    -0.455 A  
HETATM   18  C   UNL     1     -12.207  13.205  65.009  1.00  0.00    -0.440 A  
HETATM   19  C   UNL     1     -11.763  13.054  63.712  1.00  0.00    -0.547 A  
ENDROOT
BRANCH   9  20
HETATM   20  C   UNL     1      -6.790   7.974  65.702  1.00  0.00    -0.056 C  
BRANCH  20  21
HETATM   21  C   UNL     1      -5.925   8.244  66.922  1.00  0.00    -0.053 C  
HETATM   22  C   UNL     1      -5.468   7.404  67.864  1.00  0.00    -0.026 C  
ENDBRANCH  20  21
ENDBRANCH   9  20
TORSDOF 2
ENDMDL
MODEL       32
REMARK 921   NORMALIZED FREE ENERGY PREDICTED BY IDOCK:   -5.43 KCAL/MOL
REMARK 922        TOTAL FREE ENERGY PREDICTED BY IDOCK:   -6.22 KCAL/MOL
REMARK 923 INTER-LIGAND FREE ENERGY PREDICTED BY IDOCK:   -5.91 KCAL/MOL
REMARK 924 INTRA-LIGAND FREE ENERGY PREDICTED BY IDOCK:   -0.32 KCAL/MOL
REMARK 927      BINDING AFFINITY PREDICTED BY RF-SCORE:    0.00 PKD
ROOT
HETATM    1  C   UNL     1     -11.846   7.806  70.756  1.00  0.00    -0.205 C  
HETATM    2  C   UNL     1     -12.693   7.934  72.073  1.00  0.00    -0.307 C  
HETATM    3  C   UNL     1     -13.645   9.096  72.101  1.00  0.00    -0.534 C  
HETATM    4  C   UNL     1     -13.148  10.317  71.354  1.00  0.00    -0.512 C  
HETATM    5  C   UNL     1     -11.663  10.386  70.984  1.00  0.00    -0.430 C  
HETATM    6  C   UNL     1     -10.929   9.062  70.573  1.00  0.00    -0.295 C  
HETATM    7  C   UNL     1      -9.570   8.930  71.515  1.00  0.00    -0.362 C  
HETATM    8  C   UNL     1      -8.873   7.519  71.913  1.00  0.00    -0.114 C  
HETATM    9  N   UNL     1      -9.690   6.232  71.811  1.00  0.00    -0.154 NA 
HETATM   10  H   UNL     1     -10.209  10.808  65.000  1.00  0.00     0.000 HD 
HETATM   11  C   UNL     1     -10.835   6.577  70.862  1.00  0.00    -0.253 C  
HETATM   12  C   UNL     1     -10.001   6.572  69.511  1.00  0.00    -0.180 C  
HETATM   13  C   UNL     1      -9.357   7.763  67.363  1.00  0.00    -0.168 A  
HETATM   14  C   UNL     1      -9.942   7.818  68.648  1.00  0.00    -0.191 A  
HETATM   15  O   UNL     1     -10.543  10.878  65.886  1.00  0.00    -0.241 OA 
HETATM   16  C   UNL     1     -10.529   9.009  69.086  1.00  0.00    -0.239 A  
HETATM   17  C   UNL     1     -10.737  10.035  68.140  1.00  0.00    -0.282 A  
HETATM   18  C   UNL     1     -10.245   9.931  66.833  1.00  0.00    -0.240 A  
HETATM   19  C   UNL     1      -9.507   8.827  66.462  1.00  0.00    -0.281 A  
ENDROOT
BRANCH   9  20
HETATM   20  C   UNL     1     -10.175   5.783  73.154  1.00  0.00    -0.193 C  
BRANCH  20  21
HETATM   21  C   UNL     1     -11.248   4.711  73.253  1.00  0.00    -0.411 C  
HETATM   22  C   UNL     1     -11.156   3.424  73.622  1.00  0.00    -0.316 C  
ENDBRANCH  20  21
ENDBRANCH   9  20
TORSDOF 2
ENDMDL
MODEL       33
REMARK 921   NORMALIZED FREE ENERGY PREDICTED BY IDOCK:   -5.42 KCAL/MOL
REMARK 922        TOTAL FREE ENERGY PREDICTED BY IDOCK:   -6.21 KCAL/MOL
REMARK 923 INTER-LIGAND FREE ENERGY PREDICTED BY IDOCK:   -5.69 KCAL/MOL
REMARK 924 INTRA-LIGAND FREE ENERGY PREDICTED BY IDOCK:   -0.52 KCAL/MOL
REMARK 927      BINDING AFFINITY PREDICTED BY RF-SCORE:    0.00 PKD
ROOT
HETATM    1  C   UNL     1      -9.251   7.669  70.753  1.00  0.00    -0.157 C  
HETATM    2  C   UNL     1      -8.456   6.348  71.055  1.00  0.00    -0.127 C  
HETATM    3  C   UNL     1      -7.640   5.826  69.908  1.00  0.00    -0.080 C  
HETATM    4  C   UNL     1      -8.249   6.092  68.546  1.00  0.00    -0.111 C  
HETATM    5  C   UNL     1      -9.722   6.506  68.480  1.00  0.00    -0.129 C  
HETATM    6  C   UNL     1     -10.295   7.429  69.611  1.00  0.00    -0.226 C  
HETATM    7  C   UNL     1     -11.656   6.695  70.215  1.00  0.00    -0.454 C  
HETATM    8  C   UNL     1     -12.202   6.899  71.729  1.00  0.00    -0.356 C  
HETATM    9  N   UNL     1     -11.247   7.422  72.801  1.00  0.00    -0.329 NA 
HETATM   10  H   UNL     1     -11.063  11.979  65.959  1.00  0.00     0.000 HD 
HETATM   11  C   UNL     1     -10.123   8.096  72.018  1.00  0.00    -0.237 C  
HETATM   12  C   UNL     1     -10.917   9.402  71.588  1.00  0.00    -0.382 C  
HETATM   13  C   UNL     1     -11.634  10.986  69.738  1.00  0.00    -0.401 A  
HETATM   14  C   UNL     1     -11.091   9.738  70.119  1.00  0.00    -0.335 A  
HETATM   15  O   UNL     1     -10.761  11.111  66.199  1.00  0.00    -0.263 OA 
HETATM   16  C   UNL     1     -10.650   8.850  69.134  1.00  0.00    -0.211 A  
HETATM   17  C   UNL     1     -10.531   9.329  67.812  1.00  0.00    -0.313 A  
HETATM   18  C   UNL     1     -10.976  10.608  67.458  1.00  0.00    -0.310 A  
HETATM   19  C   UNL     1     -11.579  11.412  68.403  1.00  0.00    -0.385 A  
ENDROOT
BRANCH   9  20
HETATM   20  C   UNL     1     -10.749   6.315  73.678  1.00  0.00    -0.210 C  
BRANCH  20  21
HETATM   21  C   UNL     1     -11.194   4.885  73.418  1.00  0.00    -0.415 C  
HETATM   22  C   UNL     1     -10.488   3.818  73.011  1.00  0.00    -0.255 C  
ENDBRANCH  20  21
ENDBRANCH   9  20
TORSDOF 2
ENDMDL
MODEL       34
REMARK 921   NORMALIZED FREE ENERGY PREDICTED BY IDOCK:   -5.36 KCAL/MOL
REMARK 922        TOTAL FREE ENERGY PREDICTED BY IDOCK:   -6.15 KCAL/MOL
REMARK 923 INTER-LIGAND FREE ENERGY PREDICTED BY IDOCK:   -5.85 KCAL/MOL
REMARK 924 INTRA-LIGAND FREE ENERGY PREDICTED BY IDOCK:   -0.29 KCAL/MOL
REMARK 927      BINDING AFFINITY PREDICTED BY RF-SCORE:    0.00 PKD
ROOT
HETATM    1  C   UNL     1     -10.762   8.824  67.336  1.00  0.00    -0.216 C  
HETATM    2  C   UNL     1     -10.322   7.438  66.740  1.00  0.00    -0.321 C  
HETATM    3  C   UNL     1     -10.807   6.240  67.505  1.00  0.00    -0.436 C  
HETATM    4  C   UNL     1     -10.914   6.464  68.999  1.00  0.00    -0.410 C  
HETATM    5  C   UNL     1     -10.209   7.683  69.601  1.00  0.00    -0.204 C  
HETATM    6  C   UNL     1     -10.169   9.014  68.772  1.00  0.00    -0.226 C  
HETATM    7  C   UNL     1      -8.585   9.502  68.685  1.00  0.00    -0.119 C  
HETATM    8  C   UNL     1      -7.974  10.394  67.475  1.00  0.00    -0.106 C  
HETATM    9  N   UNL     1      -8.718  10.447  66.141  1.00  0.00    -0.148 NA 
HETATM   10  H   UNL     1     -13.680  11.853  72.546  1.00  0.00     0.000 HD 
HETATM   11  C   UNL     1     -10.144  10.019  66.479  1.00  0.00    -0.232 C  
HETATM   12  C   UNL     1     -10.605  11.360  67.193  1.00  0.00    -0.279 C  
HETATM   13  C   UNL     1     -11.665  12.483  69.209  1.00  0.00    -0.379 A  
HETATM   14  C   UNL     1     -11.084  11.331  68.632  1.00  0.00    -0.286 A  
HETATM   15  O   UNL     1     -13.230  11.093  72.195  1.00  0.00    -0.481 OA 
HETATM   16  C   UNL     1     -11.021  10.147  69.373  1.00  0.00    -0.285 A  
HETATM   17  C   UNL     1     -11.761  10.074  70.573  1.00  0.00    -0.400 A  
HETATM   18  C   UNL     1     -12.424  11.194  71.090  1.00  0.00    -0.393 A  
HETATM   19  C   UNL     1     -12.328  12.408  70.442  1.00  0.00    -0.307 A  
ENDROOT
BRANCH   9  20
HETATM   20  C   UNL     1      -8.079   9.557  65.122  1.00  0.00    -0.126 C  
BRANCH  20  21
HETATM   21  C   UNL     1      -8.434   9.712  63.652  1.00  0.00    -0.189 C  
HETATM   22  C   UNL     1      -9.164  10.651  63.031  1.00  0.00    -0.311 C  
ENDBRANCH  20  21
ENDBRANCH   9  20
TORSDOF 2
ENDMDL
MODEL       35
REMARK 921   NORMALIZED FREE ENERGY PREDICTED BY IDOCK:   -5.35 KCAL/MOL
REMARK 922        TOTAL FREE ENERGY PREDICTED BY IDOCK:   -6.14 KCAL/MOL
REMARK 923 INTER-LIGAND FREE ENERGY PREDICTED BY IDOCK:   -5.61 KCAL/MOL
REMARK 924 INTRA-LIGAND FREE ENERGY PREDICTED BY IDOCK:   -0.53 KCAL/MOL
REMARK 927      BINDING AFFINITY PREDICTED BY RF-SCORE:    0.00 PKD
ROOT
HETATM    1  C   UNL     1     -11.652   7.867  70.209  1.00  0.00    -0.022 C  
HETATM    2  C   UNL     1     -12.271   7.512  71.608  1.00  0.00    -0.352 C  
HETATM    3  C   UNL     1     -13.396   8.407  72.046  1.00  0.00    -0.367 C  
HETATM    4  C   UNL     1     -13.260   9.841  71.577  1.00  0.00    -0.493 C  
HETATM    5  C   UNL     1     -11.897  10.308  71.057  1.00  0.00    -0.472 C  
HETATM    6  C   UNL     1     -11.020   9.299  70.238  1.00  0.00    -0.286 C  
HETATM    7  C   UNL     1      -9.518   9.255  70.942  1.00  0.00    -0.330 C  
HETATM    8  C   UNL     1      -8.523   7.974  70.882  1.00  0.00    -0.124 C  
HETATM    9  N   UNL     1      -9.102   6.598  70.559  1.00  0.00    -0.152 NA 
HETATM   10  H   UNL     1     -11.586  12.358  65.243  1.00  0.00     0.000 HD 
HETATM   11  C   UNL     1     -10.435   6.892  69.876  1.00  0.00    -0.216 C  
HETATM   12  C   UNL     1      -9.857   7.368  68.476  1.00  0.00    -0.164 C  
HETATM   13  C   UNL     1      -9.812   9.118  66.636  1.00  0.00    -0.307 A  
HETATM   14  C   UNL     1     -10.169   8.758  67.955  1.00  0.00    -0.264 A  
HETATM   15  O   UNL     1     -11.770  12.155  66.152  1.00  0.00    -0.452 OA 
HETATM   16  C   UNL     1     -10.876   9.666  68.749  1.00  0.00    -0.199 A  
HETATM   17  C   UNL     1     -11.423  10.808  68.126  1.00  0.00    -0.346 A  
HETATM   18  C   UNL     1     -11.151  11.107  66.785  1.00  0.00    -0.214 A  
HETATM   19  C   UNL     1     -10.302  10.298  66.059  1.00  0.00    -0.248 A  
ENDROOT
BRANCH   9  20
HETATM   20  C   UNL     1      -9.262   5.767  71.794  1.00  0.00    -0.145 C  
BRANCH  20  21
HETATM   21  C   UNL     1      -8.887   6.345  73.149  1.00  0.00    -0.132 C  
HETATM   22  C   UNL     1      -9.666   6.761  74.159  1.00  0.00    -0.325 C  
ENDBRANCH  20  21
ENDBRANCH   9  20
TORSDOF 2
ENDMDL
MODEL       36
REMARK 921   NORMALIZED FREE ENERGY PREDICTED BY IDOCK:   -5.35 KCAL/MOL
REMARK 922        TOTAL FREE ENERGY PREDICTED BY IDOCK:   -6.13 KCAL/MOL
REMARK 923 INTER-LIGAND FREE ENERGY PREDICTED BY IDOCK:   -5.76 KCAL/MOL
REMARK 924 INTRA-LIGAND FREE ENERGY PREDICTED BY IDOCK:   -0.37 KCAL/MOL
REMARK 927      BINDING AFFINITY PREDICTED BY RF-SCORE:    0.00 PKD
ROOT
HETATM    1  C   UNL     1     -11.280   8.753  71.949  1.00  0.00    -0.438 C  
HETATM    2  C   UNL     1     -12.370   9.780  71.473  1.00  0.00    -0.495 C  
HETATM    3  C   UNL     1     -13.771   9.463  71.912  1.00  0.00    -0.440 C  
HETATM    4  C   UNL     1     -14.065   7.980  72.010  1.00  0.00    -0.426 C  
HETATM    5  C   UNL     1     -13.097   7.003  71.337  1.00  0.00    -0.375 C  
HETATM    6  C   UNL     1     -11.564   7.336  71.347  1.00  0.00    -0.305 C  
HETATM    7  C   UNL     1     -11.023   7.253  69.781  1.00  0.00    -0.235 C  
HETATM    8  C   UNL     1      -9.756   8.093  69.211  1.00  0.00    -0.170 C  
HETATM    9  N   UNL     1      -9.283   9.332  69.970  1.00  0.00    -0.192 NA 
HETATM   10  H   UNL     1     -10.275   2.830  74.905  1.00  0.00     0.000 HD 
HETATM   11  C   UNL     1      -9.847   9.158  71.378  1.00  0.00    -0.284 C  
HETATM   12  C   UNL     1      -8.840   8.035  71.874  1.00  0.00    -0.191 C  
HETATM   13  C   UNL     1      -8.495   5.760  72.947  1.00  0.00    -0.122 A  
HETATM   14  C   UNL     1      -9.366   6.690  72.336  1.00  0.00    -0.147 A  
HETATM   15  O   UNL     1     -10.858   3.415  74.436  1.00  0.00    -0.163 OA 
HETATM   16  C   UNL     1     -10.727   6.390  72.228  1.00  0.00    -0.253 A  
HETATM   17  C   UNL     1     -11.224   5.285  72.953  1.00  0.00    -0.375 A  
HETATM   18  C   UNL     1     -10.365   4.422  73.645  1.00  0.00    -0.186 A  
HETATM   19  C   UNL     1      -9.001   4.624  73.594  1.00  0.00    -0.103 A  
ENDROOT
BRANCH   9  20
HETATM   20  C   UNL     1      -9.758  10.591  69.314  1.00  0.00    -0.196 C  
BRANCH  20  21
HETATM   21  C   UNL     1     -10.794  10.522  68.204  1.00  0.00    -0.300 C  
HETATM   22  C   UNL     1     -11.304  11.495  67.433  1.00  0.00    -0.367 C  
ENDBRANCH  20  21
ENDBRANCH   9  20
TORSDOF 2
ENDMDL
MODEL       37
REMARK 921   NORMALIZED FREE ENERGY PREDICTED BY IDOCK:   -5.34 KCAL/MOL
REMARK 922        TOTAL FREE ENERGY PREDICTED BY IDOCK:   -6.12 KCAL/MOL
REMARK 923 INTER-LIGAND FREE ENERGY PREDICTED BY IDOCK:   -5.79 KCAL/MOL
REMARK 924 INTRA-LIGAND FREE ENERGY PREDICTED BY IDOCK:   -0.33 KCAL/MOL
REMARK 927      BINDING AFFINITY PREDICTED BY RF-SCORE:    0.00 PKD
ROOT
HETATM    1  C   UNL     1     -11.535   7.797  70.178  1.00  0.00    -0.055 C  
HETATM    2  C   UNL     1     -12.052   7.267  71.563  1.00  0.00    -0.365 C  
HETATM    3  C   UNL     1     -13.172   8.066  72.167  1.00  0.00    -0.211 C  
HETATM    4  C   UNL     1     -13.109   9.547  71.855  1.00  0.00    -0.517 C  
HETATM    5  C   UNL     1     -11.797  10.118  71.310  1.00  0.00    -0.448 C  
HETATM    6  C   UNL     1     -10.945   9.239  70.330  1.00  0.00    -0.286 C  
HETATM    7  C   UNL     1      -9.400   9.172  70.932  1.00  0.00    -0.335 C  
HETATM    8  C   UNL     1      -8.373   7.943  70.667  1.00  0.00    -0.123 C  
HETATM    9  N   UNL     1      -8.931   6.590  70.227  1.00  0.00    -0.154 NA 
HETATM   10  H   UNL     1     -11.922  12.809  65.756  1.00  0.00     0.000 HD 
HETATM   11  C   UNL     1     -10.314   6.909  69.664  1.00  0.00    -0.206 C  
HETATM   12  C   UNL     1      -9.841   7.558  68.294  1.00  0.00    -0.177 C  
HETATM   13  C   UNL     1      -9.967   9.501  66.664  1.00  0.00    -0.314 A  
HETATM   14  C   UNL     1     -10.228   8.985  67.953  1.00  0.00    -0.272 A  
HETATM   15  O   UNL     1     -12.042  12.500  66.645  1.00  0.00    -0.562 OA 
HETATM   16  C   UNL     1     -10.908   9.773  68.886  1.00  0.00    -0.220 A  
HETATM   17  C   UNL     1     -11.528  10.956  68.429  1.00  0.00    -0.374 A  
HETATM   18  C   UNL     1     -11.352  11.412  67.117  1.00  0.00    -0.255 A  
HETATM   19  C   UNL     1     -10.528  10.720  66.254  1.00  0.00    -0.287 A  
ENDROOT
BRANCH   9  20
HETATM   20  C   UNL     1      -8.987   5.623  71.368  1.00  0.00    -0.140 C  
BRANCH  20  21
HETATM   21  C   UNL     1      -9.848   4.375  71.261  1.00  0.00    -0.260 C  
HETATM   22  C   UNL     1      -9.528   3.131  70.868  1.00  0.00    -0.230 C  
ENDBRANCH  20  21
ENDBRANCH   9  20
TORSDOF 2
ENDMDL
MODEL       38
REMARK 921   NORMALIZED FREE ENERGY PREDICTED BY IDOCK:   -5.25 KCAL/MOL
REMARK 922        TOTAL FREE ENERGY PREDICTED BY IDOCK:   -6.03 KCAL/MOL
REMARK 923 INTER-LIGAND FREE ENERGY PREDICTED BY IDOCK:   -5.71 KCAL/MOL
REMARK 924 INTRA-LIGAND FREE ENERGY PREDICTED BY IDOCK:   -0.32 KCAL/MOL
REMARK 927      BINDING AFFINITY PREDICTED BY RF-SCORE:    0.00 PKD
ROOT
HETATM    1  C   UNL     1      -9.993  15.195  69.580  1.00  0.00    -0.209 C  
HETATM    2  C   UNL     1     -10.810  16.319  70.313  1.00  0.00    -0.257 C  
HETATM    3  C   UNL     1     -11.867  15.818  71.255  1.00  0.00    -0.491 C  
HETATM    4  C   UNL     1     -12.516  14.521  70.819  1.00  0.00    -0.420 C  
HETATM    5  C   UNL     1     -12.320  14.062  69.371  1.00  0.00    -0.247 C  
HETATM    6  C   UNL     1     -10.939  14.332  68.678  1.00  0.00    -0.268 C  
HETATM    7  C   UNL     1     -11.241  15.110  67.244  1.00  0.00    -0.324 C  
HETATM    8  C   UNL     1     -10.198  16.121  66.521  1.00  0.00    -0.297 C  
HETATM    9  N   UNL     1      -9.076  16.748  67.347  1.00  0.00    -0.215 NA 
HETATM   10  H   UNL     1      -9.579   8.613  68.426  1.00  0.00     0.000 HD 
HETATM   11  C   UNL     1      -8.943  15.841  68.567  1.00  0.00    -0.194 C  
HETATM   12  C   UNL     1      -8.215  14.625  67.850  1.00  0.00    -0.152 C  
HETATM   13  C   UNL     1      -8.119  12.131  67.386  1.00  0.00    -0.171 A  
HETATM   14  C   UNL     1      -8.846  13.246  67.861  1.00  0.00    -0.192 A  
HETATM   15  O   UNL     1     -10.104   9.361  68.684  1.00  0.00    -0.177 OA 
HETATM   16  C   UNL     1     -10.120  13.057  68.405  1.00  0.00    -0.225 A  
HETATM   17  C   UNL     1     -10.531  11.737  68.690  1.00  0.00    -0.242 A  
HETATM   18  C   UNL     1      -9.756  10.634  68.310  1.00  0.00    -0.161 A  
HETATM   19  C   UNL     1      -8.584  10.827  67.609  1.00  0.00    -0.123 A  
ENDROOT
BRANCH   9  20
HETATM   20  C   UNL     1      -9.394  18.163  67.718  1.00  0.00    -0.267 C  
BRANCH  20  21
HETATM   21  C   UNL     1     -10.565  18.874  67.059  1.00  0.00    -0.510 C  
HETATM   22  C   UNL     1     -10.582  19.802  66.090  1.00  0.00    -0.569 C  
ENDBRANCH  20  21
ENDBRANCH   9  20
TORSDOF 2
ENDMDL
MODEL       39
REMARK 921   NORMALIZED FREE ENERGY PREDICTED BY IDOCK:   -5.24 KCAL/MOL
REMARK 922        TOTAL FREE ENERGY PREDICTED BY IDOCK:   -6.01 KCAL/MOL
REMARK 923 INTER-LIGAND FREE ENERGY PREDICTED BY IDOCK:   -5.51 KCAL/MOL
REMARK 924 INTRA-LIGAND FREE ENERGY PREDICTED BY IDOCK:   -0.51 KCAL/MOL
REMARK 927      BINDING AFFINITY PREDICTED BY RF-SCORE:    0.00 PKD
ROOT
HETATM    1  C   UNL     1      -9.019  10.490  69.049  1.00  0.00    -0.183 C  
HETATM    2  C   UNL     1      -7.919  11.025  68.063  1.00  0.00    -0.115 C  
HETATM    3  C   UNL     1      -7.805  12.521  67.996  1.00  0.00    -0.147 C  
HETATM    4  C   UNL     1      -9.120  13.249  68.191  1.00  0.00    -0.207 C  
HETATM    5  C   UNL     1     -10.418  12.445  68.069  1.00  0.00    -0.227 C  
HETATM    6  C   UNL     1     -10.439  10.968  68.596  1.00  0.00    -0.214 C  
HETATM    7  C   UNL     1     -11.009  10.007  67.369  1.00  0.00    -0.258 C  
HETATM    8  C   UNL     1     -10.629   8.439  67.190  1.00  0.00    -0.256 C  
HETATM    9  N   UNL     1      -9.382   7.892  67.884  1.00  0.00    -0.140 NA 
HETATM   10  H   UNL     1     -14.143  12.240  72.987  1.00  0.00     0.000 HD 
HETATM   11  C   UNL     1      -9.088   8.898  68.994  1.00  0.00    -0.137 C  
HETATM   12  C   UNL     1     -10.256   8.472  69.983  1.00  0.00    -0.201 C  
HETATM   13  C   UNL     1     -12.230   9.161  71.423  1.00  0.00    -0.407 A  
HETATM   14  C   UNL     1     -11.302   9.484  70.407  1.00  0.00    -0.318 A  
HETATM   15  O   UNL     1     -13.572  12.447  72.257  1.00  0.00    -0.504 OA 
HETATM   16  C   UNL     1     -11.311  10.766  69.849  1.00  0.00    -0.385 A  
HETATM   17  C   UNL     1     -12.074  11.765  70.491  1.00  0.00    -0.439 A  
HETATM   18  C   UNL     1     -12.916  11.459  71.568  1.00  0.00    -0.399 A  
HETATM   19  C   UNL     1     -13.039  10.153  71.994  1.00  0.00    -0.538 A  
ENDROOT
BRANCH   9  20
HETATM   20  C   UNL     1      -8.242   7.748  66.926  1.00  0.00    -0.116 C  
BRANCH  20  21
HETATM   21  C   UNL     1      -8.436   8.099  65.459  1.00  0.00    -0.174 C  
HETATM   22  C   UNL     1      -8.077   9.198  64.776  1.00  0.00    -0.140 C  
ENDBRANCH  20  21
ENDBRANCH   9  20
TORSDOF 2
ENDMDL
MODEL       40
REMARK 921   NORMALIZED FREE ENERGY PREDICTED BY IDOCK:   -5.18 KCAL/MOL
REMARK 922        TOTAL FREE ENERGY PREDICTED BY IDOCK:   -5.95 KCAL/MOL
REMARK 923 INTER-LIGAND FREE ENERGY PREDICTED BY IDOCK:   -5.42 KCAL/MOL
REMARK 924 INTRA-LIGAND FREE ENERGY PREDICTED BY IDOCK:   -0.53 KCAL/MOL
REMARK 927      BINDING AFFINITY PREDICTED BY RF-SCORE:    0.00 PKD
ROOT
HETATM    1  C   UNL     1      -9.200   7.489  70.851  1.00  0.00    -0.153 C  
HETATM    2  C   UNL     1      -7.715   7.353  70.358  1.00  0.00    -0.093 C  
HETATM    3  C   UNL     1      -6.934   8.636  70.343  1.00  0.00    -0.043 C  
HETATM    4  C   UNL     1      -7.767   9.861  70.026  1.00  0.00    -0.188 C  
HETATM    5  C   UNL     1      -9.158   9.654  69.418  1.00  0.00    -0.194 C  
HETATM    6  C   UNL     1     -10.010   8.426  69.893  1.00  0.00    -0.190 C  
HETATM    7  C   UNL     1     -10.489   7.594  68.539  1.00  0.00    -0.206 C  
HETATM    8  C   UNL     1     -10.809   6.004  68.514  1.00  0.00    -0.286 C  
HETATM    9  N   UNL     1     -10.255   5.117  69.629  1.00  0.00    -0.262 NA 
HETATM   10  H   UNL     1     -14.016  11.819  72.550  1.00  0.00     0.000 HD 
HETATM   11  C   UNL     1      -9.945   6.081  70.770  1.00  0.00    -0.191 C  
HETATM   12  C   UNL     1     -11.439   6.344  71.239  1.00  0.00    -0.371 C  
HETATM   13  C   UNL     1     -13.261   8.013  71.823  1.00  0.00    -0.367 A  
HETATM   14  C   UNL     1     -12.002   7.752  71.236  1.00  0.00    -0.324 A  
HETATM   15  O   UNL     1     -13.202  11.649  72.093  1.00  0.00    -0.504 OA 
HETATM   16  C   UNL     1     -11.250   8.812  70.721  1.00  0.00    -0.309 A  
HETATM   17  C   UNL     1     -11.660  10.128  71.026  1.00  0.00    -0.462 A  
HETATM   18  C   UNL     1     -12.860  10.379  71.701  1.00  0.00    -0.474 A  
HETATM   19  C   UNL     1     -13.687   9.330  72.046  1.00  0.00    -0.493 A  
ENDROOT
BRANCH   9  20
HETATM   20  C   UNL     1      -9.047   4.358  69.175  1.00  0.00    -0.125 C  
BRANCH  20  21
HETATM   21  C   UNL     1      -8.512   4.558  67.766  1.00  0.00    -0.103 C  
HETATM   22  C   UNL     1      -7.377   5.135  67.343  1.00  0.00    -0.082 C  
ENDBRANCH  20  21
ENDBRANCH   9  20
TORSDOF 2
ENDMDL
MODEL       41
REMARK 921   NORMALIZED FREE ENERGY PREDICTED BY IDOCK:   -5.18 KCAL/MOL
REMARK 922        TOTAL FREE ENERGY PREDICTED BY IDOCK:   -5.95 KCAL/MOL
REMARK 923 INTER-LIGAND FREE ENERGY PREDICTED BY IDOCK:   -5.76 KCAL/MOL
REMARK 924 INTRA-LIGAND FREE ENERGY PREDICTED BY IDOCK:   -0.18 KCAL/MOL
REMARK 927      BINDING AFFINITY PREDICTED BY RF-SCORE:    0.00 PKD
ROOT
HETATM    1  C   UNL     1     -10.203  14.631  67.045  1.00  0.00    -0.261 C  
HETATM    2  C   UNL     1     -11.586  14.149  66.477  1.00  0.00    -0.389 C  
HETATM    3  C   UNL     1     -11.800  14.425  65.016  1.00  0.00    -0.400 C  
HETATM    4  C   UNL     1     -11.140  15.698  64.527  1.00  0.00    -0.303 C  
HETATM    5  C   UNL     1     -10.667  16.716  65.569  1.00  0.00    -0.234 C  
HETATM    6  C   UNL     1     -10.074  16.187  66.921  1.00  0.00    -0.273 C  
HETATM    7  C   UNL     1     -10.893  16.936  68.155  1.00  0.00    -0.351 C  
HETATM    8  C   UNL     1     -11.097  16.295  69.632  1.00  0.00    -0.333 C  
HETATM    9  N   UNL     1     -10.933  14.787  69.817  1.00  0.00    -0.256 NA 
HETATM   10  H   UNL     1      -4.660  18.131  65.685  1.00  0.00     0.000 HD 
HETATM   11  C   UNL     1     -10.112  14.339  68.610  1.00  0.00    -0.238 C  
HETATM   12  C   UNL     1      -8.707  14.907  69.085  1.00  0.00    -0.149 C  
HETATM   13  C   UNL     1      -6.643  16.288  68.559  1.00  0.00    -0.130 A  
HETATM   14  C   UNL     1      -7.968  15.921  68.233  1.00  0.00    -0.139 A  
HETATM   15  O   UNL     1      -5.571  17.946  65.493  1.00  0.00    -0.161 OA 
HETATM   16  C   UNL     1      -8.564  16.442  67.081  1.00  0.00    -0.204 A  
HETATM   17  C   UNL     1      -7.740  17.117  66.154  1.00  0.00    -0.302 A  
HETATM   18  C   UNL     1      -6.396  17.389  66.437  1.00  0.00    -0.233 A  
HETATM   19  C   UNL     1      -5.864  17.029  67.658  1.00  0.00    -0.149 A  
ENDROOT
BRANCH   9  20
HETATM   20  C   UNL     1     -12.259  14.097  69.895  1.00  0.00    -0.359 C  
BRANCH  20  21
HETATM   21  C   UNL     1     -12.797  13.642  71.242  1.00  0.00    -0.424 C  
HETATM   22  C   UNL     1     -12.965  14.326  72.385  1.00  0.00    -0.478 C  
ENDBRANCH  20  21
ENDBRANCH   9  20
TORSDOF 2
ENDMDL
MODEL       42
REMARK 921   NORMALIZED FREE ENERGY PREDICTED BY IDOCK:   -5.14 KCAL/MOL
REMARK 922        TOTAL FREE ENERGY PREDICTED BY IDOCK:   -5.91 KCAL/MOL
REMARK 923 INTER-LIGAND FREE ENERGY PREDICTED BY IDOCK:   -5.64 KCAL/MOL
REMARK 924 INTRA-LIGAND FREE ENERGY PREDICTED BY IDOCK:   -0.27 KCAL/MOL
REMARK 927      BINDING AFFINITY PREDICTED BY RF-SCORE:    0.00 PKD
ROOT
HETATM    1  C   UNL     1      -9.233  12.098  68.203  1.00  0.00    -0.197 C  
HETATM    2  C   UNL     1      -8.954  13.153  67.074  1.00  0.00    -0.228 C  
HETATM    3  C   UNL     1      -9.924  14.299  67.026  1.00  0.00    -0.258 C  
HETATM    4  C   UNL     1     -11.335  13.929  67.436  1.00  0.00    -0.349 C  
HETATM    5  C   UNL     1     -11.707  12.444  67.495  1.00  0.00    -0.425 C  
HETATM    6  C   UNL     1     -10.626  11.418  67.983  1.00  0.00    -0.224 C  
HETATM    7  C   UNL     1     -10.513  10.226  66.834  1.00  0.00    -0.291 C  
HETATM    8  C   UNL     1      -9.175   9.348  66.563  1.00  0.00    -0.159 C  
HETATM    9  N   UNL     1      -7.827   9.880  67.045  1.00  0.00    -0.102 NA 
HETATM   10  H   UNL     1     -13.577  10.159  72.915  1.00  0.00     0.000 HD 
HETATM   11  C   UNL     1      -8.180  10.903  68.122  1.00  0.00    -0.121 C  
HETATM   12  C   UNL     1      -8.583   9.878  69.265  1.00  0.00    -0.169 C  
HETATM   13  C   UNL     1     -10.277   9.136  71.005  1.00  0.00    -0.372 A  
HETATM   14  C   UNL     1      -9.975   9.919  69.868  1.00  0.00    -0.292 A  
HETATM   15  O   UNL     1     -13.410  10.637  72.112  1.00  0.00    -0.444 OA 
HETATM   16  C   UNL     1     -10.944  10.782  69.349  1.00  0.00    -0.305 A  
HETATM   17  C   UNL     1     -12.098  11.027  70.123  1.00  0.00    -0.438 A  
HETATM   18  C   UNL     1     -12.345  10.322  71.307  1.00  0.00    -0.403 A  
HETATM   19  C   UNL     1     -11.468   9.338  71.717  1.00  0.00    -0.448 A  
ENDROOT
BRANCH   9  20
HETATM   20  C   UNL     1      -7.041  10.480  65.921  1.00  0.00    -0.134 C  
BRANCH  20  21
HETATM   21  C   UNL     1      -7.334  10.068  64.488  1.00  0.00    -0.142 C  
HETATM   22  C   UNL     1      -6.544  10.082  63.402  1.00  0.00    -0.135 C  
ENDBRANCH  20  21
ENDBRANCH   9  20
TORSDOF 2
ENDMDL
MODEL       43
REMARK 921   NORMALIZED FREE ENERGY PREDICTED BY IDOCK:   -5.14 KCAL/MOL
REMARK 922        TOTAL FREE ENERGY PREDICTED BY IDOCK:   -5.90 KCAL/MOL
REMARK 923 INTER-LIGAND FREE ENERGY PREDICTED BY IDOCK:   -5.47 KCAL/MOL
REMARK 924 INTRA-LIGAND FREE ENERGY PREDICTED BY IDOCK:   -0.43 KCAL/MOL
REMARK 927      BINDING AFFINITY PREDICTED BY RF-SCORE:    0.00 PKD
ROOT
HETATM    1  C   UNL     1      -9.302  15.599  68.995  1.00  0.00    -0.243 C  
HETATM    2  C   UNL     1     -10.560  16.456  69.384  1.00  0.00    -0.317 C  
HETATM    3  C   UNL     1     -11.849  15.688  69.455  1.00  0.00    -0.391 C  
HETATM    4  C   UNL     1     -11.941  14.545  68.465  1.00  0.00    -0.321 C  
HETATM    5  C   UNL     1     -10.943  14.510  67.304  1.00  0.00    -0.307 C  
HETATM    6  C   UNL     1      -9.474  14.995  67.561  1.00  0.00    -0.203 C  
HETATM    7  C   UNL     1      -9.112  16.132  66.407  1.00  0.00    -0.339 C  
HETATM    8  C   UNL     1      -8.037  17.329  66.615  1.00  0.00    -0.265 C  
HETATM    9  N   UNL     1      -7.638  17.731  68.034  1.00  0.00    -0.229 NA 
HETATM   10  H   UNL     1      -7.223   9.604  66.858  1.00  0.00     0.000 HD 
HETATM   11  C   UNL     1      -8.008  16.525  68.894  1.00  0.00    -0.239 C  
HETATM   12  C   UNL     1      -6.816  15.574  68.450  1.00  0.00    -0.115 C  
HETATM   13  C   UNL     1      -6.066  13.308  67.585  1.00  0.00    -0.140 A  
HETATM   14  C   UNL     1      -7.112  14.230  67.812  1.00  0.00    -0.190 A  
HETATM   15  O   UNL     1      -7.925  10.238  66.940  1.00  0.00    -0.110 OA 
HETATM   16  C   UNL     1      -8.428  13.866  67.511  1.00  0.00    -0.200 A  
HETATM   17  C   UNL     1      -8.693  12.509  67.229  1.00  0.00    -0.193 A  
HETATM   18  C   UNL     1      -7.658  11.573  67.107  1.00  0.00    -0.149 A  
HETATM   19  C   UNL     1      -6.346  11.982  67.226  1.00  0.00    -0.151 A  
ENDROOT
BRANCH   9  20
HETATM   20  C   UNL     1      -8.340  18.980  68.467  1.00  0.00    -0.352 C  
BRANCH  20  21
HETATM   21  C   UNL     1      -9.304  19.675  67.519  1.00  0.00    -0.422 C  
HETATM   22  C   UNL     1     -10.610  19.457  67.296  1.00  0.00    -0.599 C  
ENDBRANCH  20  21
ENDBRANCH   9  20
TORSDOF 2
ENDMDL
MODEL       44
REMARK 921   NORMALIZED FREE ENERGY PREDICTED BY IDOCK:   -5.14 KCAL/MOL
REMARK 922        TOTAL FREE ENERGY PREDICTED BY IDOCK:   -5.90 KCAL/MOL
REMARK 923 INTER-LIGAND FREE ENERGY PREDICTED BY IDOCK:   -5.61 KCAL/MOL
REMARK 924 INTRA-LIGAND FREE ENERGY PREDICTED BY IDOCK:   -0.29 KCAL/MOL
REMARK 927      BINDING AFFINITY PREDICTED BY RF-SCORE:    0.00 PKD
ROOT
HETATM    1  C   UNL     1     -11.115   7.313  69.794  1.00  0.00    -0.203 C  
HETATM    2  C   UNL     1     -11.065   6.069  70.752  1.00  0.00    -0.355 C  
HETATM    3  C   UNL     1     -11.612   6.310  72.130  1.00  0.00    -0.367 C  
HETATM    4  C   UNL     1     -11.390   7.717  72.644  1.00  0.00    -0.449 C  
HETATM    5  C   UNL     1     -10.367   8.599  71.922  1.00  0.00    -0.405 C  
HETATM    6  C   UNL     1     -10.236   8.476  70.364  1.00  0.00    -0.215 C  
HETATM    7  C   UNL     1      -8.634   8.216  70.014  1.00  0.00    -0.129 C  
HETATM    8  C   UNL     1      -8.108   7.423  68.700  1.00  0.00    -0.125 C  
HETATM    9  N   UNL     1      -9.068   6.496  67.957  1.00  0.00    -0.115 NA 
HETATM   10  H   UNL     1     -12.371  13.880  69.431  1.00  0.00     0.000 HD 
HETATM   11  C   UNL     1     -10.458   6.958  68.386  1.00  0.00    -0.204 C  
HETATM   12  C   UNL     1     -10.516   8.289  67.522  1.00  0.00    -0.325 C  
HETATM   13  C   UNL     1     -10.944  10.790  67.429  1.00  0.00    -0.361 A  
HETATM   14  C   UNL     1     -10.710   9.630  68.203  1.00  0.00    -0.266 A  
HETATM   15  O   UNL     1     -12.147  13.124  69.960  1.00  0.00    -0.325 OA 
HETATM   16  C   UNL     1     -10.730   9.718  69.598  1.00  0.00    -0.264 A  
HETATM   17  C   UNL     1     -11.230  10.901  70.182  1.00  0.00    -0.317 A  
HETATM   18  C   UNL     1     -11.561  12.016  69.402  1.00  0.00    -0.330 A  
HETATM   19  C   UNL     1     -11.363  11.982  68.037  1.00  0.00    -0.358 A  
ENDROOT
BRANCH   9  20
HETATM   20  C   UNL     1      -8.813   5.059  68.293  1.00  0.00    -0.102 C  
BRANCH  20  21
HETATM   21  C   UNL     1      -9.343   3.963  67.384  1.00  0.00    -0.225 C  
HETATM   22  C   UNL     1      -9.901   4.041  66.166  1.00  0.00    -0.176 C  
ENDBRANCH  20  21
ENDBRANCH   9  20
TORSDOF 2
ENDMDL
MODEL       45
REMARK 921   NORMALIZED FREE ENERGY PREDICTED BY IDOCK:   -5.13 KCAL/MOL
REMARK 922        TOTAL FREE ENERGY PREDICTED BY IDOCK:   -5.90 KCAL/MOL
REMARK 923 INTER-LIGAND FREE ENERGY PREDICTED BY IDOCK:   -5.44 KCAL/MOL
REMARK 924 INTRA-LIGAND FREE ENERGY PREDICTED BY IDOCK:   -0.45 KCAL/MOL
REMARK 927      BINDING AFFINITY PREDICTED BY RF-SCORE:    0.00 PKD
ROOT
HETATM    1  C   UNL     1     -10.179   7.724  69.186  1.00  0.00    -0.210 C  
HETATM    2  C   UNL     1      -9.335   6.485  68.715  1.00  0.00    -0.130 C  
HETATM    3  C   UNL     1      -9.810   5.160  69.240  1.00  0.00    -0.260 C  
HETATM    4  C   UNL     1     -10.415   5.229  70.628  1.00  0.00    -0.306 C  
HETATM    5  C   UNL     1     -10.162   6.484  71.467  1.00  0.00    -0.215 C  
HETATM    6  C   UNL     1     -10.106   7.874  70.743  1.00  0.00    -0.201 C  
HETATM    7  C   UNL     1      -8.689   8.614  71.188  1.00  0.00    -0.244 C  
HETATM    8  C   UNL     1      -7.902   9.698  70.271  1.00  0.00    -0.178 C  
HETATM    9  N   UNL     1      -8.192   9.753  68.771  1.00  0.00    -0.104 NA 
HETATM   10  H   UNL     1     -15.066   9.764  73.283  1.00  0.00     0.000 HD 
HETATM   11  C   UNL     1      -9.551   9.074  68.617  1.00  0.00    -0.153 C  
HETATM   12  C   UNL     1     -10.444  10.254  69.191  1.00  0.00    -0.246 C  
HETATM   13  C   UNL     1     -12.262  11.007  70.797  1.00  0.00    -0.480 A  
HETATM   14  C   UNL     1     -11.333  10.019  70.398  1.00  0.00    -0.392 A  
HETATM   15  O   UNL     1     -14.401   9.121  73.069  1.00  0.00    -0.439 OA 
HETATM   16  C   UNL     1     -11.292   8.798  71.077  1.00  0.00    -0.332 A  
HETATM   17  C   UNL     1     -12.343   8.500  71.971  1.00  0.00    -0.423 A  
HETATM   18  C   UNL     1     -13.323   9.448  72.286  1.00  0.00    -0.461 A  
HETATM   19  C   UNL     1     -13.251  10.716  71.747  1.00  0.00    -0.526 A  
ENDROOT
BRANCH   9  20
HETATM   20  C   UNL     1      -7.118   9.071  67.981  1.00  0.00    -0.079 C  
BRANCH  20  21
HETATM   21  C   UNL     1      -6.038   8.279  68.699  1.00  0.00    -0.045 C  
HETATM   22  C   UNL     1      -5.972   6.970  68.993  1.00  0.00    -0.022 C  
ENDBRANCH  20  21
ENDBRANCH   9  20
TORSDOF 2
ENDMDL
MODEL       46
REMARK 921   NORMALIZED FREE ENERGY PREDICTED BY IDOCK:   -5.13 KCAL/MOL
REMARK 922        TOTAL FREE ENERGY PREDICTED BY IDOCK:   -5.89 KCAL/MOL
REMARK 923 INTER-LIGAND FREE ENERGY PREDICTED BY IDOCK:   -5.72 KCAL/MOL
REMARK 924 INTRA-LIGAND FREE ENERGY PREDICTED BY IDOCK:   -0.17 KCAL/MOL
REMARK 927      BINDING AFFINITY PREDICTED BY RF-SCORE:    0.00 PKD
ROOT
HETATM    1  C   UNL     1     -10.014  15.648  68.152  1.00  0.00    -0.217 C  
HETATM    2  C   UNL     1      -9.689  16.967  68.942  1.00  0.00    -0.259 C  
HETATM    3  C   UNL     1     -10.407  18.191  68.449  1.00  0.00    -0.371 C  
HETATM    4  C   UNL     1     -10.654  18.200  66.955  1.00  0.00    -0.326 C  
HETATM    5  C   UNL     1      -9.873  17.212  66.085  1.00  0.00    -0.280 C  
HETATM    6  C   UNL     1      -9.569  15.784  66.657  1.00  0.00    -0.266 C  
HETATM    7  C   UNL     1      -7.937  15.522  66.512  1.00  0.00    -0.009 C  
HETATM    8  C   UNL     1      -7.083  14.543  67.485  1.00  0.00    -0.175 C  
HETATM    9  N   UNL     1      -7.657  14.166  68.850  1.00  0.00    -0.120 NA 
HETATM   10  H   UNL     1     -13.098  13.120  62.774  1.00  0.00     0.000 HD 
HETATM   11  C   UNL     1      -9.155  14.432  68.724  1.00  0.00    -0.133 C  
HETATM   12  C   UNL     1      -9.521  13.173  67.828  1.00  0.00    -0.209 C  
HETATM   13  C   UNL     1     -10.652  12.253  65.750  1.00  0.00    -0.289 A  
HETATM   14  C   UNL     1     -10.161  13.367  66.466  1.00  0.00    -0.280 A  
HETATM   15  O   UNL     1     -12.712  13.869  63.211  1.00  0.00    -0.775 OA 
HETATM   16  C   UNL     1     -10.333  14.652  65.944  1.00  0.00    -0.334 A  
HETATM   17  C   UNL     1     -11.209  14.812  64.849  1.00  0.00    -0.411 A  
HETATM   18  C   UNL     1     -11.779  13.708  64.204  1.00  0.00    -0.386 A  
HETATM   19  C   UNL     1     -11.456  12.431  64.614  1.00  0.00    -0.384 A  
ENDROOT
BRANCH   9  20
HETATM   20  C   UNL     1      -7.025  14.961  69.949  1.00  0.00    -0.143 C  
BRANCH  20  21
HETATM   21  C   UNL     1      -5.713  14.497  70.561  1.00  0.00    -0.159 C  
HETATM   22  C   UNL     1      -5.387  13.322  71.125  1.00  0.00    -0.193 C  
ENDBRANCH  20  21
ENDBRANCH   9  20
TORSDOF 2
ENDMDL
MODEL       47
REMARK 921   NORMALIZED FREE ENERGY PREDICTED BY IDOCK:   -5.13 KCAL/MOL
REMARK 922        TOTAL FREE ENERGY PREDICTED BY IDOCK:   -5.89 KCAL/MOL
REMARK 923 INTER-LIGAND FREE ENERGY PREDICTED BY IDOCK:   -5.47 KCAL/MOL
REMARK 924 INTRA-LIGAND FREE ENERGY PREDICTED BY IDOCK:   -0.42 KCAL/MOL
REMARK 927      BINDING AFFINITY PREDICTED BY RF-SCORE:    0.00 PKD
ROOT
HETATM    1  C   UNL     1     -10.900   8.585  68.879  1.00  0.00    -0.009 C  
HETATM    2  C   UNL     1     -10.587   7.046  68.864  1.00  0.00    -0.233 C  
HETATM    3  C   UNL     1     -11.373   6.232  69.853  1.00  0.00    -0.504 C  
HETATM    4  C   UNL     1     -11.692   6.966  71.139  1.00  0.00    -0.381 C  
HETATM    5  C   UNL     1     -10.917   8.249  71.453  1.00  0.00    -0.301 C  
HETATM    6  C   UNL     1     -10.533   9.204  70.270  1.00  0.00    -0.257 C  
HETATM    7  C   UNL     1      -8.901   9.489  70.364  1.00  0.00    -0.279 C  
HETATM    8  C   UNL     1      -7.966   9.851  69.088  1.00  0.00    -0.112 C  
HETATM    9  N   UNL     1      -8.460   9.508  67.684  1.00  0.00    -0.122 NA 
HETATM   10  H   UNL     1     -14.143  13.470  72.112  1.00  0.00     0.000 HD 
HETATM   11  C   UNL     1      -9.971   9.352  67.834  1.00  0.00    -0.182 C  
HETATM   12  C   UNL     1     -10.332  10.892  67.968  1.00  0.00    -0.212 C  
HETATM   13  C   UNL     1     -11.527  12.730  69.249  1.00  0.00    -0.349 A  
HETATM   14  C   UNL     1     -11.043  11.403  69.207  1.00  0.00    -0.313 A  
HETATM   15  O   UNL     1     -13.764  12.600  72.125  1.00  0.00    -0.467 OA 
HETATM   16  C   UNL     1     -11.288  10.546  70.284  1.00  0.00    -0.407 A  
HETATM   17  C   UNL     1     -12.220  10.957  71.260  1.00  0.00    -0.395 A  
HETATM   18  C   UNL     1     -12.779  12.241  71.240  1.00  0.00    -0.251 A  
HETATM   19  C   UNL     1     -12.390  13.145  70.274  1.00  0.00    -0.319 A  
ENDROOT
BRANCH   9  20
HETATM   20  C   UNL     1      -7.805   8.268  67.161  1.00  0.00    -0.097 C  
BRANCH  20  21
HETATM   21  C   UNL     1      -8.319   7.620  65.885  1.00  0.00    -0.140 C  
HETATM   22  C   UNL     1      -8.608   6.336  65.620  1.00  0.00    -0.143 C  
ENDBRANCH  20  21
ENDBRANCH   9  20
TORSDOF 2
ENDMDL
MODEL       48
REMARK 921   NORMALIZED FREE ENERGY PREDICTED BY IDOCK:   -5.10 KCAL/MOL
REMARK 922        TOTAL FREE ENERGY PREDICTED BY IDOCK:   -5.86 KCAL/MOL
REMARK 923 INTER-LIGAND FREE ENERGY PREDICTED BY IDOCK:   -5.72 KCAL/MOL
REMARK 924 INTRA-LIGAND FREE ENERGY PREDICTED BY IDOCK:   -0.15 KCAL/MOL
REMARK 927      BINDING AFFINITY PREDICTED BY RF-SCORE:    0.00 PKD
ROOT
HETATM    1  C   UNL     1      -9.774  13.330  66.938  1.00  0.00    -0.248 C  
HETATM    2  C   UNL     1     -10.341  12.078  66.178  1.00  0.00    -0.257 C  
HETATM    3  C   UNL     1     -10.292  12.173  64.680  1.00  0.00    -0.328 C  
HETATM    4  C   UNL     1     -10.480  13.578  64.146  1.00  0.00    -0.104 C  
HETATM    5  C   UNL     1     -11.040  14.644  65.091  1.00  0.00    -0.382 C  
HETATM    6  C   UNL     1     -10.623  14.603  66.603  1.00  0.00    -0.289 C  
HETATM    7  C   UNL     1     -12.014  14.626  67.508  1.00  0.00    -0.309 C  
HETATM    8  C   UNL     1     -12.144  13.982  68.991  1.00  0.00    -0.323 C  
HETATM    9  N   UNL     1     -11.125  12.935  69.439  1.00  0.00    -0.133 NA 
HETATM   10  H   UNL     1      -7.546  19.604  66.228  1.00  0.00     0.000 HD 
HETATM   11  C   UNL     1      -9.929  13.142  68.514  1.00  0.00    -0.180 C  
HETATM   12  C   UNL     1      -9.377  14.476  69.176  1.00  0.00     0.001 C  
HETATM   13  C   UNL     1      -8.590  16.872  68.880  1.00  0.00    -0.206 A  
HETATM   14  C   UNL     1      -9.249  15.740  68.347  1.00  0.00    -0.192 A  
HETATM   15  O   UNL     1      -8.050  18.877  65.883  1.00  0.00    -0.468 OA 
HETATM   16  C   UNL     1      -9.715  15.771  67.030  1.00  0.00    -0.235 A  
HETATM   17  C   UNL     1      -9.294  16.833  66.201  1.00  0.00    -0.288 A  
HETATM   18  C   UNL     1      -8.550  17.904  66.710  1.00  0.00    -0.254 A  
HETATM   19  C   UNL     1      -8.250  17.954  68.056  1.00  0.00    -0.257 A  
ENDROOT
BRANCH   9  20
HETATM   20  C   UNL     1     -11.687  11.550  69.348  1.00  0.00    -0.346 C  
BRANCH  20  21
HETATM   21  C   UNL     1     -12.456  10.966  70.522  1.00  0.00    -0.438 C  
HETATM   22  C   UNL     1     -12.229   9.855  71.241  1.00  0.00    -0.480 C  
ENDBRANCH  20  21
ENDBRANCH   9  20
TORSDOF 2
ENDMDL
MODEL       49
REMARK 921   NORMALIZED FREE ENERGY PREDICTED BY IDOCK:   -5.10 KCAL/MOL
REMARK 922        TOTAL FREE ENERGY PREDICTED BY IDOCK:   -5.86 KCAL/MOL
REMARK 923 INTER-LIGAND FREE ENERGY PREDICTED BY IDOCK:   -5.72 KCAL/MOL
REMARK 924 INTRA-LIGAND FREE ENERGY PREDICTED BY IDOCK:   -0.15 KCAL/MOL
REMARK 927      BINDING AFFINITY PREDICTED BY RF-SCORE:    0.00 PKD
ROOT
HETATM    1  C   UNL     1      -9.090  16.537  66.918  1.00  0.00    -0.241 C  
HETATM    2  C   UNL     1     -10.328  16.344  65.969  1.00  0.00    -0.365 C  
HETATM    3  C   UNL     1     -10.764  17.583  65.240  1.00  0.00     0.080 C  
HETATM    4  C   UNL     1     -10.554  18.863  66.022  1.00  0.00    -0.470 C  
HETATM    5  C   UNL     1     -10.287  18.759  67.526  1.00  0.00    -0.471 C  
HETATM    6  C   UNL     1      -9.428  17.559  68.055  1.00  0.00    -0.280 C  
HETATM    7  C   UNL     1     -10.293  16.817  69.261  1.00  0.00    -0.309 C  
HETATM    8  C   UNL     1     -10.148  15.248  69.652  1.00  0.00    -0.237 C  
HETATM    9  N   UNL     1      -9.538  14.283  68.636  1.00  0.00    -0.211 NA 
HETATM   10  H   UNL     1      -4.964  21.038  69.665  1.00  0.00     0.000 HD 
HETATM   11  C   UNL     1      -8.754  15.177  67.678  1.00  0.00    -0.170 C  
HETATM   12  C   UNL     1      -7.531  15.497  68.639  1.00  0.00    -0.131 C  
HETATM   13  C   UNL     1      -6.018  17.233  69.709  1.00  0.00    -0.243 A  
HETATM   14  C   UNL     1      -7.208  16.933  69.008  1.00  0.00    -0.232 A  
HETATM   15  O   UNL     1      -5.798  20.845  69.255  1.00  0.00    -0.363 OA 
HETATM   16  C   UNL     1      -8.047  17.973  68.597  1.00  0.00    -0.293 A  
HETATM   17  C   UNL     1      -7.554  19.293  68.675  1.00  0.00    -0.385 A  
HETATM   18  C   UNL     1      -6.323  19.578  69.278  1.00  0.00    -0.311 A  
HETATM   19  C   UNL     1      -5.585  18.560  69.846  1.00  0.00    -0.235 A  
ENDROOT
BRANCH   9  20
HETATM   20  C   UNL     1     -10.593  13.482  67.939  1.00  0.00    -0.248 C  
BRANCH  20  21
HETATM   21  C   UNL     1     -11.016  12.134  68.500  1.00  0.00    -0.276 C  
HETATM   22  C   UNL     1     -10.997  10.916  67.937  1.00  0.00    -0.325 C  
ENDBRANCH  20  21
ENDBRANCH   9  20
TORSDOF 2
ENDMDL
MODEL       50
REMARK 921   NORMALIZED FREE ENERGY PREDICTED BY IDOCK:   -5.05 KCAL/MOL
REMARK 922        TOTAL FREE ENERGY PREDICTED BY IDOCK:   -5.81 KCAL/MOL
REMARK 923 INTER-LIGAND FREE ENERGY PREDICTED BY IDOCK:   -5.44 KCAL/MOL
REMARK 924 INTRA-LIGAND FREE ENERGY PREDICTED BY IDOCK:   -0.37 KCAL/MOL
REMARK 927      BINDING AFFINITY PREDICTED BY RF-SCORE:    0.00 PKD
ROOT
HETATM    1  C   UNL     1      -9.136   8.313  71.494  1.00  0.00    -0.229 C  
HETATM    2  C   UNL     1      -7.801   7.527  71.237  1.00  0.00    -0.094 C  
HETATM    3  C   UNL     1      -6.794   8.252  70.390  1.00  0.00    -0.036 C  
HETATM    4  C   UNL     1      -7.408   9.143  69.330  1.00  0.00    -0.070 C  
HETATM    5  C   UNL     1      -8.889   8.949  68.989  1.00  0.00    -0.136 C  
HETATM    6  C   UNL     1      -9.883   8.578  70.144  1.00  0.00    -0.184 C  
HETATM    7  C   UNL     1     -10.718   7.224  69.670  1.00  0.00    -0.249 C  
HETATM    8  C   UNL     1     -11.345   6.136  70.698  1.00  0.00    -0.298 C  
HETATM    9  N   UNL     1     -10.813   6.072  72.128  1.00  0.00    -0.240 NA 
HETATM   10  H   UNL     1     -12.686  13.742  69.832  1.00  0.00     0.000 HD 
HETATM   11  C   UNL     1     -10.147   7.427  72.352  1.00  0.00    -0.187 C  
HETATM   12  C   UNL     1     -11.470   8.292  72.508  1.00  0.00    -0.454 C  
HETATM   13  C   UNL     1     -12.816  10.330  71.814  1.00  0.00    -0.565 A  
HETATM   14  C   UNL     1     -11.738   9.450  71.566  1.00  0.00    -0.465 A  
HETATM   15  O   UNL     1     -12.001  13.121  69.614  1.00  0.00    -0.310 OA 
HETATM   16  C   UNL     1     -10.881   9.698  70.490  1.00  0.00    -0.371 A  
HETATM   17  C   UNL     1     -10.971  10.950  69.844  1.00  0.00    -0.266 A  
HETATM   18  C   UNL     1     -11.980  11.865  70.165  1.00  0.00    -0.332 A  
HETATM   19  C   UNL     1     -12.935  11.534  71.105  1.00  0.00    -0.329 A  
ENDROOT
BRANCH   9  20
HETATM   20  C   UNL     1      -9.861   4.930  72.308  1.00  0.00    -0.169 C  
BRANCH  20  21
HETATM   21  C   UNL     1      -9.415   4.120  71.102  1.00  0.00    -0.234 C  
HETATM   22  C   UNL     1      -9.379   2.791  70.915  1.00  0.00    -0.219 C  
ENDBRANCH  20  21
ENDBRANCH   9  20
TORSDOF 2
ENDMDL
MODEL       51
REMARK 921   NORMALIZED FREE ENERGY PREDICTED BY IDOCK:   -5.01 KCAL/MOL
REMARK 922        TOTAL FREE ENERGY PREDICTED BY IDOCK:   -5.76 KCAL/MOL
REMARK 923 INTER-LIGAND FREE ENERGY PREDICTED BY IDOCK:   -5.34 KCAL/MOL
REMARK 924 INTRA-LIGAND FREE ENERGY PREDICTED BY IDOCK:   -0.43 KCAL/MOL
REMARK 927      BINDING AFFINITY PREDICTED BY RF-SCORE:    0.00 PKD
ROOT
HETATM    1  C   UNL     1     -10.372  10.663  65.061  1.00  0.00    -0.341 C  
HETATM    2  C   UNL     1     -10.097  11.538  63.786  1.00  0.00    -0.407 C  
HETATM    3  C   UNL     1      -9.616  10.772  62.586  1.00  0.00    -0.296 C  
HETATM    4  C   UNL     1      -8.757   9.571  62.926  1.00  0.00    -0.233 C  
HETATM    5  C   UNL     1      -8.181   9.469  64.342  1.00  0.00    -0.148 C  
HETATM    6  C   UNL     1      -9.052   9.973  65.545  1.00  0.00    -0.227 C  
HETATM    7  C   UNL     1      -8.128  11.039  66.420  1.00  0.00    -0.166 C  
HETATM    8  C   UNL     1      -8.737  12.250  67.312  1.00  0.00    -0.188 C  
HETATM    9  N   UNL     1     -10.158  12.738  67.032  1.00  0.00    -0.237 NA 
HETATM   10  H   UNL     1      -9.748   4.556  67.736  1.00  0.00     0.000 HD 
HETATM   11  C   UNL     1     -10.820  11.585  66.282  1.00  0.00    -0.282 C  
HETATM   12  C   UNL     1     -11.020  10.612  67.521  1.00  0.00    -0.371 C  
HETATM   13  C   UNL     1     -10.717   8.300  68.527  1.00  0.00    -0.065 A  
HETATM   14  C   UNL     1     -10.392   9.231  67.515  1.00  0.00    -0.323 A  
HETATM   15  O   UNL     1      -9.467   5.192  67.089  1.00  0.00    -0.120 OA 
HETATM   16  C   UNL     1      -9.546   8.846  66.471  1.00  0.00    -0.297 A  
HETATM   17  C   UNL     1      -9.248   7.473  66.330  1.00  0.00    -0.194 A  
HETATM   18  C   UNL     1      -9.663   6.536  67.283  1.00  0.00    -0.132 A  
HETATM   19  C   UNL     1     -10.343   6.954  68.408  1.00  0.00    -0.213 A  
ENDROOT
BRANCH   9  20
HETATM   20  C   UNL     1     -10.154  14.009  66.241  1.00  0.00    -0.300 C  
BRANCH  20  21
HETATM   21  C   UNL     1     -11.462  14.572  65.708  1.00  0.00    -0.342 C  
HETATM   22  C   UNL     1     -11.914  14.671  64.448  1.00  0.00    -0.454 C  
ENDBRANCH  20  21
ENDBRANCH   9  20
TORSDOF 2
ENDMDL
MODEL       52
REMARK 921   NORMALIZED FREE ENERGY PREDICTED BY IDOCK:   -5.00 KCAL/MOL
REMARK 922        TOTAL FREE ENERGY PREDICTED BY IDOCK:   -5.75 KCAL/MOL
REMARK 923 INTER-LIGAND FREE ENERGY PREDICTED BY IDOCK:   -5.36 KCAL/MOL
REMARK 924 INTRA-LIGAND FREE ENERGY PREDICTED BY IDOCK:   -0.39 KCAL/MOL
REMARK 927      BINDING AFFINITY PREDICTED BY RF-SCORE:    0.00 PKD
ROOT
HETATM    1  C   UNL     1      -8.925   7.595  69.801  1.00  0.00    -0.140 C  
HETATM    2  C   UNL     1      -8.052   6.339  69.444  1.00  0.00    -0.113 C  
HETATM    3  C   UNL     1      -7.611   6.264  68.009  1.00  0.00    -0.102 C  
HETATM    4  C   UNL     1      -8.609   6.844  67.028  1.00  0.00    -0.121 C  
HETATM    5  C   UNL     1     -10.040   7.094  67.511  1.00  0.00    -0.241 C  
HETATM    6  C   UNL     1     -10.261   7.581  68.985  1.00  0.00    -0.208 C  
HETATM    7  C   UNL     1     -11.361   6.559  69.692  1.00  0.00    -0.443 C  
HETATM    8  C   UNL     1     -11.427   6.255  71.284  1.00  0.00    -0.291 C  
HETATM    9  N   UNL     1     -10.202   6.548  72.149  1.00  0.00    -0.184 NA 
HETATM   10  H   UNL     1     -12.183  12.878  67.290  1.00  0.00     0.000 HD 
HETATM   11  C   UNL     1      -9.381   7.539  71.329  1.00  0.00    -0.149 C  
HETATM   12  C   UNL     1     -10.292   8.818  71.565  1.00  0.00    -0.374 C  
HETATM   13  C   UNL     1     -11.565  10.780  70.577  1.00  0.00    -0.425 A  
HETATM   14  C   UNL     1     -10.909   9.543  70.384  1.00  0.00    -0.338 A  
HETATM   15  O   UNL     1     -11.806  12.017  67.155  1.00  0.00    -0.565 OA 
HETATM   16  C   UNL     1     -10.770   9.031  69.091  1.00  0.00    -0.176 A  
HETATM   17  C   UNL     1     -11.066   9.882  68.005  1.00  0.00    -0.220 A  
HETATM   18  C   UNL     1     -11.621  11.152  68.203  1.00  0.00    -0.280 A  
HETATM   19  C   UNL     1     -11.924  11.577  69.480  1.00  0.00    -0.402 A  
ENDROOT
BRANCH   9  20
HETATM   20  C   UNL     1      -9.442   5.297  72.463  1.00  0.00    -0.145 C  
BRANCH  20  21
HETATM   21  C   UNL     1     -10.010   3.945  72.063  1.00  0.00    -0.241 C  
HETATM   22  C   UNL     1      -9.391   2.847  71.601  1.00  0.00    -0.198 C  
ENDBRANCH  20  21
ENDBRANCH   9  20
TORSDOF 2
ENDMDL
MODEL       53
REMARK 921   NORMALIZED FREE ENERGY PREDICTED BY IDOCK:   -4.99 KCAL/MOL
REMARK 922        TOTAL FREE ENERGY PREDICTED BY IDOCK:   -5.74 KCAL/MOL
REMARK 923 INTER-LIGAND FREE ENERGY PREDICTED BY IDOCK:   -5.55 KCAL/MOL
REMARK 924 INTRA-LIGAND FREE ENERGY PREDICTED BY IDOCK:   -0.18 KCAL/MOL
REMARK 927      BINDING AFFINITY PREDICTED BY RF-SCORE:    0.00 PKD
ROOT
HETATM    1  C   UNL     1     -11.134   6.131  69.324  1.00  0.00    -0.463 C  
HETATM    2  C   UNL     1     -10.937   6.611  67.841  1.00  0.00    -0.342 C  
HETATM    3  C   UNL     1     -10.416   5.562  66.901  1.00  0.00    -0.348 C  
HETATM    4  C   UNL     1      -9.469   4.572  67.548  1.00  0.00    -0.193 C  
HETATM    5  C   UNL     1      -8.871   4.925  68.913  1.00  0.00    -0.115 C  
HETATM    6  C   UNL     1      -9.762   5.701  69.945  1.00  0.00    -0.222 C  
HETATM    7  C   UNL     1      -8.909   7.034  70.442  1.00  0.00    -0.155 C  
HETATM    8  C   UNL     1      -9.593   8.410  70.963  1.00  0.00    -0.169 C  
HETATM    9  N   UNL     1     -11.048   8.701  70.599  1.00  0.00    -0.246 NA 
HETATM   10  H   UNL     1     -10.041   1.127  73.636  1.00  0.00     0.000 HD 
HETATM   11  C   UNL     1     -11.634   7.338  70.238  1.00  0.00    -0.174 C  
HETATM   12  C   UNL     1     -11.749   6.759  71.712  1.00  0.00    -0.353 C  
HETATM   13  C   UNL     1     -11.270   4.867  73.336  1.00  0.00    -0.415 A  
HETATM   14  C   UNL     1     -11.023   5.481  72.087  1.00  0.00    -0.291 A  
HETATM   15  O   UNL     1      -9.814   1.563  72.824  1.00  0.00    -0.078 OA 
HETATM   16  C   UNL     1     -10.164   4.864  71.174  1.00  0.00    -0.261 A  
HETATM   17  C   UNL     1      -9.770   3.532  71.428  1.00  0.00    -0.236 A  
HETATM   18  C   UNL     1     -10.104   2.889  72.626  1.00  0.00    -0.159 A  
HETATM   19  C   UNL     1     -10.801   3.572  73.601  1.00  0.00    -0.324 A  
ENDROOT
BRANCH   9  20
HETATM   20  C   UNL     1     -11.145   9.682  69.472  1.00  0.00    -0.168 C  
BRANCH  20  21
HETATM   21  C   UNL     1     -11.525  11.126  69.757  1.00  0.00    -0.388 C  
HETATM   22  C   UNL     1     -12.292  11.646  70.729  1.00  0.00    -0.454 C  
ENDBRANCH  20  21
ENDBRANCH   9  20
TORSDOF 2
ENDMDL
MODEL       54
REMARK 921   NORMALIZED FREE ENERGY PREDICTED BY IDOCK:   -4.97 KCAL/MOL
REMARK 922        TOTAL FREE ENERGY PREDICTED BY IDOCK:   -5.72 KCAL/MOL
REMARK 923 INTER-LIGAND FREE ENERGY PREDICTED BY IDOCK:   -5.37 KCAL/MOL
REMARK 924 INTRA-LIGAND FREE ENERGY PREDICTED BY IDOCK:   -0.35 KCAL/MOL
REMARK 927      BINDING AFFINITY PREDICTED BY RF-SCORE:    0.00 PKD
ROOT
HETATM    1  C   UNL     1     -11.589  11.048  69.042  1.00  0.00    -0.392 C  
HETATM    2  C   UNL     1     -12.082  11.708  70.380  1.00  0.00    -0.462 C  
HETATM    3  C   UNL     1     -12.611  13.107  70.237  1.00  0.00    -0.133 C  
HETATM    4  C   UNL     1     -11.924  13.918  69.157  1.00  0.00    -0.404 C  
HETATM    5  C   UNL     1     -10.591  13.405  68.603  1.00  0.00    -0.257 C  
HETATM    6  C   UNL     1     -10.389  11.858  68.444  1.00  0.00    -0.216 C  
HETATM    7  C   UNL     1      -8.977  11.455  69.217  1.00  0.00     0.332 C  
HETATM    8  C   UNL     1      -8.677   9.997  69.862  1.00  0.00    -0.142 C  
HETATM    9  N   UNL     1      -9.849   9.070  70.181  1.00  0.00    -0.177 NA 
HETATM   10  H   UNL     1     -10.280  12.146  62.568  1.00  0.00     0.000 HD 
HETATM   11  C   UNL     1     -10.998   9.594  69.324  1.00  0.00    -0.168 C  
HETATM   12  C   UNL     1     -10.487   9.046  67.924  1.00  0.00    -0.291 C  
HETATM   13  C   UNL     1      -9.946   9.508  65.487  1.00  0.00    -0.209 A  
HETATM   14  C   UNL     1     -10.223  10.006  66.780  1.00  0.00    -0.295 A  
HETATM   15  O   UNL     1     -10.397  12.495  63.444  1.00  0.00    -0.377 OA 
HETATM   16  C   UNL     1     -10.323  11.386  66.980  1.00  0.00    -0.258 A  
HETATM   17  C   UNL     1     -10.392  12.219  65.842  1.00  0.00    -0.280 A  
HETATM   18  C   UNL     1     -10.221  11.704  64.551  1.00  0.00    -0.291 A  
HETATM   19  C   UNL     1      -9.940  10.365  64.377  1.00  0.00    -0.388 A  
ENDROOT
BRANCH   9  20
HETATM   20  C   UNL     1     -10.174   9.081  71.643  1.00  0.00    -0.348 C  
BRANCH  20  21
HETATM   21  C   UNL     1     -11.145   8.058  72.210  1.00  0.00    -0.393 C  
HETATM   22  C   UNL     1     -12.401   8.210  72.659  1.00  0.00    -0.222 C  
ENDBRANCH  20  21
ENDBRANCH   9  20
TORSDOF 2
ENDMDL
MODEL       55
REMARK 921   NORMALIZED FREE ENERGY PREDICTED BY IDOCK:   -4.89 KCAL/MOL
REMARK 922        TOTAL FREE ENERGY PREDICTED BY IDOCK:   -5.62 KCAL/MOL
REMARK 923 INTER-LIGAND FREE ENERGY PREDICTED BY IDOCK:   -5.34 KCAL/MOL
REMARK 924 INTRA-LIGAND FREE ENERGY PREDICTED BY IDOCK:   -0.29 KCAL/MOL
REMARK 927      BINDING AFFINITY PREDICTED BY RF-SCORE:    0.00 PKD
ROOT
HETATM    1  C   UNL     1     -10.051  12.537  68.566  1.00  0.00    -0.186 C  
HETATM    2  C   UNL     1     -11.157  13.650  68.480  1.00  0.00    -0.301 C  
HETATM    3  C   UNL     1     -12.019  13.778  69.703  1.00  0.00    -0.399 C  
HETATM    4  C   UNL     1     -12.263  12.469  70.425  1.00  0.00    -0.368 C  
HETATM    5  C   UNL     1     -11.948  11.165  69.688  1.00  0.00    -0.429 C  
HETATM    6  C   UNL     1     -10.708  11.125  68.728  1.00  0.00    -0.236 C  
HETATM    7  C   UNL     1     -11.229  10.557  67.259  1.00  0.00    -0.202 C  
HETATM    8  C   UNL     1     -10.529  10.923  65.841  1.00  0.00    -0.221 C  
HETATM    9  N   UNL     1      -9.635  12.159  65.751  1.00  0.00    -0.230 NA 
HETATM   10  H   UNL     1      -7.742   7.397  72.181  1.00  0.00     0.000 HD 
HETATM   11  C   UNL     1      -9.239  12.453  67.196  1.00  0.00    -0.199 C  
HETATM   12  C   UNL     1      -8.191  11.274  67.374  1.00  0.00    -0.135 C  
HETATM   13  C   UNL     1      -7.374   9.294  68.739  1.00  0.00    -0.075 A  
HETATM   14  C   UNL     1      -8.393  10.233  68.459  1.00  0.00    -0.116 A  
HETATM   15  O   UNL     1      -8.461   7.976  71.960  1.00  0.00    -0.120 OA 
HETATM   16  C   UNL     1      -9.554  10.241  69.238  1.00  0.00    -0.239 A  
HETATM   17  C   UNL     1      -9.562   9.482  70.427  1.00  0.00    -0.326 A  
HETATM   18  C   UNL     1      -8.501   8.628  70.754  1.00  0.00    -0.158 A  
HETATM   19  C   UNL     1      -7.438   8.489  69.885  1.00  0.00    -0.063 A  
ENDROOT
BRANCH   9  20
HETATM   20  C   UNL     1     -10.350  13.306  65.108  1.00  0.00    -0.323 C  
BRANCH  20  21
HETATM   21  C   UNL     1     -11.757  13.113  64.567  1.00  0.00    -0.417 C  
HETATM   22  C   UNL     1     -12.175  12.788  63.333  1.00  0.00    -0.594 C  
ENDBRANCH  20  21
ENDBRANCH   9  20
TORSDOF 2
ENDMDL
MODEL       56
REMARK 921   NORMALIZED FREE ENERGY PREDICTED BY IDOCK:   -4.84 KCAL/MOL
REMARK 922        TOTAL FREE ENERGY PREDICTED BY IDOCK:   -5.57 KCAL/MOL
REMARK 923 INTER-LIGAND FREE ENERGY PREDICTED BY IDOCK:   -5.04 KCAL/MOL
REMARK 924 INTRA-LIGAND FREE ENERGY PREDICTED BY IDOCK:   -0.52 KCAL/MOL
REMARK 927      BINDING AFFINITY PREDICTED BY RF-SCORE:    0.00 PKD
ROOT
HETATM    1  C   UNL     1      -9.100  15.308  66.973  1.00  0.00    -0.245 C  
HETATM    2  C   UNL     1      -8.022  16.438  66.798  1.00  0.00    -0.295 C  
HETATM    3  C   UNL     1      -6.601  15.954  66.756  1.00  0.00     0.300 C  
HETATM    4  C   UNL     1      -6.340  14.734  67.615  1.00  0.00    -0.139 C  
HETATM    5  C   UNL     1      -7.383  14.354  68.671  1.00  0.00    -0.123 C  
HETATM    6  C   UNL     1      -8.900  14.571  68.340  1.00  0.00    -0.180 C  
HETATM    7  C   UNL     1      -9.562  15.456  69.578  1.00  0.00    -0.259 C  
HETATM    8  C   UNL     1     -10.845  16.436  69.410  1.00  0.00    -0.327 C  
HETATM    9  N   UNL     1     -11.225  16.931  68.016  1.00  0.00    -0.183 NA 
HETATM   10  H   UNL     1     -10.035   8.798  68.228  1.00  0.00     0.000 HD 
HETATM   11  C   UNL     1     -10.561  15.942  67.062  1.00  0.00    -0.306 C  
HETATM   12  C   UNL     1     -11.557  14.726  67.288  1.00  0.00    -0.385 C  
HETATM   13  C   UNL     1     -11.880  12.265  67.822  1.00  0.00    -0.341 A  
HETATM   14  C   UNL     1     -11.033  13.396  67.795  1.00  0.00    -0.281 A  
HETATM   15  O   UNL     1      -9.475   9.563  68.280  1.00  0.00    -0.133 OA 
HETATM   16  C   UNL     1      -9.693  13.261  68.168  1.00  0.00    -0.227 A  
HETATM   17  C   UNL     1      -9.173  11.958  68.319  1.00  0.00    -0.187 A  
HETATM   18  C   UNL     1      -9.999  10.830  68.242  1.00  0.00    -0.168 A  
HETATM   19  C   UNL     1     -11.356  10.984  68.053  1.00  0.00    -0.374 A  
ENDROOT
BRANCH   9  20
HETATM   20  C   UNL     1     -10.768  18.338  67.790  1.00  0.00    -0.333 C  
BRANCH  20  21
HETATM   21  C   UNL     1      -9.887  19.023  68.823  1.00  0.00    -0.485 C  
HETATM   22  C   UNL     1      -8.611  19.431  68.741  1.00  0.00    -0.371 C  
ENDBRANCH  20  21
ENDBRANCH   9  20
TORSDOF 2
ENDMDL
MODEL       57
REMARK 921   NORMALIZED FREE ENERGY PREDICTED BY IDOCK:   -4.78 KCAL/MOL
REMARK 922        TOTAL FREE ENERGY PREDICTED BY IDOCK:   -5.51 KCAL/MOL
REMARK 923 INTER-LIGAND FREE ENERGY PREDICTED BY IDOCK:   -5.30 KCAL/MOL
REMARK 924 INTRA-LIGAND FREE ENERGY PREDICTED BY IDOCK:   -0.20 KCAL/MOL
REMARK 927      BINDING AFFINITY PREDICTED BY RF-SCORE:    0.00 PKD
ROOT
HETATM    1  C   UNL     1      -9.745   7.342  71.905  1.00  0.00    -0.179 C  
HETATM    2  C   UNL     1      -9.671   8.044  73.308  1.00  0.00    -0.308 C  
HETATM    3  C   UNL     1      -8.781   7.363  74.308  1.00  0.00    -0.264 C  
HETATM    4  C   UNL     1      -8.741   5.855  74.171  1.00  0.00    -0.122 C  
HETATM    5  C   UNL     1      -9.826   5.174  73.331  1.00  0.00    -0.170 C  
HETATM    6  C   UNL     1     -10.348   5.904  72.044  1.00  0.00    -0.250 C  
HETATM    7  C   UNL     1     -12.002   5.976  72.146  1.00  0.00    -0.261 C  
HETATM    8  C   UNL     1     -12.907   7.126  71.444  1.00  0.00    -0.384 C  
HETATM    9  N   UNL     1     -12.249   8.442  71.032  1.00  0.00    -0.223 NA 
HETATM   10  H   UNL     1      -8.026   1.885  68.428  1.00  0.00     0.000 HD 
HETATM   11  C   UNL     1     -10.759   8.117  70.948  1.00  0.00    -0.221 C  
HETATM   12  C   UNL     1     -10.795   7.300  69.587  1.00  0.00    -0.238 C  
HETATM   13  C   UNL     1     -10.177   5.193  68.312  1.00  0.00    -0.179 A  
HETATM   14  C   UNL     1     -10.318   5.860  69.550  1.00  0.00    -0.314 A  
HETATM   15  O   UNL     1      -8.180   2.296  69.269  1.00  0.00    -0.047 OA 
HETATM   16  C   UNL     1      -9.946   5.210  70.729  1.00  0.00    -0.285 A  
HETATM   17  C   UNL     1      -9.213   4.008  70.623  1.00  0.00    -0.196 A  
HETATM   18  C   UNL     1      -8.984   3.402  69.381  1.00  0.00    -0.116 A  
HETATM   19  C   UNL     1      -9.514   3.960  68.236  1.00  0.00    -0.212 A  
ENDROOT
BRANCH   9  20
HETATM   20  C   UNL     1     -12.543   9.532  72.014  1.00  0.00    -0.376 C  
BRANCH  20  21
HETATM   21  C   UNL     1     -13.006  10.893  71.518  1.00  0.00    -0.556 C  
HETATM   22  C   UNL     1     -12.318  11.876  70.915  1.00  0.00    -0.400 C  
ENDBRANCH  20  21
ENDBRANCH   9  20
TORSDOF 2
ENDMDL
MODEL       58
REMARK 921   NORMALIZED FREE ENERGY PREDICTED BY IDOCK:   -4.75 KCAL/MOL
REMARK 922        TOTAL FREE ENERGY PREDICTED BY IDOCK:   -5.47 KCAL/MOL
REMARK 923 INTER-LIGAND FREE ENERGY PREDICTED BY IDOCK:   -5.13 KCAL/MOL
REMARK 924 INTRA-LIGAND FREE ENERGY PREDICTED BY IDOCK:   -0.34 KCAL/MOL
REMARK 927      BINDING AFFINITY PREDICTED BY RF-SCORE:    0.00 PKD
ROOT
HETATM    1  C   UNL     1      -8.876  12.053  68.227  1.00  0.00    -0.182 C  
HETATM    2  C   UNL     1      -7.596  11.720  67.378  1.00  0.00    -0.143 C  
HETATM    3  C   UNL     1      -6.539  12.788  67.384  1.00  0.00    -0.140 C  
HETATM    4  C   UNL     1      -7.087  14.197  67.477  1.00  0.00    -0.184 C  
HETATM    5  C   UNL     1      -8.576  14.416  67.193  1.00  0.00    -0.237 C  
HETATM    6  C   UNL     1      -9.598  13.319  67.654  1.00  0.00    -0.213 C  
HETATM    7  C   UNL     1     -10.523  12.911  66.337  1.00  0.00    -0.278 C  
HETATM    8  C   UNL     1     -11.227  11.463  66.134  1.00  0.00    -0.137 C  
HETATM    9  N   UNL     1     -10.705  10.265  66.925  1.00  0.00    -0.218 NA 
HETATM   10  H   UNL     1     -12.037  16.823  71.702  1.00  0.00     0.000 HD 
HETATM   11  C   UNL     1      -9.948  10.880  68.100  1.00  0.00    -0.174 C  
HETATM   12  C   UNL     1     -11.209  11.339  68.948  1.00  0.00    -0.315 C  
HETATM   13  C   UNL     1     -12.410  13.186  70.211  1.00  0.00    -0.319 A  
HETATM   14  C   UNL     1     -11.394  12.802  69.307  1.00  0.00    -0.307 A  
HETATM   15  O   UNL     1     -11.396  16.589  71.042  1.00  0.00    -0.307 OA 
HETATM   16  C   UNL     1     -10.517  13.768  68.805  1.00  0.00    -0.224 A  
HETATM   17  C   UNL     1     -10.519  15.044  69.407  1.00  0.00    -0.254 A  
HETATM   18  C   UNL     1     -11.464  15.389  70.381  1.00  0.00    -0.330 A  
HETATM   19  C   UNL     1     -12.443  14.485  70.740  1.00  0.00    -0.420 A  
ENDROOT
BRANCH   9  20
HETATM   20  C   UNL     1      -9.835   9.387  66.080  1.00  0.00    -0.285 C  
BRANCH  20  21
HETATM   21  C   UNL     1      -9.176   9.951  64.832  1.00  0.00    -0.301 C  
HETATM   22  C   UNL     1      -8.255   9.411  64.018  1.00  0.00    -0.163 C  
ENDBRANCH  20  21
ENDBRANCH   9  20
TORSDOF 2
ENDMDL
MODEL       59
REMARK 921   NORMALIZED FREE ENERGY PREDICTED BY IDOCK:   -4.71 KCAL/MOL
REMARK 922        TOTAL FREE ENERGY PREDICTED BY IDOCK:   -5.43 KCAL/MOL
REMARK 923 INTER-LIGAND FREE ENERGY PREDICTED BY IDOCK:   -5.24 KCAL/MOL
REMARK 924 INTRA-LIGAND FREE ENERGY PREDICTED BY IDOCK:   -0.18 KCAL/MOL
REMARK 927      BINDING AFFINITY PREDICTED BY RF-SCORE:    0.00 PKD
ROOT
HETATM    1  C   UNL     1     -10.375   8.165  71.073  1.00  0.00    -0.229 C  
HETATM    2  C   UNL     1     -11.182   9.468  70.730  1.00  0.00    -0.383 C  
HETATM    3  C   UNL     1     -12.342   9.750  71.642  1.00  0.00    -0.495 C  
HETATM    4  C   UNL     1     -13.028   8.506  72.168  1.00  0.00    -0.403 C  
HETATM    5  C   UNL     1     -12.739   7.171  71.477  1.00  0.00    -0.433 C  
HETATM    6  C   UNL     1     -11.292   6.903  70.936  1.00  0.00    -0.348 C  
HETATM    7  C   UNL     1     -11.427   6.455  69.343  1.00  0.00    -0.374 C  
HETATM    8  C   UNL     1     -10.269   6.691  68.231  1.00  0.00    -0.171 C  
HETATM    9  N   UNL     1      -9.184   7.735  68.497  1.00  0.00    -0.138 NA 
HETATM   10  H   UNL     1     -10.257   2.651  74.870  1.00  0.00     0.000 HD 
HETATM   11  C   UNL     1      -9.208   7.937  70.009  1.00  0.00    -0.153 C  
HETATM   12  C   UNL     1      -8.496   6.578  70.418  1.00  0.00    -0.131 C  
HETATM   13  C   UNL     1      -8.510   4.469  71.832  1.00  0.00    -0.116 A  
HETATM   14  C   UNL     1      -9.207   5.587  71.320  1.00  0.00    -0.169 A  
HETATM   15  O   UNL     1     -10.757   3.358  74.480  1.00  0.00    -0.177 OA 
HETATM   16  C   UNL     1     -10.530   5.811  71.710  1.00  0.00    -0.281 A  
HETATM   17  C   UNL     1     -11.041   5.058  72.789  1.00  0.00    -0.310 A  
HETATM   18  C   UNL     1     -10.305   4.016  73.364  1.00  0.00    -0.162 A  
HETATM   19  C   UNL     1      -9.069   3.683  72.850  1.00  0.00    -0.117 A  
ENDROOT
BRANCH   9  20
HETATM   20  C   UNL     1      -9.448   9.002  67.745  1.00  0.00    -0.141 C  
BRANCH  20  21
HETATM   21  C   UNL     1      -9.542   8.977  66.228  1.00  0.00    -0.327 C  
HETATM   22  C   UNL     1      -8.622   9.273  65.297  1.00  0.00    -0.188 C  
ENDBRANCH  20  21
ENDBRANCH   9  20
TORSDOF 2
ENDMDL
MODEL       60
REMARK 921   NORMALIZED FREE ENERGY PREDICTED BY IDOCK:   -4.66 KCAL/MOL
REMARK 922        TOTAL FREE ENERGY PREDICTED BY IDOCK:   -5.36 KCAL/MOL
REMARK 923 INTER-LIGAND FREE ENERGY PREDICTED BY IDOCK:   -5.16 KCAL/MOL
REMARK 924 INTRA-LIGAND FREE ENERGY PREDICTED BY IDOCK:   -0.20 KCAL/MOL
REMARK 927      BINDING AFFINITY PREDICTED BY RF-SCORE:    0.00 PKD
ROOT
HETATM    1  C   UNL     1     -11.751  11.817  68.200  1.00  0.00    -0.377 C  
HETATM    2  C   UNL     1     -12.086  11.178  69.596  1.00  0.00    -0.406 C  
HETATM    3  C   UNL     1     -12.616  12.141  70.620  1.00  0.00    -0.255 C  
HETATM    4  C   UNL     1     -12.047  13.540  70.503  1.00  0.00    -0.409 C  
HETATM    5  C   UNL     1     -10.789  13.742  69.653  1.00  0.00     0.077 C  
HETATM    6  C   UNL     1     -10.619  12.889  68.348  1.00  0.00    -0.267 C  
HETATM    7  C   UNL     1      -9.132  12.154  68.420  1.00  0.00    -0.151 C  
HETATM    8  C   UNL     1      -8.775  10.751  67.687  1.00  0.00    -0.126 C  
HETATM    9  N   UNL     1      -9.912   9.820  67.269  1.00  0.00    -0.180 NA 
HETATM   10  H   UNL     1     -11.164  17.570  64.826  1.00  0.00     0.000 HD 
HETATM   11  C   UNL     1     -11.145  10.718  67.216  1.00  0.00    -0.270 C  
HETATM   12  C   UNL     1     -10.798  11.477  65.866  1.00  0.00    -0.316 C  
HETATM   13  C   UNL     1     -10.529  13.679  64.629  1.00  0.00    -0.442 A  
HETATM   14  C   UNL     1     -10.655  12.988  65.856  1.00  0.00    -0.288 A  
HETATM   15  O   UNL     1     -11.179  17.116  65.659  1.00  0.00     0.138 OA 
HETATM   16  C   UNL     1     -10.721  13.711  67.050  1.00  0.00    -0.278 A  
HETATM   17  C   UNL     1     -10.909  15.107  66.972  1.00  0.00    -0.314 A  
HETATM   18  C   UNL     1     -10.888  15.778  65.743  1.00  0.00    -0.280 A  
HETATM   19  C   UNL     1     -10.639  15.076  64.581  1.00  0.00    -0.185 A  
ENDROOT
BRANCH   9  20
HETATM   20  C   UNL     1     -10.072   8.685  68.232  1.00  0.00    -0.192 C  
BRANCH  20  21
HETATM   21  C   UNL     1     -10.693   7.378  67.765  1.00  0.00    -0.249 C  
HETATM   22  C   UNL     1     -10.866   6.218  68.419  1.00  0.00    -0.394 C  
ENDBRANCH  20  21
ENDBRANCH   9  20
TORSDOF 2
ENDMDL
MODEL       61
REMARK 921   NORMALIZED FREE ENERGY PREDICTED BY IDOCK:   -4.64 KCAL/MOL
REMARK 922        TOTAL FREE ENERGY PREDICTED BY IDOCK:   -5.35 KCAL/MOL
REMARK 923 INTER-LIGAND FREE ENERGY PREDICTED BY IDOCK:   -5.17 KCAL/MOL
REMARK 924 INTRA-LIGAND FREE ENERGY PREDICTED BY IDOCK:   -0.18 KCAL/MOL
REMARK 927      BINDING AFFINITY PREDICTED BY RF-SCORE:    0.00 PKD
ROOT
HETATM    1  C   UNL     1      -9.299  11.152  68.503  1.00  0.00    -0.190 C  
HETATM    2  C   UNL     1      -8.211  10.340  69.293  1.00  0.00    -0.164 C  
HETATM    3  C   UNL     1      -6.955  11.104  69.604  1.00  0.00    -0.088 C  
HETATM    4  C   UNL     1      -6.576  12.122  68.547  1.00  0.00    -0.063 C  
HETATM    5  C   UNL     1      -7.247  12.025  67.174  1.00  0.00    -0.131 C  
HETATM    6  C   UNL     1      -8.750  11.582  67.102  1.00  0.00    -0.160 C  
HETATM    7  C   UNL     1      -8.848  10.319  66.029  1.00  0.00    -0.166 C  
HETATM    8  C   UNL     1      -9.983   9.160  66.091  1.00  0.00    -0.268 C  
HETATM    9  N   UNL     1     -10.741   8.931  67.397  1.00  0.00    -0.230 NA 
HETATM   10  H   UNL     1     -10.559  16.864  65.245  1.00  0.00     0.000 HD 
HETATM   11  C   UNL     1     -10.558  10.227  68.181  1.00  0.00    -0.221 C  
HETATM   12  C   UNL     1     -11.564  11.126  67.344  1.00  0.00    -0.157 C  
HETATM   13  C   UNL     1     -11.992  13.278  66.067  1.00  0.00    -0.473 A  
HETATM   14  C   UNL     1     -11.070  12.384  66.655  1.00  0.00    -0.336 A  
HETATM   15  O   UNL     1      -9.924  16.240  65.575  1.00  0.00    -0.491 OA 
HETATM   16  C   UNL     1      -9.709  12.703  66.660  1.00  0.00    -0.249 A  
HETATM   17  C   UNL     1      -9.333  14.016  66.303  1.00  0.00    -0.199 A  
HETATM   18  C   UNL     1     -10.270  14.936  65.817  1.00  0.00    -0.336 A  
HETATM   19  C   UNL     1     -11.584  14.551  65.644  1.00  0.00    -0.344 A  
ENDROOT
BRANCH   9  20
HETATM   20  C   UNL     1     -10.215   7.738  68.133  1.00  0.00    -0.202 C  
BRANCH  20  21
HETATM   21  C   UNL     1     -10.864   6.378  67.933  1.00  0.00    -0.404 C  
HETATM   22  C   UNL     1     -10.559   5.388  67.080  1.00  0.00    -0.298 C  
ENDBRANCH  20  21
ENDBRANCH   9  20
TORSDOF 2
ENDMDL
MODEL       62
REMARK 921   NORMALIZED FREE ENERGY PREDICTED BY IDOCK:   -4.57 KCAL/MOL
REMARK 922        TOTAL FREE ENERGY PREDICTED BY IDOCK:   -5.27 KCAL/MOL
REMARK 923 INTER-LIGAND FREE ENERGY PREDICTED BY IDOCK:   -4.93 KCAL/MOL
REMARK 924 INTRA-LIGAND FREE ENERGY PREDICTED BY IDOCK:   -0.34 KCAL/MOL
REMARK 927      BINDING AFFINITY PREDICTED BY RF-SCORE:    0.00 PKD
ROOT
HETATM    1  C   UNL     1     -10.706  10.624  70.179  1.00  0.00    -0.151 C  
HETATM    2  C   UNL     1     -12.171  11.148  69.963  1.00  0.00    -0.402 C  
HETATM    3  C   UNL     1     -13.064  11.041  71.166  1.00  0.00    -0.326 C  
HETATM    4  C   UNL     1     -12.770   9.845  72.048  1.00  0.00    -0.456 C  
HETATM    5  C   UNL     1     -11.902   8.720  71.476  1.00  0.00    -0.377 C  
HETATM    6  C   UNL     1     -10.717   9.096  70.520  1.00  0.00    -0.289 C  
HETATM    7  C   UNL     1     -10.884   8.194  69.137  1.00  0.00    -0.033 C  
HETATM    8  C   UNL     1     -10.336   8.655  67.680  1.00  0.00    -0.254 C  
HETATM    9  N   UNL     1     -10.040  10.133  67.430  1.00  0.00    -0.194 NA 
HETATM   10  H   UNL     1      -6.624   7.394  74.390  1.00  0.00     0.000 HD 
HETATM   11  C   UNL     1      -9.871  10.732  68.824  1.00  0.00    -0.194 C  
HETATM   12  C   UNL     1      -8.435  10.134  69.141  1.00  0.00    -0.157 C  
HETATM   13  C   UNL     1      -6.928   8.856  70.736  1.00  0.00    -0.074 A  
HETATM   14  C   UNL     1      -8.232   9.239  70.349  1.00  0.00    -0.199 A  
HETATM   15  O   UNL     1      -7.509   7.586  74.104  1.00  0.00    -0.112 OA 
HETATM   16  C   UNL     1      -9.324   8.847  71.128  1.00  0.00    -0.326 A  
HETATM   17  C   UNL     1      -9.068   8.298  72.403  1.00  0.00    -0.307 A  
HETATM   18  C   UNL     1      -7.763   8.016  72.826  1.00  0.00    -0.128 A  
HETATM   19  C   UNL     1      -6.701   8.239  71.974  1.00  0.00    -0.080 A  
ENDROOT
BRANCH   9  20
HETATM   20  C   UNL     1     -11.140  10.788  66.655  1.00  0.00    -0.035 C  
BRANCH  20  21
HETATM   21  C   UNL     1     -11.160  12.300  66.501  1.00  0.00    -0.343 C  
HETATM   22  C   UNL     1     -12.098  13.106  65.977  1.00  0.00    -0.495 C  
ENDBRANCH  20  21
ENDBRANCH   9  20
TORSDOF 2
ENDMDL
MODEL       63
REMARK 921   NORMALIZED FREE ENERGY PREDICTED BY IDOCK:   -4.54 KCAL/MOL
REMARK 922        TOTAL FREE ENERGY PREDICTED BY IDOCK:   -5.24 KCAL/MOL
REMARK 923 INTER-LIGAND FREE ENERGY PREDICTED BY IDOCK:   -4.94 KCAL/MOL
REMARK 924 INTRA-LIGAND FREE ENERGY PREDICTED BY IDOCK:   -0.30 KCAL/MOL
REMARK 927      BINDING AFFINITY PREDICTED BY RF-SCORE:    0.00 PKD
ROOT
HETATM    1  C   UNL     1     -10.815   7.619  68.741  1.00  0.00    -0.025 C  
HETATM    2  C   UNL     1     -10.707   7.441  67.184  1.00  0.00    -0.400 C  
HETATM    3  C   UNL     1     -10.761   6.018  66.706  1.00  0.00    -0.374 C  
HETATM    4  C   UNL     1     -10.141   5.022  67.665  1.00  0.00    -0.192 C  
HETATM    5  C   UNL     1      -9.240   5.556  68.782  1.00  0.00    -0.142 C  
HETATM    6  C   UNL     1      -9.608   6.924  69.456  1.00  0.00    -0.148 C  
HETATM    7  C   UNL     1      -8.262   7.892  69.393  1.00  0.00    -0.130 C  
HETATM    8  C   UNL     1      -8.309   9.514  69.362  1.00  0.00    -0.140 C  
HETATM    9  N   UNL     1      -9.601  10.212  68.939  1.00  0.00    -0.175 NA 
HETATM   10  H   UNL     1     -10.901   4.406  74.614  1.00  0.00     0.000 HD 
HETATM   11  C   UNL     1     -10.689   9.159  69.135  1.00  0.00    -0.172 C  
HETATM   12  C   UNL     1     -10.760   9.218  70.720  1.00  0.00    -0.350 C  
HETATM   13  C   UNL     1     -10.732   7.974  72.934  1.00  0.00    -0.403 A  
HETATM   14  C   UNL     1     -10.491   7.971  71.541  1.00  0.00    -0.265 A  
HETATM   15  O   UNL     1     -10.670   4.409  73.693  1.00  0.00    -0.206 OA 
HETATM   16  C   UNL     1     -10.075   6.791  70.917  1.00  0.00    -0.207 A  
HETATM   17  C   UNL     1     -10.151   5.589  71.652  1.00  0.00    -0.249 A  
HETATM   18  C   UNL     1     -10.492   5.585  73.010  1.00  0.00    -0.212 A  
HETATM   19  C   UNL     1     -10.724   6.777  73.664  1.00  0.00    -0.280 A  
ENDROOT
BRANCH   9  20
HETATM   20  C   UNL     1      -9.522  10.699  67.526  1.00  0.00    -0.153 C  
BRANCH  20  21
HETATM   21  C   UNL     1     -10.670  11.504  66.938  1.00  0.00    -0.304 C  
HETATM   22  C   UNL     1     -11.655  12.182  67.547  1.00  0.00    -0.413 C  
ENDBRANCH  20  21
ENDBRANCH   9  20
TORSDOF 2
ENDMDL
MODEL       64
REMARK 921   NORMALIZED FREE ENERGY PREDICTED BY IDOCK:   -4.54 KCAL/MOL
REMARK 922        TOTAL FREE ENERGY PREDICTED BY IDOCK:   -5.24 KCAL/MOL
REMARK 923 INTER-LIGAND FREE ENERGY PREDICTED BY IDOCK:   -4.82 KCAL/MOL
REMARK 924 INTRA-LIGAND FREE ENERGY PREDICTED BY IDOCK:   -0.42 KCAL/MOL
REMARK 927      BINDING AFFINITY PREDICTED BY RF-SCORE:    0.00 PKD
ROOT
HETATM    1  C   UNL     1      -9.408   6.550  70.204  1.00  0.00    -0.162 C  
HETATM    2  C   UNL     1      -9.323   5.031  70.594  1.00  0.00    -0.216 C  
HETATM    3  C   UNL     1      -9.163   4.089  69.434  1.00  0.00    -0.216 C  
HETATM    4  C   UNL     1      -9.859   4.547  68.169  1.00  0.00    -0.152 C  
HETATM    5  C   UNL     1     -10.906   5.659  68.279  1.00  0.00    -0.159 C  
HETATM    6  C   UNL     1     -10.668   6.815  69.312  1.00  0.00    -0.288 C  
HETATM    7  C   UNL     1     -12.029   6.934  70.253  1.00  0.00    -0.257 C  
HETATM    8  C   UNL     1     -12.034   7.487  71.779  1.00  0.00    -0.301 C  
HETATM    9  N   UNL     1     -10.726   7.504  72.568  1.00  0.00    -0.259 NA 
HETATM   10  H   UNL     1      -9.918  10.861  65.106  1.00  0.00     0.000 HD 
HETATM   11  C   UNL     1      -9.634   7.446  71.503  1.00  0.00    -0.151 C  
HETATM   12  C   UNL     1      -9.756   8.944  70.992  1.00  0.00    -0.320 C  
HETATM   13  C   UNL     1     -10.006  10.550  69.041  1.00  0.00    -0.223 A  
HETATM   14  C   UNL     1     -10.078   9.229  69.537  1.00  0.00    -0.205 A  
HETATM   15  O   UNL     1     -10.037   9.980  65.439  1.00  0.00    -0.310 OA 
HETATM   16  C   UNL     1     -10.375   8.180  68.662  1.00  0.00    -0.224 A  
HETATM   17  C   UNL     1     -10.348   8.443  67.276  1.00  0.00    -0.369 A  
HETATM   18  C   UNL     1     -10.172   9.743  66.784  1.00  0.00    -0.233 A  
HETATM   19  C   UNL     1     -10.061  10.800  67.662  1.00  0.00    -0.205 A  
ENDROOT
BRANCH   9  20
HETATM   20  C   UNL     1     -10.651   6.358  73.528  1.00  0.00    -0.276 C  
BRANCH  20  21
HETATM   21  C   UNL     1      -9.402   6.158  74.372  1.00  0.00    -0.181 C  
HETATM   22  C   UNL     1      -8.436   5.231  74.285  1.00  0.00    -0.110 C  
ENDBRANCH  20  21
ENDBRANCH   9  20
TORSDOF 2
ENDMDL
MODEL       65
REMARK 921   NORMALIZED FREE ENERGY PREDICTED BY IDOCK:   -4.53 KCAL/MOL
REMARK 922        TOTAL FREE ENERGY PREDICTED BY IDOCK:   -5.23 KCAL/MOL
REMARK 923 INTER-LIGAND FREE ENERGY PREDICTED BY IDOCK:   -4.92 KCAL/MOL
REMARK 924 INTRA-LIGAND FREE ENERGY PREDICTED BY IDOCK:   -0.31 KCAL/MOL
REMARK 927      BINDING AFFINITY PREDICTED BY RF-SCORE:    0.00 PKD
ROOT
HETATM    1  C   UNL     1      -8.951  10.847  67.845  1.00  0.00    -0.141 C  
HETATM    2  C   UNL     1      -8.398  12.229  68.349  1.00  0.00    -0.144 C  
HETATM    3  C   UNL     1      -7.029  12.174  68.965  1.00  0.00    -0.086 C  
HETATM    4  C   UNL     1      -6.737  10.885  69.704  1.00  0.00    -0.131 C  
HETATM    5  C   UNL     1      -7.912   9.969  70.057  1.00  0.00    -0.166 C  
HETATM    6  C   UNL     1      -9.103   9.850  69.043  1.00  0.00    -0.164 C  
HETATM    7  C   UNL     1     -10.504  10.157  69.877  1.00  0.00    -0.322 C  
HETATM    8  C   UNL     1     -11.850  10.764  69.203  1.00  0.00    -0.275 C  
HETATM    9  N   UNL     1     -11.746  11.495  67.865  1.00  0.00    -0.558 NA 
HETATM   10  H   UNL     1      -7.883   4.238  67.764  1.00  0.00     0.000 HD 
HETATM   11  C   UNL     1     -10.427  11.016  67.266  1.00  0.00    -0.231 C  
HETATM   12  C   UNL     1     -10.902   9.564  66.836  1.00  0.00    -0.085 C  
HETATM   13  C   UNL     1     -10.499   7.057  66.872  1.00  0.00    -0.356 A  
HETATM   14  C   UNL     1     -10.201   8.338  67.390  1.00  0.00    -0.326 A  
HETATM   15  O   UNL     1      -7.722   5.082  68.168  1.00  0.00    -0.082 OA 
HETATM   16  C   UNL     1      -9.205   8.473  68.362  1.00  0.00    -0.135 A  
HETATM   17  C   UNL     1      -8.364   7.367  68.609  1.00  0.00    -0.129 A  
HETATM   18  C   UNL     1      -8.601   6.122  68.012  1.00  0.00    -0.115 A  
HETATM   19  C   UNL     1      -9.698   5.951  67.193  1.00  0.00    -0.145 A  
ENDROOT
BRANCH   9  20
HETATM   20  C   UNL     1     -11.786  12.980  68.049  1.00  0.00    -0.347 C  
BRANCH  20  21
HETATM   21  C   UNL     1     -11.826  13.893  66.834  1.00  0.00    -0.453 C  
HETATM   22  C   UNL     1     -12.568  13.818  65.717  1.00  0.00    -0.525 C  
ENDBRANCH  20  21
ENDBRANCH   9  20
TORSDOF 2
ENDMDL
MODEL       66
REMARK 921   NORMALIZED FREE ENERGY PREDICTED BY IDOCK:   -4.52 KCAL/MOL
REMARK 922        TOTAL FREE ENERGY PREDICTED BY IDOCK:   -5.21 KCAL/MOL
REMARK 923 INTER-LIGAND FREE ENERGY PREDICTED BY IDOCK:   -4.84 KCAL/MOL
REMARK 924 INTRA-LIGAND FREE ENERGY PREDICTED BY IDOCK:   -0.37 KCAL/MOL
REMARK 927      BINDING AFFINITY PREDICTED BY RF-SCORE:    0.00 PKD
ROOT
HETATM    1  C   UNL     1      -9.376  11.057  68.679  1.00  0.00    -0.196 C  
HETATM    2  C   UNL     1      -9.685  12.374  67.881  1.00  0.00    -0.204 C  
HETATM    3  C   UNL     1     -10.643  13.313  68.559  1.00  0.00    -0.270 C  
HETATM    4  C   UNL     1     -11.704  12.617  69.387  1.00  0.00    -0.387 C  
HETATM    5  C   UNL     1     -11.924  11.117  69.173  1.00  0.00    -0.413 C  
HETATM    6  C   UNL     1     -10.681  10.212  68.866  1.00  0.00    -0.249 C  
HETATM    7  C   UNL     1     -11.015   9.352  67.487  1.00  0.00    -0.088 C  
HETATM    8  C   UNL     1      -9.884   8.807  66.458  1.00  0.00    -0.279 C  
HETATM    9  N   UNL     1      -8.495   9.443  66.475  1.00  0.00    -0.131 NA 
HETATM   10  H   UNL     1     -11.076   7.366  74.001  1.00  0.00     0.000 HD 
HETATM   11  C   UNL     1      -8.398  10.116  67.842  1.00  0.00    -0.117 C  
HETATM   12  C   UNL     1      -8.194   8.803  68.712  1.00  0.00    -0.116 C  
HETATM   13  C   UNL     1      -8.901   7.399  70.706  1.00  0.00    -0.149 A  
HETATM   14  C   UNL     1      -9.178   8.461  69.815  1.00  0.00    -0.157 A  
HETATM   15  O   UNL     1     -11.308   8.037  73.370  1.00  0.00    -0.181 OA 
HETATM   16  C   UNL     1     -10.325   9.236  70.003  1.00  0.00    -0.245 A  
HETATM   17  C   UNL     1     -11.033   9.092  71.216  1.00  0.00    -0.400 A  
HETATM   18  C   UNL     1     -10.690   8.104  72.147  1.00  0.00    -0.293 A  
HETATM   19  C   UNL     1      -9.666   7.223  71.868  1.00  0.00    -0.171 A  
ENDROOT
BRANCH   9  20
HETATM   20  C   UNL     1      -8.322  10.411  65.347  1.00  0.00    -0.165 C  
BRANCH  20  21
HETATM   21  C   UNL     1      -9.506  10.760  64.459  1.00  0.00    -0.297 C  
HETATM   22  C   UNL     1      -9.574  11.544  63.372  1.00  0.00    -0.330 C  
ENDBRANCH  20  21
ENDBRANCH   9  20
TORSDOF 2
ENDMDL
MODEL       67
REMARK 921   NORMALIZED FREE ENERGY PREDICTED BY IDOCK:   -4.47 KCAL/MOL
REMARK 922        TOTAL FREE ENERGY PREDICTED BY IDOCK:   -5.16 KCAL/MOL
REMARK 923 INTER-LIGAND FREE ENERGY PREDICTED BY IDOCK:   -4.67 KCAL/MOL
REMARK 924 INTRA-LIGAND FREE ENERGY PREDICTED BY IDOCK:   -0.50 KCAL/MOL
REMARK 927      BINDING AFFINITY PREDICTED BY RF-SCORE:    0.00 PKD
ROOT
HETATM    1  C   UNL     1      -8.576   8.349  68.164  1.00  0.00    -0.139 C  
HETATM    2  C   UNL     1      -7.571   7.272  67.617  1.00  0.00    -0.110 C  
HETATM    3  C   UNL     1      -6.957   7.600  66.286  1.00  0.00    -0.066 C  
HETATM    4  C   UNL     1      -7.871   8.377  65.360  1.00  0.00    -0.108 C  
HETATM    5  C   UNL     1      -9.365   8.427  65.691  1.00  0.00    -0.065 C  
HETATM    6  C   UNL     1      -9.799   8.495  67.197  1.00  0.00    -0.269 C  
HETATM    7  C   UNL     1     -10.893   7.275  67.459  1.00  0.00    -0.284 C  
HETATM    8  C   UNL     1     -11.127   6.556  68.895  1.00  0.00    -0.301 C  
HETATM    9  N   UNL     1     -10.041   6.660  69.964  1.00  0.00    -0.175 NA 
HETATM   10  H   UNL     1     -11.908  13.964  66.681  1.00  0.00     0.000 HD 
HETATM   11  C   UNL     1      -9.206   7.869  69.548  1.00  0.00    -0.152 C  
HETATM   12  C   UNL     1     -10.236   8.998  69.980  1.00  0.00    -0.222 C  
HETATM   13  C   UNL     1     -11.529  11.096  69.367  1.00  0.00    -0.368 A  
HETATM   14  C   UNL     1     -10.760   9.984  68.953  1.00  0.00    -0.243 A  
HETATM   15  O   UNL     1     -11.452  13.187  66.381  1.00  0.00    -0.308 OA 
HETATM   16  C   UNL     1     -10.428   9.841  67.603  1.00  0.00    -0.305 A  
HETATM   17  C   UNL     1     -10.656  10.936  66.743  1.00  0.00    -0.313 A  
HETATM   18  C   UNL     1     -11.328  12.083  67.186  1.00  0.00    -0.333 A  
HETATM   19  C   UNL     1     -11.815  12.139  68.475  1.00  0.00    -0.365 A  
ENDROOT
BRANCH   9  20
HETATM   20  C   UNL     1      -9.230   5.405  70.046  1.00  0.00    -0.138 C  
BRANCH  20  21
HETATM   21  C   UNL     1      -9.507   4.260  69.085  1.00  0.00    -0.245 C  
HETATM   22  C   UNL     1      -8.928   3.952  67.913  1.00  0.00    -0.155 C  
ENDBRANCH  20  21
ENDBRANCH   9  20
TORSDOF 2
ENDMDL
MODEL       68
REMARK 921   NORMALIZED FREE ENERGY PREDICTED BY IDOCK:   -4.42 KCAL/MOL
REMARK 922        TOTAL FREE ENERGY PREDICTED BY IDOCK:   -5.11 KCAL/MOL
REMARK 923 INTER-LIGAND FREE ENERGY PREDICTED BY IDOCK:   -4.74 KCAL/MOL
REMARK 924 INTRA-LIGAND FREE ENERGY PREDICTED BY IDOCK:   -0.37 KCAL/MOL
REMARK 927      BINDING AFFINITY PREDICTED BY RF-SCORE:    0.00 PKD
ROOT
HETATM    1  C   UNL     1      -8.770   9.616  68.386  1.00  0.00    -0.120 C  
HETATM    2  C   UNL     1      -8.065  10.129  67.079  1.00  0.00    -0.117 C  
HETATM    3  C   UNL     1      -8.445  11.521  66.662  1.00  0.00    -0.172 C  
HETATM    4  C   UNL     1      -9.875  11.895  66.992  1.00  0.00    -0.206 C  
HETATM    5  C   UNL     1     -10.853  10.773  67.354  1.00  0.00    -0.345 C  
HETATM    6  C   UNL     1     -10.321   9.551  68.181  1.00  0.00    -0.251 C  
HETATM    7  C   UNL     1     -10.738   8.170  67.360  1.00  0.00    -0.247 C  
HETATM    8  C   UNL     1      -9.912   6.776  67.446  1.00  0.00    -0.148 C  
HETATM    9  N   UNL     1      -8.464   6.798  67.934  1.00  0.00    -0.119 NA 
HETATM   10  H   UNL     1     -13.507  10.955  72.924  1.00  0.00     0.000 HD 
HETATM   11  C   UNL     1      -8.337   8.113  68.698  1.00  0.00    -0.126 C  
HETATM   12  C   UNL     1      -9.139   7.683  69.999  1.00  0.00    -0.151 C  
HETATM   13  C   UNL     1     -10.981   8.192  71.671  1.00  0.00    -0.306 A  
HETATM   14  C   UNL     1     -10.374   8.455  70.422  1.00  0.00    -0.219 A  
HETATM   15  O   UNL     1     -13.153  11.096  72.054  1.00  0.00    -0.492 OA 
HETATM   16  C   UNL     1     -10.877   9.480  69.615  1.00  0.00    -0.255 A  
HETATM   17  C   UNL     1     -11.809  10.376  70.182  1.00  0.00    -0.379 A  
HETATM   18  C   UNL     1     -12.332  10.168  71.465  1.00  0.00    -0.408 A  
HETATM   19  C   UNL     1     -11.965   9.049  72.183  1.00  0.00    -0.395 A  
ENDROOT
BRANCH   9  20
HETATM   20  C   UNL     1      -7.500   6.703  66.793  1.00  0.00    -0.079 C  
BRANCH  20  21
HETATM   21  C   UNL     1      -8.002   6.841  65.364  1.00  0.00    -0.121 C  
HETATM   22  C   UNL     1      -7.350   6.703  64.199  1.00  0.00    -0.078 C  
ENDBRANCH  20  21
ENDBRANCH   9  20
TORSDOF 2
ENDMDL
MODEL       69
REMARK 921   NORMALIZED FREE ENERGY PREDICTED BY IDOCK:   -4.42 KCAL/MOL
REMARK 922        TOTAL FREE ENERGY PREDICTED BY IDOCK:   -5.10 KCAL/MOL
REMARK 923 INTER-LIGAND FREE ENERGY PREDICTED BY IDOCK:   -4.83 KCAL/MOL
REMARK 924 INTRA-LIGAND FREE ENERGY PREDICTED BY IDOCK:   -0.27 KCAL/MOL
REMARK 927      BINDING AFFINITY PREDICTED BY RF-SCORE:    0.00 PKD
ROOT
HETATM    1  C   UNL     1      -8.727  11.182  68.645  1.00  0.00    -0.153 C  
HETATM    2  C   UNL     1      -7.404  10.446  69.066  1.00  0.00    -0.097 C  
HETATM    3  C   UNL     1      -6.150  11.005  68.456  1.00  0.00    -0.042 C  
HETATM    4  C   UNL     1      -6.339  11.564  67.061  1.00  0.00    -0.133 C  
HETATM    5  C   UNL     1      -7.615  11.195  66.299  1.00  0.00    -0.075 C  
HETATM    6  C   UNL     1      -8.955  11.056  67.101  1.00  0.00    -0.145 C  
HETATM    7  C   UNL     1      -9.608   9.575  66.732  1.00  0.00    -0.229 C  
HETATM    8  C   UNL     1     -10.578   8.736  67.727  1.00  0.00    -0.191 C  
HETATM    9  N   UNL     1     -10.573   9.062  69.220  1.00  0.00    -0.227 NA 
HETATM   10  H   UNL     1     -11.352  15.788  64.555  1.00  0.00     0.000 HD 
HETATM   11  C   UNL     1      -9.993  10.471  69.304  1.00  0.00    -0.213 C  
HETATM   12  C   UNL     1     -11.267  11.258  68.776  1.00  0.00    -0.311 C  
HETATM   13  C   UNL     1     -12.241  12.969  67.173  1.00  0.00    -0.200 A  
HETATM   14  C   UNL     1     -11.165  12.128  67.537  1.00  0.00    -0.357 A  
HETATM   15  O   UNL     1     -10.649  15.179  64.748  1.00  0.00    -0.398 OA 
HETATM   16  C   UNL     1      -9.983  12.159  66.792  1.00  0.00    -0.218 A  
HETATM   17  C   UNL     1      -9.815  13.204  65.857  1.00  0.00    -0.241 A  
HETATM   18  C   UNL     1     -10.851  14.102  65.573  1.00  0.00    -0.310 A  
HETATM   19  C   UNL     1     -12.078  13.950  66.184  1.00  0.00    -0.478 A  
ENDROOT
BRANCH   9  20
HETATM   20  C   UNL     1      -9.770   8.065  69.995  1.00  0.00    -0.173 C  
BRANCH  20  21
HETATM   21  C   UNL     1     -10.079   7.821  71.464  1.00  0.00    -0.212 C  
HETATM   22  C   UNL     1     -11.017   8.366  72.254  1.00  0.00    -0.431 C  
ENDBRANCH  20  21
ENDBRANCH   9  20
TORSDOF 2
ENDMDL
MODEL       70
REMARK 921   NORMALIZED FREE ENERGY PREDICTED BY IDOCK:   -4.42 KCAL/MOL
REMARK 922        TOTAL FREE ENERGY PREDICTED BY IDOCK:   -5.09 KCAL/MOL
REMARK 923 INTER-LIGAND FREE ENERGY PREDICTED BY IDOCK:   -4.68 KCAL/MOL
REMARK 924 INTRA-LIGAND FREE ENERGY PREDICTED BY IDOCK:   -0.41 KCAL/MOL
REMARK 927      BINDING AFFINITY PREDICTED BY RF-SCORE:    0.00 PKD
ROOT
HETATM    1  C   UNL     1     -10.987   9.106  71.036  1.00  0.00    -0.375 C  
HETATM    2  C   UNL     1     -12.506   9.461  71.221  1.00  0.00    -0.416 C  
HETATM    3  C   UNL     1     -13.300   8.452  72.000  1.00  0.00    -0.367 C  
HETATM    4  C   UNL     1     -12.836   7.022  71.808  1.00  0.00    -0.365 C  
HETATM    5  C   UNL     1     -11.908   6.713  70.629  1.00  0.00    -0.443 C  
HETATM    6  C   UNL     1     -10.832   7.778  70.221  1.00  0.00    -0.252 C  
HETATM    7  C   UNL     1     -11.007   8.072  68.597  1.00  0.00     0.157 C  
HETATM    8  C   UNL     1     -10.606   9.470  67.877  1.00  0.00    -0.244 C  
HETATM    9  N   UNL     1     -10.467  10.731  68.728  1.00  0.00    -0.187 NA 
HETATM   10  H   UNL     1      -6.343   4.359  71.889  1.00  0.00     0.000 HD 
HETATM   11  C   UNL     1     -10.260  10.215  70.149  1.00  0.00    -0.179 C  
HETATM   12  C   UNL     1      -8.756   9.734  69.985  1.00  0.00    -0.237 C  
HETATM   13  C   UNL     1      -7.030   7.893  70.269  1.00  0.00    -0.049 A  
HETATM   14  C   UNL     1      -8.388   8.284  70.236  1.00  0.00    -0.123 A  
HETATM   15  O   UNL     1      -7.259   4.592  71.801  1.00  0.00    -0.060 OA 
HETATM   16  C   UNL     1      -9.383   7.340  70.507  1.00  0.00    -0.158 A  
HETATM   17  C   UNL     1      -8.990   6.097  71.048  1.00  0.00    -0.144 A  
HETATM   18  C   UNL     1      -7.639   5.753  71.177  1.00  0.00    -0.099 A  
HETATM   19  C   UNL     1      -6.663   6.622  70.735  1.00  0.00    -0.054 A  
ENDROOT
BRANCH   9  20
HETATM   20  C   UNL     1     -11.673  11.609  68.607  1.00  0.00    -0.325 C  
BRANCH  20  21
HETATM   21  C   UNL     1     -11.749  12.905  69.398  1.00  0.00    -0.382 C  
HETATM   22  C   UNL     1     -12.393  13.187  70.542  1.00  0.00    -0.380 C  
ENDBRANCH  20  21
ENDBRANCH   9  20
TORSDOF 2
ENDMDL
MODEL       71
REMARK 921   NORMALIZED FREE ENERGY PREDICTED BY IDOCK:   -4.41 KCAL/MOL
REMARK 922        TOTAL FREE ENERGY PREDICTED BY IDOCK:   -5.08 KCAL/MOL
REMARK 923 INTER-LIGAND FREE ENERGY PREDICTED BY IDOCK:   -4.76 KCAL/MOL
REMARK 924 INTRA-LIGAND FREE ENERGY PREDICTED BY IDOCK:   -0.33 KCAL/MOL
REMARK 927      BINDING AFFINITY PREDICTED BY RF-SCORE:    0.00 PKD
ROOT
HETATM    1  C   UNL     1     -10.495   7.629  68.336  1.00  0.00    -0.208 C  
HETATM    2  C   UNL     1     -10.636   9.127  67.884  1.00  0.00    -0.272 C  
HETATM    3  C   UNL     1     -10.135   9.418  66.497  1.00  0.00    -0.332 C  
HETATM    4  C   UNL     1      -8.952   8.570  66.079  1.00  0.00    -0.228 C  
HETATM    5  C   UNL     1      -8.185   7.810  67.164  1.00  0.00    -0.118 C  
HETATM    6  C   UNL     1      -8.987   7.208  68.370  1.00  0.00    -0.125 C  
HETATM    7  C   UNL     1      -8.269   7.744  69.767  1.00  0.00    -0.129 C  
HETATM    8  C   UNL     1      -9.050   7.932  71.177  1.00  0.00    -0.143 C  
HETATM    9  N   UNL     1     -10.573   8.051  71.173  1.00  0.00    -0.202 NA 
HETATM   10  H   UNL     1      -7.926   1.658  66.732  1.00  0.00     0.000 HD 
HETATM   11  C   UNL     1     -11.002   7.451  69.837  1.00  0.00    -0.223 C  
HETATM   12  C   UNL     1     -10.769   5.924  70.204  1.00  0.00    -0.389 C  
HETATM   13  C   UNL     1      -9.734   3.686  69.596  1.00  0.00    -0.140 A  
HETATM   14  C   UNL     1      -9.806   5.083  69.389  1.00  0.00    -0.273 A  
HETATM   15  O   UNL     1      -7.913   2.601  66.629  1.00  0.00    -0.078 OA 
HETATM   16  C   UNL     1      -9.037   5.669  68.379  1.00  0.00    -0.121 A  
HETATM   17  C   UNL     1      -8.409   4.819  67.443  1.00  0.00    -0.105 A  
HETATM   18  C   UNL     1      -8.429   3.427  67.595  1.00  0.00    -0.096 A  
HETATM   19  C   UNL     1      -9.038   2.865  68.698  1.00  0.00    -0.213 A  
ENDROOT
BRANCH   9  20
HETATM   20  C   UNL     1     -11.012   9.473  71.330  1.00  0.00    -0.370 C  
BRANCH  20  21
HETATM   21  C   UNL     1     -12.494   9.805  71.400  1.00  0.00    -0.482 C  
HETATM   22  C   UNL     1     -13.508   9.130  71.963  1.00  0.00    -0.510 C  
ENDBRANCH  20  21
ENDBRANCH   9  20
TORSDOF 2
ENDMDL
MODEL       72
REMARK 921   NORMALIZED FREE ENERGY PREDICTED BY IDOCK:   -4.38 KCAL/MOL
REMARK 922        TOTAL FREE ENERGY PREDICTED BY IDOCK:   -5.05 KCAL/MOL
REMARK 923 INTER-LIGAND FREE ENERGY PREDICTED BY IDOCK:   -4.55 KCAL/MOL
REMARK 924 INTRA-LIGAND FREE ENERGY PREDICTED BY IDOCK:   -0.51 KCAL/MOL
REMARK 927      BINDING AFFINITY PREDICTED BY RF-SCORE:    0.00 PKD
ROOT
HETATM    1  C   UNL     1     -10.288   8.205  67.892  1.00  0.00    -0.280 C  
HETATM    2  C   UNL     1      -9.592   7.889  66.519  1.00  0.00    -0.281 C  
HETATM    3  C   UNL     1      -9.273   6.439  66.291  1.00  0.00    -0.162 C  
HETATM    4  C   UNL     1      -8.919   5.681  67.554  1.00  0.00    -0.107 C  
HETATM    5  C   UNL     1      -8.572   6.486  68.810  1.00  0.00    -0.121 C  
HETATM    6  C   UNL     1      -9.344   7.824  69.082  1.00  0.00    -0.151 C  
HETATM    7  C   UNL     1      -8.215   9.014  69.329  1.00  0.00    -0.117 C  
HETATM    8  C   UNL     1      -8.467  10.586  69.019  1.00  0.00    -0.157 C  
HETATM    9  N   UNL     1      -9.596  10.985  68.069  1.00  0.00    -0.165 NA 
HETATM   10  H   UNL     1     -12.085   5.659  73.818  1.00  0.00     0.000 HD 
HETATM   11  C   UNL     1     -10.525   9.774  68.047  1.00  0.00    -0.226 C  
HETATM   12  C   UNL     1     -11.180   9.983  69.479  1.00  0.00    -0.254 C  
HETATM   13  C   UNL     1     -11.798   9.002  71.738  1.00  0.00    -0.442 A  
HETATM   14  C   UNL     1     -11.065   8.899  70.534  1.00  0.00    -0.288 A  
HETATM   15  O   UNL     1     -11.534   5.609  73.045  1.00  0.00    -0.273 OA 
HETATM   16  C   UNL     1     -10.292   7.759  70.294  1.00  0.00    -0.215 A  
HETATM   17  C   UNL     1     -10.468   6.647  71.144  1.00  0.00    -0.247 A  
HETATM   18  C   UNL     1     -11.280   6.720  72.283  1.00  0.00    -0.259 A  
HETATM   19  C   UNL     1     -11.896   7.910  72.612  1.00  0.00    -0.352 A  
ENDROOT
BRANCH   9  20
HETATM   20  C   UNL     1      -9.072  11.329  66.710  1.00  0.00    -0.174 C  
BRANCH  20  21
HETATM   21  C   UNL     1      -7.618  11.048  66.366  1.00  0.00    -0.135 C  
HETATM   22  C   UNL     1      -7.088  10.243  65.431  1.00  0.00    -0.139 C  
ENDBRANCH  20  21
ENDBRANCH   9  20
TORSDOF 2
ENDMDL
MODEL       73
REMARK 921   NORMALIZED FREE ENERGY PREDICTED BY IDOCK:   -4.31 KCAL/MOL
REMARK 922        TOTAL FREE ENERGY PREDICTED BY IDOCK:   -4.98 KCAL/MOL
REMARK 923 INTER-LIGAND FREE ENERGY PREDICTED BY IDOCK:   -4.45 KCAL/MOL
REMARK 924 INTRA-LIGAND FREE ENERGY PREDICTED BY IDOCK:   -0.53 KCAL/MOL
REMARK 927      BINDING AFFINITY PREDICTED BY RF-SCORE:    0.00 PKD
ROOT
HETATM    1  C   UNL     1     -10.720  10.698  66.711  1.00  0.00    -0.272 C  
HETATM    2  C   UNL     1     -11.135  11.458  65.400  1.00  0.00    -0.196 C  
HETATM    3  C   UNL     1     -10.524  10.919  64.138  1.00  0.00    -0.397 C  
HETATM    4  C   UNL     1      -9.131  10.354  64.321  1.00  0.00    -0.270 C  
HETATM    5  C   UNL     1      -8.371  10.698  65.605  1.00  0.00    -0.162 C  
HETATM    6  C   UNL     1      -9.176  10.816  66.945  1.00  0.00    -0.172 C  
HETATM    7  C   UNL     1      -8.805  12.284  67.625  1.00  0.00    -0.175 C  
HETATM    8  C   UNL     1      -9.800  13.110  68.606  1.00  0.00    -0.083 C  
HETATM    9  N   UNL     1     -11.293  12.788  68.593  1.00  0.00    -0.271 NA 
HETATM   10  H   UNL     1      -6.648   6.037  69.266  1.00  0.00     0.000 HD 
HETATM   11  C   UNL     1     -11.380  11.389  67.988  1.00  0.00    -0.303 C  
HETATM   12  C   UNL     1     -10.857  10.578  69.249  1.00  0.00    -0.284 C  
HETATM   13  C   UNL     1      -9.260   8.847  70.198  1.00  0.00    -0.195 A  
HETATM   14  C   UNL     1      -9.621   9.707  69.136  1.00  0.00    -0.176 A  
HETATM   15  O   UNL     1      -6.838   6.658  68.574  1.00  0.00    -0.065 OA 
HETATM   16  C   UNL     1      -8.872   9.694  67.955  1.00  0.00    -0.119 A  
HETATM   17  C   UNL     1      -7.940   8.650  67.771  1.00  0.00    -0.107 A  
HETATM   18  C   UNL     1      -7.661   7.734  68.792  1.00  0.00    -0.101 A  
HETATM   19  C   UNL     1      -8.274   7.866  70.020  1.00  0.00    -0.119 A  
ENDROOT
BRANCH   9  20
HETATM   20  C   UNL     1     -12.065  13.800  67.805  1.00  0.00    -0.290 C  
BRANCH  20  21
HETATM   21  C   UNL     1     -11.328  14.900  67.057  1.00  0.00    -0.345 C  
HETATM   22  C   UNL     1     -11.121  15.065  65.741  1.00  0.00    -0.346 C  
ENDBRANCH  20  21
ENDBRANCH   9  20
TORSDOF 2
ENDMDL
MODEL       74
REMARK 921   NORMALIZED FREE ENERGY PREDICTED BY IDOCK:   -4.29 KCAL/MOL
REMARK 922        TOTAL FREE ENERGY PREDICTED BY IDOCK:   -4.95 KCAL/MOL
REMARK 923 INTER-LIGAND FREE ENERGY PREDICTED BY IDOCK:   -4.61 KCAL/MOL
REMARK 924 INTRA-LIGAND FREE ENERGY PREDICTED BY IDOCK:   -0.34 KCAL/MOL
REMARK 927      BINDING AFFINITY PREDICTED BY RF-SCORE:    0.00 PKD
ROOT
HETATM    1  C   UNL     1      -9.351  14.752  66.043  1.00  0.00    -0.249 C  
HETATM    2  C   UNL     1     -10.780  14.231  65.646  1.00  0.00    -0.321 C  
HETATM    3  C   UNL     1     -11.440  14.990  64.530  1.00  0.00    -0.320 C  
HETATM    4  C   UNL     1     -11.095  16.464  64.498  1.00  0.00    -0.107 C  
HETATM    5  C   UNL     1     -10.450  17.085  65.741  1.00  0.00    -0.261 C  
HETATM    6  C   UNL     1      -9.433  16.224  66.569  1.00  0.00    -0.289 C  
HETATM    7  C   UNL     1      -9.931  16.246  68.152  1.00  0.00    -0.239 C  
HETATM    8  C   UNL     1      -9.624  15.062  69.218  1.00  0.00    -0.180 C  
HETATM    9  N   UNL     1      -9.250  13.674  68.701  1.00  0.00    -0.108 NA 
HETATM   10  H   UNL     1      -4.863  19.633  65.115  1.00  0.00     0.000 HD 
HETATM   11  C   UNL     1      -8.775  13.912  67.270  1.00  0.00    -0.217 C  
HETATM   12  C   UNL     1      -7.363  14.550  67.617  1.00  0.00    -0.201 C  
HETATM   13  C   UNL     1      -5.705  16.445  67.287  1.00  0.00    -0.167 A  
HETATM   14  C   UNL     1      -7.020  15.948  67.139  1.00  0.00    -0.227 A  
HETATM   15  O   UNL     1      -5.765  19.339  65.070  1.00  0.00    -0.188 OA 
HETATM   16  C   UNL     1      -7.980  16.725  66.483  1.00  0.00    -0.334 A  
HETATM   17  C   UNL     1      -7.542  17.865  65.776  1.00  0.00    -0.059 A  
HETATM   18  C   UNL     1      -6.211  18.297  65.842  1.00  0.00    -0.237 A  
HETATM   19  C   UNL     1      -5.310  17.625  66.641  1.00  0.00    -0.203 A  
ENDROOT
BRANCH   9  20
HETATM   20  C   UNL     1     -10.411  12.732  68.769  1.00  0.00    -0.156 C  
BRANCH  20  21
HETATM   21  C   UNL     1     -10.289  11.335  68.184  1.00  0.00    -0.205 C  
HETATM   22  C   UNL     1     -11.240  10.480  67.775  1.00  0.00    -0.344 C  
ENDBRANCH  20  21
ENDBRANCH   9  20
TORSDOF 2
ENDMDL
MODEL       75
REMARK 921   NORMALIZED FREE ENERGY PREDICTED BY IDOCK:   -4.24 KCAL/MOL
REMARK 922        TOTAL FREE ENERGY PREDICTED BY IDOCK:   -4.90 KCAL/MOL
REMARK 923 INTER-LIGAND FREE ENERGY PREDICTED BY IDOCK:   -4.49 KCAL/MOL
REMARK 924 INTRA-LIGAND FREE ENERGY PREDICTED BY IDOCK:   -0.41 KCAL/MOL
REMARK 927      BINDING AFFINITY PREDICTED BY RF-SCORE:    0.00 PKD
ROOT
HETATM    1  C   UNL     1     -10.785   7.259  69.837  1.00  0.00    -0.257 C  
HETATM    2  C   UNL     1     -10.904   8.536  68.929  1.00  0.00    -0.009 C  
HETATM    3  C   UNL     1      -9.751   8.753  67.991  1.00  0.00    -0.183 C  
HETATM    4  C   UNL     1      -8.416   8.288  68.537  1.00  0.00    -0.126 C  
HETATM    5  C   UNL     1      -8.306   8.005  70.038  1.00  0.00    -0.123 C  
HETATM    6  C   UNL     1      -9.536   7.371  70.776  1.00  0.00    -0.170 C  
HETATM    7  C   UNL     1      -9.881   8.327  72.087  1.00  0.00    -0.342 C  
HETATM    8  C   UNL     1     -11.357   8.466  72.748  1.00  0.00    -0.155 C  
HETATM    9  N   UNL     1     -12.581   8.073  71.922  1.00  0.00    -0.320 NA 
HETATM   10  H   UNL     1      -6.732   2.297  71.781  1.00  0.00     0.000 HD 
HETATM   11  C   UNL     1     -12.031   7.163  70.828  1.00  0.00    -0.310 C  
HETATM   12  C   UNL     1     -11.784   5.876  71.725  1.00  0.00    -0.163 C  
HETATM   13  C   UNL     1     -10.204   4.040  72.485  1.00  0.00    -0.233 A  
HETATM   14  C   UNL     1     -10.393   5.283  71.840  1.00  0.00    -0.275 A  
HETATM   15  O   UNL     1      -6.833   3.163  71.406  1.00  0.00    -0.030 OA 
HETATM   16  C   UNL     1      -9.301   5.923  71.246  1.00  0.00    -0.172 A  
HETATM   17  C   UNL     1      -8.104   5.192  71.094  1.00  0.00    -0.108 A  
HETATM   18  C   UNL     1      -7.955   3.914  71.647  1.00  0.00    -0.066 A  
HETATM   19  C   UNL     1      -8.979   3.363  72.390  1.00  0.00    -0.123 A  
ENDROOT
BRANCH   9  20
HETATM   20  C   UNL     1     -13.278   9.277  71.368  1.00  0.00    -0.325 C  
BRANCH  20  21
HETATM   21  C   UNL     1     -12.577  10.626  71.372  1.00  0.00    -0.526 C  
HETATM   22  C   UNL     1     -12.047  11.331  70.360  1.00  0.00    -0.474 C  
ENDBRANCH  20  21
ENDBRANCH   9  20
TORSDOF 2
ENDMDL
MODEL       76
REMARK 921   NORMALIZED FREE ENERGY PREDICTED BY IDOCK:   -4.20 KCAL/MOL
REMARK 922        TOTAL FREE ENERGY PREDICTED BY IDOCK:   -4.85 KCAL/MOL
REMARK 923 INTER-LIGAND FREE ENERGY PREDICTED BY IDOCK:   -4.65 KCAL/MOL
REMARK 924 INTRA-LIGAND FREE ENERGY PREDICTED BY IDOCK:   -0.20 KCAL/MOL
REMARK 927      BINDING AFFINITY PREDICTED BY RF-SCORE:    0.00 PKD
ROOT
HETATM    1  C   UNL     1      -8.332   9.221  67.652  1.00  0.00    -0.116 C  
HETATM    2  C   UNL     1      -7.376  10.412  67.282  1.00  0.00    -0.090 C  
HETATM    3  C   UNL     1      -6.206  10.592  68.206  1.00  0.00    -0.054 C  
HETATM    4  C   UNL     1      -6.496  10.224  69.647  1.00  0.00    -0.069 C  
HETATM    5  C   UNL     1      -7.959  10.073  70.076  1.00  0.00    -0.166 C  
HETATM    6  C   UNL     1      -8.981   9.458  69.057  1.00  0.00    -0.141 C  
HETATM    7  C   UNL     1     -10.260  10.507  68.936  1.00  0.00    -0.223 C  
HETATM    8  C   UNL     1     -11.200  10.647  67.620  1.00  0.00    -0.290 C  
HETATM    9  N   UNL     1     -10.677  10.141  66.276  1.00  0.00    -0.049 NA 
HETATM   10  H   UNL     1      -9.759   4.593  72.275  1.00  0.00     0.000 HD 
HETATM   11  C   UNL     1      -9.564   9.163  66.640  1.00  0.00    -0.203 C  
HETATM   12  C   UNL     1     -10.484   7.966  67.133  1.00  0.00    -0.414 C  
HETATM   13  C   UNL     1     -11.035   6.260  68.931  1.00  0.00    -0.435 A  
HETATM   14  C   UNL     1     -10.352   7.436  68.548  1.00  0.00    -0.221 A  
HETATM   15  O   UNL     1      -9.350   5.420  72.053  1.00  0.00    -0.143 OA 
HETATM   16  C   UNL     1      -9.499   8.064  69.460  1.00  0.00    -0.160 A  
HETATM   17  C   UNL     1      -9.157   7.368  70.639  1.00  0.00    -0.156 A  
HETATM   18  C   UNL     1      -9.761   6.147  70.965  1.00  0.00    -0.177 A  
HETATM   19  C   UNL     1     -10.739   5.624  70.145  1.00  0.00    -0.376 A  
ENDROOT
BRANCH   9  20
HETATM   20  C   UNL     1     -10.192  11.268  65.418  1.00  0.00    -0.270 C  
BRANCH  20  21
HETATM   21  C   UNL     1     -11.036  12.523  65.267  1.00  0.00    -0.332 C  
HETATM   22  C   UNL     1     -12.299  12.672  64.835  1.00  0.00    -0.563 C  
ENDBRANCH  20  21
ENDBRANCH   9  20
TORSDOF 2
ENDMDL
MODEL       77
REMARK 921   NORMALIZED FREE ENERGY PREDICTED BY IDOCK:   -4.18 KCAL/MOL
REMARK 922        TOTAL FREE ENERGY PREDICTED BY IDOCK:   -4.83 KCAL/MOL
REMARK 923 INTER-LIGAND FREE ENERGY PREDICTED BY IDOCK:   -4.32 KCAL/MOL
REMARK 924 INTRA-LIGAND FREE ENERGY PREDICTED BY IDOCK:   -0.50 KCAL/MOL
REMARK 927      BINDING AFFINITY PREDICTED BY RF-SCORE:    0.00 PKD
ROOT
HETATM    1  C   UNL     1      -8.438   7.115  68.145  1.00  0.00    -0.123 C  
HETATM    2  C   UNL     1      -7.478   7.405  66.936  1.00  0.00    -0.097 C  
HETATM    3  C   UNL     1      -7.188   8.860  66.695  1.00  0.00    -0.085 C  
HETATM    4  C   UNL     1      -8.341   9.782  67.034  1.00  0.00    -0.117 C  
HETATM    5  C   UNL     1      -9.731   9.167  67.219  1.00  0.00    -0.225 C  
HETATM    6  C   UNL     1      -9.844   7.755  67.892  1.00  0.00    -0.194 C  
HETATM    7  C   UNL     1     -10.746   6.792  66.886  1.00  0.00    -0.394 C  
HETATM    8  C   UNL     1     -10.610   5.176  66.810  1.00  0.00    -0.200 C  
HETATM    9  N   UNL     1      -9.337   4.513  67.335  1.00  0.00    -0.137 NA 
HETATM   10  H   UNL     1     -12.491   9.894  72.692  1.00  0.00     0.000 HD 
HETATM   11  C   UNL     1      -8.719   5.550  68.269  1.00  0.00    -0.098 C  
HETATM   12  C   UNL     1      -9.732   5.377  69.480  1.00  0.00    -0.238 C  
HETATM   13  C   UNL     1     -11.305   6.457  71.155  1.00  0.00    -0.376 A  
HETATM   14  C   UNL     1     -10.545   6.561  69.968  1.00  0.00    -0.280 A  
HETATM   15  O   UNL     1     -12.041   9.958  71.859  1.00  0.00    -0.357 OA 
HETATM   16  C   UNL     1     -10.491   7.782  69.290  1.00  0.00    -0.221 A  
HETATM   17  C   UNL     1     -10.991   8.928  69.944  1.00  0.00    -0.190 A  
HETATM   18  C   UNL     1     -11.654   8.834  71.174  1.00  0.00    -0.289 A  
HETATM   19  C   UNL     1     -11.863   7.598  71.749  1.00  0.00    -0.324 A  
ENDROOT
BRANCH   9  20
HETATM   20  C   UNL     1      -8.419   4.129  66.217  1.00  0.00    -0.109 C  
BRANCH  20  21
HETATM   21  C   UNL     1      -8.842   4.362  64.776  1.00  0.00    -0.145 C  
HETATM   22  C   UNL     1      -8.370   5.225  63.862  1.00  0.00    -0.122 C  
ENDBRANCH  20  21
ENDBRANCH   9  20
TORSDOF 2
ENDMDL
MODEL       78
REMARK 921   NORMALIZED FREE ENERGY PREDICTED BY IDOCK:   -4.14 KCAL/MOL
REMARK 922        TOTAL FREE ENERGY PREDICTED BY IDOCK:   -4.79 KCAL/MOL
REMARK 923 INTER-LIGAND FREE ENERGY PREDICTED BY IDOCK:   -4.41 KCAL/MOL
REMARK 924 INTRA-LIGAND FREE ENERGY PREDICTED BY IDOCK:   -0.38 KCAL/MOL
REMARK 927      BINDING AFFINITY PREDICTED BY RF-SCORE:    0.00 PKD
ROOT
HETATM    1  C   UNL     1      -9.536   8.095  69.293  1.00  0.00    -0.164 C  
HETATM    2  C   UNL     1      -9.143   9.197  70.342  1.00  0.00    -0.270 C  
HETATM    3  C   UNL     1      -7.769   9.776  70.164  1.00  0.00    -0.188 C  
HETATM    4  C   UNL     1      -6.750   8.792  69.626  1.00  0.00    -0.039 C  
HETATM    5  C   UNL     1      -7.093   7.300  69.665  1.00  0.00    -0.073 C  
HETATM    6  C   UNL     1      -8.577   6.863  69.409  1.00  0.00    -0.133 C  
HETATM    7  C   UNL     1      -9.037   5.889  70.671  1.00  0.00    -0.159 C  
HETATM    8  C   UNL     1     -10.569   5.725  71.182  1.00  0.00    -0.251 C  
HETATM    9  N   UNL     1     -11.594   6.797  70.816  1.00  0.00    -0.346 NA 
HETATM   10  H   UNL     1      -7.272   4.249  64.301  1.00  0.00     0.000 HD 
HETATM   11  C   UNL     1     -10.986   7.514  69.613  1.00  0.00    -0.153 C  
HETATM   12  C   UNL     1     -11.259   6.384  68.531  1.00  0.00    -0.321 C  
HETATM   13  C   UNL     1     -10.355   4.899  66.680  1.00  0.00    -0.285 A  
HETATM   14  C   UNL     1     -10.103   5.768  67.766  1.00  0.00    -0.196 A  
HETATM   15  O   UNL     1      -7.086   4.776  65.069  1.00  0.00    -0.060 OA 
HETATM   16  C   UNL     1      -8.785   6.111  68.081  1.00  0.00    -0.114 A  
HETATM   17  C   UNL     1      -7.772   5.780  67.155  1.00  0.00    -0.101 A  
HETATM   18  C   UNL     1      -8.046   5.004  66.022  1.00  0.00    -0.108 A  
HETATM   19  C   UNL     1      -9.320   4.515  65.816  1.00  0.00    -0.162 A  
ENDROOT
BRANCH   9  20
HETATM   20  C   UNL     1     -11.852   7.723  71.963  1.00  0.00    -0.307 C  
BRANCH  20  21
HETATM   21  C   UNL     1     -12.933   8.786  71.850  1.00  0.00    -0.421 C  
HETATM   22  C   UNL     1     -12.833  10.101  71.601  1.00  0.00    -0.559 C  
ENDBRANCH  20  21
ENDBRANCH   9  20
TORSDOF 2
ENDMDL
MODEL       79
REMARK 921   NORMALIZED FREE ENERGY PREDICTED BY IDOCK:   -4.13 KCAL/MOL
REMARK 922        TOTAL FREE ENERGY PREDICTED BY IDOCK:   -4.77 KCAL/MOL
REMARK 923 INTER-LIGAND FREE ENERGY PREDICTED BY IDOCK:   -4.62 KCAL/MOL
REMARK 924 INTRA-LIGAND FREE ENERGY PREDICTED BY IDOCK:   -0.15 KCAL/MOL
REMARK 927      BINDING AFFINITY PREDICTED BY RF-SCORE:    0.00 PKD
ROOT
HETATM    1  C   UNL     1      -8.523   9.228  68.922  1.00  0.00    -0.129 C  
HETATM    2  C   UNL     1      -7.454   8.115  69.217  1.00  0.00    -0.089 C  
HETATM    3  C   UNL     1      -6.665   7.665  68.021  1.00  0.00    -0.063 C  
HETATM    4  C   UNL     1      -7.444   7.694  66.722  1.00  0.00    -0.093 C  
HETATM    5  C   UNL     1      -8.970   7.809  66.795  1.00  0.00    -0.163 C  
HETATM    6  C   UNL     1      -9.604   8.696  67.922  1.00  0.00    -0.173 C  
HETATM    7  C   UNL     1     -10.724   7.768  68.720  1.00  0.00    -0.093 C  
HETATM    8  C   UNL     1     -11.151   7.990  70.270  1.00  0.00    -0.224 C  
HETATM    9  N   UNL     1     -10.220   8.775  71.192  1.00  0.00    -0.224 NA 
HETATM   10  H   UNL     1     -11.617  12.690  64.098  1.00  0.00     0.000 HD 
HETATM   11  C   UNL     1      -9.335   9.584  70.248  1.00  0.00    -0.259 C  
HETATM   12  C   UNL     1     -10.413  10.672  69.827  1.00  0.00    -0.189 C  
HETATM   13  C   UNL     1     -11.608  11.928  67.972  1.00  0.00    -0.401 A  
HETATM   14  C   UNL     1     -10.792  10.844  68.368  1.00  0.00    -0.266 A  
HETATM   15  O   UNL     1     -11.126  11.920  64.358  1.00  0.00    -0.306 OA 
HETATM   16  C   UNL     1     -10.280   9.977  67.399  1.00  0.00    -0.269 A  
HETATM   17  C   UNL     1     -10.389  10.357  66.044  1.00  0.00    -0.262 A  
HETATM   18  C   UNL     1     -11.113  11.493  65.661  1.00  0.00    -0.199 A  
HETATM   19  C   UNL     1     -11.770  12.242  66.615  1.00  0.00    -0.417 A  
ENDROOT
BRANCH   9  20
HETATM   20  C   UNL     1      -9.429   7.862  72.076  1.00  0.00    -0.174 C  
BRANCH  20  21
HETATM   21  C   UNL     1      -9.726   7.806  73.566  1.00  0.00    -0.319 C  
HETATM   22  C   UNL     1      -9.756   6.758  74.406  1.00  0.00    -0.309 C  
ENDBRANCH  20  21
ENDBRANCH   9  20
TORSDOF 2
ENDMDL
MODEL       80
REMARK 921   NORMALIZED FREE ENERGY PREDICTED BY IDOCK:   -4.11 KCAL/MOL
REMARK 922        TOTAL FREE ENERGY PREDICTED BY IDOCK:   -4.76 KCAL/MOL
REMARK 923 INTER-LIGAND FREE ENERGY PREDICTED BY IDOCK:   -4.57 KCAL/MOL
REMARK 924 INTRA-LIGAND FREE ENERGY PREDICTED BY IDOCK:   -0.18 KCAL/MOL
REMARK 927      BINDING AFFINITY PREDICTED BY RF-SCORE:    0.00 PKD
ROOT
HETATM    1  C   UNL     1      -8.436   9.027  67.849  1.00  0.00    -0.121 C  
HETATM    2  C   UNL     1      -7.639   9.048  66.496  1.00  0.00    -0.089 C  
HETATM    3  C   UNL     1      -7.760  10.324  65.711  1.00  0.00    -0.143 C  
HETATM    4  C   UNL     1      -9.105  11.008  65.852  1.00  0.00    -0.214 C  
HETATM    5  C   UNL     1     -10.270  10.203  66.436  1.00  0.00    -0.288 C  
HETATM    6  C   UNL     1      -9.972   9.173  67.581  1.00  0.00    -0.245 C  
HETATM    7  C   UNL     1     -10.620   7.715  67.123  1.00  0.00    -0.410 C  
HETATM    8  C   UNL     1     -10.057   6.275  67.614  1.00  0.00    -0.150 C  
HETATM    9  N   UNL     1      -8.633   6.181  68.161  1.00  0.00    -0.116 NA 
HETATM   10  H   UNL     1     -12.905  12.302  71.609  1.00  0.00     0.000 HD 
HETATM   11  C   UNL     1      -8.281   7.610  68.564  1.00  0.00    -0.125 C  
HETATM   12  C   UNL     1      -9.160   7.682  69.884  1.00  0.00    -0.147 C  
HETATM   13  C   UNL     1     -10.899   8.920  71.260  1.00  0.00    -0.360 A  
HETATM   14  C   UNL     1     -10.242   8.736  70.022  1.00  0.00    -0.208 A  
HETATM   15  O   UNL     1     -12.522  12.145  70.754  1.00  0.00    -0.347 OA 
HETATM   16  C   UNL     1     -10.546   9.580  68.950  1.00  0.00    -0.239 A  
HETATM   17  C   UNL     1     -11.310  10.738  69.212  1.00  0.00    -0.352 A  
HETATM   18  C   UNL     1     -11.874  10.970  70.473  1.00  0.00    -0.367 A  
HETATM   19  C   UNL     1     -11.719  10.036  71.476  1.00  0.00    -0.359 A  
ENDROOT
BRANCH   9  20
HETATM   20  C   UNL     1      -7.690   5.625  67.140  1.00  0.00    -0.101 C  
BRANCH  20  21
HETATM   21  C   UNL     1      -7.634   4.125  66.897  1.00  0.00    -0.084 C  
HETATM   22  C   UNL     1      -8.441   3.333  66.173  1.00  0.00    -0.111 C  
ENDBRANCH  20  21
ENDBRANCH   9  20
TORSDOF 2
ENDMDL
MODEL       81
REMARK 921   NORMALIZED FREE ENERGY PREDICTED BY IDOCK:   -4.09 KCAL/MOL
REMARK 922        TOTAL FREE ENERGY PREDICTED BY IDOCK:   -4.73 KCAL/MOL
REMARK 923 INTER-LIGAND FREE ENERGY PREDICTED BY IDOCK:   -4.23 KCAL/MOL
REMARK 924 INTRA-LIGAND FREE ENERGY PREDICTED BY IDOCK:   -0.50 KCAL/MOL
REMARK 927      BINDING AFFINITY PREDICTED BY RF-SCORE:    0.00 PKD
ROOT
HETATM    1  C   UNL     1     -10.457   8.012  67.086  1.00  0.00    -0.408 C  
HETATM    2  C   UNL     1     -10.911   9.252  67.937  1.00  0.00    -0.181 C  
HETATM    3  C   UNL     1     -10.354  10.570  67.478  1.00  0.00    -0.265 C  
HETATM    4  C   UNL     1      -8.962  10.478  66.886  1.00  0.00    -0.151 C  
HETATM    5  C   UNL     1      -8.151   9.203  67.135  1.00  0.00    -0.109 C  
HETATM    6  C   UNL     1      -8.904   7.828  67.172  1.00  0.00    -0.130 C  
HETATM    7  C   UNL     1      -8.489   7.067  68.586  1.00  0.00    -0.121 C  
HETATM    8  C   UNL     1      -9.436   5.995  69.354  1.00  0.00    -0.134 C  
HETATM    9  N   UNL     1     -10.933   5.974  69.050  1.00  0.00    -0.344 NA 
HETATM   10  H   UNL     1      -6.356   5.930  62.219  1.00  0.00     0.000 HD 
HETATM   11  C   UNL     1     -11.060   6.668  67.696  1.00  0.00    -0.271 C  
HETATM   12  C   UNL     1     -10.502   5.484  66.797  1.00  0.00    -0.355 C  
HETATM   13  C   UNL     1      -8.895   4.715  64.988  1.00  0.00    -0.150 A  
HETATM   14  C   UNL     1      -9.282   5.702  65.922  1.00  0.00    -0.145 A  
HETATM   15  O   UNL     1      -6.563   6.572  62.888  1.00  0.00    -0.037 OA 
HETATM   16  C   UNL     1      -8.578   6.908  65.981  1.00  0.00    -0.150 A  
HETATM   17  C   UNL     1      -7.668   7.197  64.942  1.00  0.00    -0.117 A  
HETATM   18  C   UNL     1      -7.363   6.251  63.955  1.00  0.00    -0.072 A  
HETATM   19  C   UNL     1      -7.929   4.994  64.011  1.00  0.00    -0.102 A  
ENDROOT
BRANCH   9  20
HETATM   20  C   UNL     1     -11.719   6.662  70.122  1.00  0.00    -0.351 C  
BRANCH  20  21
HETATM   21  C   UNL     1     -10.999   7.471  71.189  1.00  0.00    -0.264 C  
HETATM   22  C   UNL     1     -11.123   8.764  71.528  1.00  0.00    -0.377 C  
ENDBRANCH  20  21
ENDBRANCH   9  20
TORSDOF 2
ENDMDL
MODEL       82
REMARK 921   NORMALIZED FREE ENERGY PREDICTED BY IDOCK:   -4.03 KCAL/MOL
REMARK 922        TOTAL FREE ENERGY PREDICTED BY IDOCK:   -4.66 KCAL/MOL
REMARK 923 INTER-LIGAND FREE ENERGY PREDICTED BY IDOCK:   -4.53 KCAL/MOL
REMARK 924 INTRA-LIGAND FREE ENERGY PREDICTED BY IDOCK:   -0.13 KCAL/MOL
REMARK 927      BINDING AFFINITY PREDICTED BY RF-SCORE:    0.00 PKD
ROOT
HETATM    1  C   UNL     1     -10.737   5.801  70.322  1.00  0.00    -0.380 C  
HETATM    2  C   UNL     1     -11.371   6.614  69.137  1.00  0.00    -0.262 C  
HETATM    3  C   UNL     1     -10.962   6.154  67.766  1.00  0.00    -0.400 C  
HETATM    4  C   UNL     1      -9.547   5.616  67.694  1.00  0.00    -0.126 C  
HETATM    5  C   UNL     1      -8.597   5.917  68.857  1.00  0.00    -0.110 C  
HETATM    6  C   UNL     1      -9.178   5.948  70.313  1.00  0.00    -0.170 C  
HETATM    7  C   UNL     1      -8.728   7.390  71.001  1.00  0.00    -0.139 C  
HETATM    8  C   UNL     1      -9.566   8.140  72.170  1.00  0.00    -0.242 C  
HETATM    9  N   UNL     1     -11.037   7.781  72.379  1.00  0.00    -0.295 NA 
HETATM   10  H   UNL     1      -6.227   1.126  71.946  1.00  0.00     0.000 HD 
HETATM   11  C   UNL     1     -11.195   6.412  71.723  1.00  0.00    -0.277 C  
HETATM   12  C   UNL     1     -10.462   5.554  72.840  1.00  0.00    -0.250 C  
HETATM   13  C   UNL     1      -8.704   3.819  73.429  1.00  0.00    -0.086 A  
HETATM   14  C   UNL     1      -9.245   4.721  72.485  1.00  0.00    -0.146 A  
HETATM   15  O   UNL     1      -6.536   1.776  71.326  1.00  0.00    -0.022 OA 
HETATM   16  C   UNL     1      -8.696   4.786  71.201  1.00  0.00    -0.138 A  
HETATM   17  C   UNL     1      -7.788   3.777  70.815  1.00  0.00    -0.051 A  
HETATM   18  C   UNL     1      -7.332   2.818  71.729  1.00  0.00    -0.040 A  
HETATM   19  C   UNL     1      -7.742   2.874  73.045  1.00  0.00    -0.051 A  
ENDROOT
BRANCH   9  20
HETATM   20  C   UNL     1     -11.942   8.811  71.779  1.00  0.00    -0.349 C  
BRANCH  20  21
HETATM   21  C   UNL     1     -13.449   8.610  71.817  1.00  0.00    -0.418 C  
HETATM   22  C   UNL     1     -14.183   7.512  71.578  1.00  0.00    -0.580 C  
ENDBRANCH  20  21
ENDBRANCH   9  20
TORSDOF 2
ENDMDL
MODEL       83
REMARK 921   NORMALIZED FREE ENERGY PREDICTED BY IDOCK:   -4.03 KCAL/MOL
REMARK 922        TOTAL FREE ENERGY PREDICTED BY IDOCK:   -4.66 KCAL/MOL
REMARK 923 INTER-LIGAND FREE ENERGY PREDICTED BY IDOCK:   -4.46 KCAL/MOL
REMARK 924 INTRA-LIGAND FREE ENERGY PREDICTED BY IDOCK:   -0.20 KCAL/MOL
REMARK 927      BINDING AFFINITY PREDICTED BY RF-SCORE:    0.00 PKD
ROOT
HETATM    1  C   UNL     1      -8.984  11.580  68.866  1.00  0.00     0.029 C  
HETATM    2  C   UNL     1      -7.800  10.559  68.715  1.00  0.00    -0.116 C  
HETATM    3  C   UNL     1      -6.429  11.155  68.863  1.00  0.00    -0.056 C  
HETATM    4  C   UNL     1      -6.320  12.580  68.359  1.00  0.00    -0.064 C  
HETATM    5  C   UNL     1      -7.436  13.119  67.460  1.00  0.00    -0.164 C  
HETATM    6  C   UNL     1      -8.912  12.670  67.744  1.00  0.00    -0.189 C  
HETATM    7  C   UNL     1      -9.539  12.083  66.325  1.00  0.00    -0.243 C  
HETATM    8  C   UNL     1     -10.717  10.970  66.243  1.00  0.00    -0.212 C  
HETATM    9  N   UNL     1     -10.991  10.086  67.459  1.00  0.00    -0.269 NA 
HETATM   10  H   UNL     1     -10.574  18.060  69.421  1.00  0.00     0.000 HD 
HETATM   11  C   UNL     1     -10.382  10.848  68.633  1.00  0.00    -0.191 C  
HETATM   12  C   UNL     1     -11.496  11.973  68.757  1.00  0.00    -0.355 C  
HETATM   13  C   UNL     1     -12.069  14.442  68.909  1.00  0.00    -0.288 A  
HETATM   14  C   UNL     1     -11.120  13.436  68.618  1.00  0.00    -0.295 A  
HETATM   15  O   UNL     1      -9.947  17.397  69.156  1.00  0.00    -0.275 OA 
HETATM   16  C   UNL     1      -9.815  13.800  68.274  1.00  0.00    -0.232 A  
HETATM   17  C   UNL     1      -9.425  15.142  68.471  1.00  0.00    -0.203 A  
HETATM   18  C   UNL     1     -10.349  16.120  68.861  1.00  0.00    -0.250 A  
HETATM   19  C   UNL     1     -11.677  15.784  69.022  1.00  0.00    -0.405 A  
ENDROOT
BRANCH   9  20
HETATM   20  C   UNL     1     -10.396   8.723  67.291  1.00  0.00    -0.290 C  
BRANCH  20  21
HETATM   21  C   UNL     1      -9.879   7.967  68.504  1.00  0.00    -0.185 C  
HETATM   22  C   UNL     1     -10.379   6.892  69.134  1.00  0.00    -0.207 C  
ENDBRANCH  20  21
ENDBRANCH   9  20
TORSDOF 2
ENDMDL
MODEL       84
REMARK 921   NORMALIZED FREE ENERGY PREDICTED BY IDOCK:   -4.02 KCAL/MOL
REMARK 922        TOTAL FREE ENERGY PREDICTED BY IDOCK:   -4.66 KCAL/MOL
REMARK 923 INTER-LIGAND FREE ENERGY PREDICTED BY IDOCK:   -4.35 KCAL/MOL
REMARK 924 INTRA-LIGAND FREE ENERGY PREDICTED BY IDOCK:   -0.30 KCAL/MOL
REMARK 927      BINDING AFFINITY PREDICTED BY RF-SCORE:    0.00 PKD
ROOT
HETATM    1  C   UNL     1     -10.300  12.515  68.004  1.00  0.00    -0.226 C  
HETATM    2  C   UNL     1     -11.174  13.339  69.016  1.00  0.00    -0.320 C  
HETATM    3  C   UNL     1     -11.790  12.531  70.122  1.00  0.00    -0.336 C  
HETATM    4  C   UNL     1     -12.161  11.118  69.720  1.00  0.00    -0.414 C  
HETATM    5  C   UNL     1     -12.220  10.782  68.227  1.00  0.00     0.570 C  
HETATM    6  C   UNL     1     -11.179  11.451  67.264  1.00  0.00    -0.370 C  
HETATM    7  C   UNL     1     -12.026  12.160  66.026  1.00  0.00    -0.236 C  
HETATM    8  C   UNL     1     -11.504  13.447  65.186  1.00  0.00    -0.296 C  
HETATM    9  N   UNL     1     -10.417  14.336  65.789  1.00  0.00    -0.302 NA 
HETATM   10  H   UNL     1      -8.466   6.356  66.124  1.00  0.00     0.000 HD 
HETATM   11  C   UNL     1      -9.747  13.463  66.846  1.00  0.00    -0.253 C  
HETATM   12  C   UNL     1      -8.928  12.525  65.860  1.00  0.00     0.244 C  
HETATM   13  C   UNL     1      -8.297  10.175  65.136  1.00  0.00    -0.163 A  
HETATM   14  C   UNL     1      -9.149  11.024  65.877  1.00  0.00    -0.214 A  
HETATM   15  O   UNL     1      -9.088   6.917  66.571  1.00  0.00    -0.146 OA 
HETATM   16  C   UNL     1     -10.149  10.467  66.680  1.00  0.00    -0.275 A  
HETATM   17  C   UNL     1     -10.111   9.076  66.917  1.00  0.00    -0.338 A  
HETATM   18  C   UNL     1      -9.194   8.249  66.258  1.00  0.00    -0.203 A  
HETATM   19  C   UNL     1      -8.329   8.786  65.327  1.00  0.00    -0.168 A  
ENDROOT
BRANCH   9  20
HETATM   20  C   UNL     1     -10.994  15.592  66.365  1.00  0.00    -0.238 C  
BRANCH  20  21
HETATM   21  C   UNL     1     -10.235  16.348  67.444  1.00  0.00    -0.281 C  
HETATM   22  C   UNL     1     -10.532  17.500  68.067  1.00  0.00    -0.387 C  
ENDBRANCH  20  21
ENDBRANCH   9  20
TORSDOF 2
ENDMDL
MODEL       85
REMARK 921   NORMALIZED FREE ENERGY PREDICTED BY IDOCK:   -4.02 KCAL/MOL
REMARK 922        TOTAL FREE ENERGY PREDICTED BY IDOCK:   -4.65 KCAL/MOL
REMARK 923 INTER-LIGAND FREE ENERGY PREDICTED BY IDOCK:   -4.34 KCAL/MOL
REMARK 924 INTRA-LIGAND FREE ENERGY PREDICTED BY IDOCK:   -0.31 KCAL/MOL
REMARK 927      BINDING AFFINITY PREDICTED BY RF-SCORE:    0.00 PKD
ROOT
HETATM    1  C   UNL     1      -9.473  12.743  66.277  1.00  0.00    -0.198 C  
HETATM    2  C   UNL     1      -9.268  14.285  66.062  1.00  0.00    -0.039 C  
HETATM    3  C   UNL     1      -8.655  15.010  67.227  1.00  0.00    -0.226 C  
HETATM    4  C   UNL     1      -9.038  14.440  68.577  1.00  0.00    -0.193 C  
HETATM    5  C   UNL     1     -10.231  13.482  68.648  1.00  0.00    -0.193 C  
HETATM    6  C   UNL     1     -10.464  12.483  67.461  1.00  0.00    -0.231 C  
HETATM    7  C   UNL     1     -12.033  12.666  66.953  1.00  0.00    -0.345 C  
HETATM    8  C   UNL     1     -12.541  12.363  65.442  1.00  0.00     0.078 C  
HETATM    9  N   UNL     1     -11.518  12.324  64.308  1.00  0.00    -0.340 NA 
HETATM   10  H   UNL     1      -9.210   7.769  70.753  1.00  0.00     0.000 HD 
HETATM   11  C   UNL     1     -10.179  12.092  65.005  1.00  0.00    -0.283 C  
HETATM   12  C   UNL     1     -10.382  10.555  65.348  1.00  0.00    -0.292 C  
HETATM   13  C   UNL     1     -10.327   8.701  67.082  1.00  0.00    -0.369 A  
HETATM   14  C   UNL     1     -10.331  10.084  66.789  1.00  0.00    -0.283 A  
HETATM   15  O   UNL     1      -9.281   8.699  70.575  1.00  0.00    -0.157 OA 
HETATM   16  C   UNL     1     -10.215  11.009  67.831  1.00  0.00    -0.207 A  
HETATM   17  C   UNL     1      -9.848  10.530  69.107  1.00  0.00    -0.233 A  
HETATM   18  C   UNL     1      -9.743   9.158  69.368  1.00  0.00    -0.170 A  
HETATM   19  C   UNL     1     -10.039   8.246  68.377  1.00  0.00    -0.227 A  
ENDROOT
BRANCH   9  20
HETATM   20  C   UNL     1     -11.536  13.591  63.510  1.00  0.00     0.074 C  
BRANCH  20  21
HETATM   21  C   UNL     1     -12.174  14.842  64.092  1.00  0.00    -0.280 C  
HETATM   22  C   UNL     1     -11.609  15.961  64.572  1.00  0.00    -0.232 C  
ENDBRANCH  20  21
ENDBRANCH   9  20
TORSDOF 2
ENDMDL
MODEL       86
REMARK 921   NORMALIZED FREE ENERGY PREDICTED BY IDOCK:   -4.01 KCAL/MOL
REMARK 922        TOTAL FREE ENERGY PREDICTED BY IDOCK:   -4.64 KCAL/MOL
REMARK 923 INTER-LIGAND FREE ENERGY PREDICTED BY IDOCK:   -4.30 KCAL/MOL
REMARK 924 INTRA-LIGAND FREE ENERGY PREDICTED BY IDOCK:   -0.34 KCAL/MOL
REMARK 927      BINDING AFFINITY PREDICTED BY RF-SCORE:    0.00 PKD
ROOT
HETATM    1  C   UNL     1     -10.225   8.734  66.583  1.00  0.00    -0.340 C  
HETATM    2  C   UNL     1     -10.075   7.213  66.945  1.00  0.00    -0.308 C  
HETATM    3  C   UNL     1     -10.835   6.777  68.165  1.00  0.00    -0.296 C  
HETATM    4  C   UNL     1     -10.943   7.842  69.237  1.00  0.00    -0.007 C  
HETATM    5  C   UNL     1     -10.012   9.055  69.150  1.00  0.00    -0.187 C  
HETATM    6  C   UNL     1      -9.656   9.629  67.735  1.00  0.00    -0.161 C  
HETATM    7  C   UNL     1      -8.002   9.721  67.632  1.00  0.00    -0.105 C  
HETATM    8  C   UNL     1      -7.171   9.634  66.241  1.00  0.00    -0.094 C  
HETATM    9  N   UNL     1      -7.839   9.016  65.014  1.00  0.00    -0.109 NA 
HETATM   10  H   UNL     1     -12.600  14.638  68.666  1.00  0.00     0.000 HD 
HETATM   11  C   UNL     1      -9.334   9.093  65.310  1.00  0.00    -0.156 C  
HETATM   12  C   UNL     1      -9.520  10.651  65.065  1.00  0.00    -0.293 C  
HETATM   13  C   UNL     1     -10.382  12.886  65.910  1.00  0.00    -0.297 A  
HETATM   14  C   UNL     1     -10.044  11.540  66.178  1.00  0.00    -0.266 A  
HETATM   15  O   UNL     1     -12.313  13.757  68.877  1.00  0.00    -0.291 OA 
HETATM   16  C   UNL     1     -10.264  11.016  67.455  1.00  0.00    -0.229 A  
HETATM   17  C   UNL     1     -11.043  11.771  68.357  1.00  0.00    -0.286 A  
HETATM   18  C   UNL     1     -11.467  13.069  68.046  1.00  0.00    -0.309 A  
HETATM   19  C   UNL     1     -11.088  13.647  66.852  1.00  0.00    -0.314 A  
ENDROOT
BRANCH   9  20
HETATM   20  C   UNL     1      -7.372   7.613  64.784  1.00  0.00    -0.076 C  
BRANCH  20  21
HETATM   21  C   UNL     1      -7.930   6.810  63.619  1.00  0.00    -0.067 C  
HETATM   22  C   UNL     1      -8.121   7.161  62.337  1.00  0.00    -0.109 C  
ENDBRANCH  20  21
ENDBRANCH   9  20
TORSDOF 2
ENDMDL
MODEL       87
REMARK 921   NORMALIZED FREE ENERGY PREDICTED BY IDOCK:   -3.99 KCAL/MOL
REMARK 922        TOTAL FREE ENERGY PREDICTED BY IDOCK:   -4.62 KCAL/MOL
REMARK 923 INTER-LIGAND FREE ENERGY PREDICTED BY IDOCK:   -4.39 KCAL/MOL
REMARK 924 INTRA-LIGAND FREE ENERGY PREDICTED BY IDOCK:   -0.23 KCAL/MOL
REMARK 927      BINDING AFFINITY PREDICTED BY RF-SCORE:    0.00 PKD
ROOT
HETATM    1  C   UNL     1      -9.906  10.429  69.391  1.00  0.00    -0.235 C  
HETATM    2  C   UNL     1     -11.383  10.778  69.798  1.00  0.00    -0.372 C  
HETATM    3  C   UNL     1     -11.897  10.041  71.003  1.00  0.00    -0.476 C  
HETATM    4  C   UNL     1     -11.342   8.639  71.151  1.00  0.00    -0.329 C  
HETATM    5  C   UNL     1     -10.649   8.003  69.942  1.00  0.00    -0.242 C  
HETATM    6  C   UNL     1      -9.790   8.917  69.001  1.00  0.00    -0.182 C  
HETATM    7  C   UNL     1     -10.323   8.677  67.448  1.00  0.00    -0.353 C  
HETATM    8  C   UNL     1     -10.219   9.788  66.269  1.00  0.00    -0.212 C  
HETATM    9  N   UNL     1     -10.034  11.257  66.646  1.00  0.00    -0.204 NA 
HETATM   10  H   UNL     1      -4.738   6.337  70.563  1.00  0.00     0.000 HD 
HETATM   11  C   UNL     1      -9.490  11.223  68.072  1.00  0.00    -0.173 C  
HETATM   12  C   UNL     1      -8.012  10.760  67.725  1.00  0.00    -0.110 C  
HETATM   13  C   UNL     1      -6.090   9.157  68.154  1.00  0.00    -0.050 A  
HETATM   14  C   UNL     1      -7.458   9.475  68.311  1.00  0.00    -0.078 A  
HETATM   15  O   UNL     1      -5.671   6.503  70.619  1.00  0.00    -0.022 OA 
HETATM   16  C   UNL     1      -8.278   8.636  69.071  1.00  0.00    -0.122 A  
HETATM   17  C   UNL     1      -7.661   7.639  69.858  1.00  0.00    -0.092 A  
HETATM   18  C   UNL     1      -6.284   7.395  69.776  1.00  0.00    -0.031 A  
HETATM   19  C   UNL     1      -5.511   8.110  68.885  1.00  0.00    -0.031 A  
ENDROOT
BRANCH   9  20
HETATM   20  C   UNL     1     -11.321  12.015  66.542  1.00  0.00    -0.354 C  
BRANCH  20  21
HETATM   21  C   UNL     1     -11.307  13.479  66.131  1.00  0.00    -0.325 C  
HETATM   22  C   UNL     1     -11.588  14.582  66.841  1.00  0.00    -0.399 C  
ENDBRANCH  20  21
ENDBRANCH   9  20
TORSDOF 2
ENDMDL
MODEL       88
REMARK 921   NORMALIZED FREE ENERGY PREDICTED BY IDOCK:   -3.92 KCAL/MOL
REMARK 922        TOTAL FREE ENERGY PREDICTED BY IDOCK:   -4.55 KCAL/MOL
REMARK 923 INTER-LIGAND FREE ENERGY PREDICTED BY IDOCK:   -4.37 KCAL/MOL
REMARK 924 INTRA-LIGAND FREE ENERGY PREDICTED BY IDOCK:   -0.17 KCAL/MOL
REMARK 927      BINDING AFFINITY PREDICTED BY RF-SCORE:    0.00 PKD
ROOT
HETATM    1  C   UNL     1      -9.677   5.914  72.520  1.00  0.00    -0.172 C  
HETATM    2  C   UNL     1     -10.850   5.326  73.384  1.00  0.00    -0.355 C  
HETATM    3  C   UNL     1     -10.755   3.852  73.658  1.00  0.00    -0.310 C  
HETATM    4  C   UNL     1     -10.118   3.057  72.537  1.00  0.00    -0.232 C  
HETATM    5  C   UNL     1      -9.981   3.721  71.164  1.00  0.00    -0.144 C  
HETATM    6  C   UNL     1      -9.661   5.255  71.100  1.00  0.00    -0.232 C  
HETATM    7  C   UNL     1     -10.798   5.964  70.120  1.00  0.00    -0.402 C  
HETATM    8  C   UNL     1     -11.271   7.511  70.247  1.00  0.00    -0.236 C  
HETATM    9  N   UNL     1     -11.019   8.260  71.555  1.00  0.00    -0.243 NA 
HETATM   10  H   UNL     1      -4.300   4.377  68.839  1.00  0.00     0.000 HD 
HETATM   11  C   UNL     1      -9.913   7.467  72.246  1.00  0.00    -0.181 C  
HETATM   12  C   UNL     1      -8.706   7.943  71.331  1.00  0.00    -0.148 C  
HETATM   13  C   UNL     1      -6.706   7.324  69.895  1.00  0.00    -0.051 A  
HETATM   14  C   UNL     1      -7.887   6.925  70.560  1.00  0.00    -0.105 A  
HETATM   15  O   UNL     1      -5.126   4.107  69.223  1.00  0.00     0.000 OA 
HETATM   16  C   UNL     1      -8.253   5.576  70.564  1.00  0.00    -0.112 A  
HETATM   17  C   UNL     1      -7.306   4.629  70.119  1.00  0.00    -0.050 A  
HETATM   18  C   UNL     1      -6.088   5.027  69.554  1.00  0.00    -0.022 A  
HETATM   19  C   UNL     1      -5.814   6.368  69.387  1.00  0.00    -0.021 A  
ENDROOT
BRANCH   9  20
HETATM   20  C   UNL     1     -12.263   8.349  72.383  1.00  0.00    -0.367 C  
BRANCH  20  21
HETATM   21  C   UNL     1     -13.329   9.378  72.041  1.00  0.00    -0.525 C  
HETATM   22  C   UNL     1     -13.273  10.719  72.049  1.00  0.00    -0.466 C  
ENDBRANCH  20  21
ENDBRANCH   9  20
TORSDOF 2
ENDMDL
MODEL       89
REMARK 921   NORMALIZED FREE ENERGY PREDICTED BY IDOCK:   -3.91 KCAL/MOL
REMARK 922        TOTAL FREE ENERGY PREDICTED BY IDOCK:   -4.53 KCAL/MOL
REMARK 923 INTER-LIGAND FREE ENERGY PREDICTED BY IDOCK:   -4.20 KCAL/MOL
REMARK 924 INTRA-LIGAND FREE ENERGY PREDICTED BY IDOCK:   -0.33 KCAL/MOL
REMARK 927      BINDING AFFINITY PREDICTED BY RF-SCORE:    0.00 PKD
ROOT
HETATM    1  C   UNL     1      -9.745   8.720  66.391  1.00  0.00    -0.335 C  
HETATM    2  C   UNL     1      -9.370  10.239  66.534  1.00  0.00    -0.200 C  
HETATM    3  C   UNL     1      -8.507  10.782  65.430  1.00  0.00    -0.132 C  
HETATM    4  C   UNL     1      -7.534   9.774  64.856  1.00  0.00    -0.129 C  
HETATM    5  C   UNL     1      -7.268   8.490  65.648  1.00  0.00    -0.079 C  
HETATM    6  C   UNL     1      -8.456   7.832  66.433  1.00  0.00    -0.136 C  
HETATM    7  C   UNL     1      -7.958   7.609  68.000  1.00  0.00    -0.122 C  
HETATM    8  C   UNL     1      -8.960   7.575  69.277  1.00  0.00    -0.136 C  
HETATM    9  N   UNL     1     -10.352   8.190  69.146  1.00  0.00    -0.219 NA 
HETATM   10  H   UNL     1      -8.585   3.108  62.928  1.00  0.00     0.000 HD 
HETATM   11  C   UNL     1     -10.610   8.241  67.642  1.00  0.00    -0.194 C  
HETATM   12  C   UNL     1     -10.888   6.693  67.421  1.00  0.00    -0.434 C  
HETATM   13  C   UNL     1     -10.384   4.568  66.125  1.00  0.00    -0.258 A  
HETATM   14  C   UNL     1     -10.027   5.894  66.461  1.00  0.00    -0.196 A  
HETATM   15  O   UNL     1      -8.296   3.971  63.196  1.00  0.00    -0.084 OA 
HETATM   16  C   UNL     1      -8.919   6.486  65.847  1.00  0.00    -0.103 A  
HETATM   17  C   UNL     1      -8.348   5.831  64.735  1.00  0.00    -0.116 A  
HETATM   18  C   UNL     1      -8.776   4.558  64.340  1.00  0.00    -0.149 A  
HETATM   19  C   UNL     1      -9.748   3.903  65.067  1.00  0.00    -0.192 A  
ENDROOT
BRANCH   9  20
HETATM   20  C   UNL     1     -10.415   9.543  69.783  1.00  0.00    -0.231 C  
BRANCH  20  21
HETATM   21  C   UNL     1     -11.554  10.490  69.440  1.00  0.00    -0.318 C  
HETATM   22  C   UNL     1     -11.833  11.716  69.910  1.00  0.00    -0.434 C  
ENDBRANCH  20  21
ENDBRANCH   9  20
TORSDOF 2
ENDMDL
MODEL       90
REMARK 921   NORMALIZED FREE ENERGY PREDICTED BY IDOCK:   -3.82 KCAL/MOL
REMARK 922        TOTAL FREE ENERGY PREDICTED BY IDOCK:   -4.43 KCAL/MOL
REMARK 923 INTER-LIGAND FREE ENERGY PREDICTED BY IDOCK:   -4.13 KCAL/MOL
REMARK 924 INTRA-LIGAND FREE ENERGY PREDICTED BY IDOCK:   -0.30 KCAL/MOL
REMARK 927      BINDING AFFINITY PREDICTED BY RF-SCORE:    0.00 PKD
ROOT
HETATM    1  C   UNL     1      -9.646   7.871  71.176  1.00  0.00    -0.181 C  
HETATM    2  C   UNL     1     -10.629   9.039  71.546  1.00  0.00    -0.415 C  
HETATM    3  C   UNL     1     -11.864   8.614  72.288  1.00  0.00    -0.436 C  
HETATM    4  C   UNL     1     -12.373   7.240  71.901  1.00  0.00    -0.346 C  
HETATM    5  C   UNL     1     -11.844   6.609  70.611  1.00  0.00    -0.443 C  
HETATM    6  C   UNL     1     -10.346   6.853  70.213  1.00  0.00    -0.218 C  
HETATM    7  C   UNL     1     -10.328   7.424  68.655  1.00  0.00    -0.215 C  
HETATM    8  C   UNL     1      -9.166   8.382  68.051  1.00  0.00    -0.136 C  
HETATM    9  N   UNL     1      -8.273   9.165  69.013  1.00  0.00    -0.112 NA 
HETATM   10  H   UNL     1      -8.861   1.223  71.058  1.00  0.00     0.000 HD 
HETATM   11  C   UNL     1      -8.406   8.430  70.344  1.00  0.00    -0.121 C  
HETATM   12  C   UNL     1      -7.512   7.169  69.982  1.00  0.00    -0.086 C  
HETATM   13  C   UNL     1      -7.267   4.643  69.898  1.00  0.00    -0.054 A  
HETATM   14  C   UNL     1      -8.104   5.774  70.040  1.00  0.00    -0.108 A  
HETATM   15  O   UNL     1      -9.445   1.971  71.087  1.00  0.00    -0.119 OA 
HETATM   16  C   UNL     1      -9.464   5.595  70.307  1.00  0.00    -0.202 A  
HETATM   17  C   UNL     1      -9.905   4.304  70.671  1.00  0.00    -0.265 A  
HETATM   18  C   UNL     1      -9.044   3.201  70.629  1.00  0.00    -0.121 A  
HETATM   19  C   UNL     1      -7.747   3.358  70.188  1.00  0.00    -0.044 A  
ENDROOT
BRANCH   9  20
HETATM   20  C   UNL     1      -8.693  10.599  69.106  1.00  0.00    -0.126 C  
BRANCH  20  21
HETATM   21  C   UNL     1      -9.575  11.201  68.024  1.00  0.00    -0.181 C  
HETATM   22  C   UNL     1      -9.288  12.109  67.077  1.00  0.00    -0.201 C  
ENDBRANCH  20  21
ENDBRANCH   9  20
TORSDOF 2
ENDMDL
MODEL       91
REMARK 921   NORMALIZED FREE ENERGY PREDICTED BY IDOCK:   -3.81 KCAL/MOL
REMARK 922        TOTAL FREE ENERGY PREDICTED BY IDOCK:   -4.42 KCAL/MOL
REMARK 923 INTER-LIGAND FREE ENERGY PREDICTED BY IDOCK:   -4.23 KCAL/MOL
REMARK 924 INTRA-LIGAND FREE ENERGY PREDICTED BY IDOCK:   -0.20 KCAL/MOL
REMARK 927      BINDING AFFINITY PREDICTED BY RF-SCORE:    0.00 PKD
ROOT
HETATM    1  C   UNL     1      -9.825  14.903  67.341  1.00  0.00    -0.221 C  
HETATM    2  C   UNL     1      -9.569  14.565  65.828  1.00  0.00    -0.242 C  
HETATM    3  C   UNL     1     -10.788  14.620  64.953  1.00  0.00    -0.436 C  
HETATM    4  C   UNL     1     -12.067  14.209  65.653  1.00  0.00    -0.425 C  
HETATM    5  C   UNL     1     -11.957  13.464  66.987  1.00  0.00    -0.429 C  
HETATM    6  C   UNL     1     -10.805  13.859  67.975  1.00  0.00    -0.259 C  
HETATM    7  C   UNL     1      -9.991  12.470  68.376  1.00  0.00    -0.212 C  
HETATM    8  C   UNL     1      -8.428  12.426  68.814  1.00  0.00     0.136 C  
HETATM    9  N   UNL     1      -7.520  13.599  68.446  1.00  0.00    -0.115 NA 
HETATM   10  H   UNL     1     -14.535  16.064  71.956  1.00  0.00     0.000 HD 
HETATM   11  C   UNL     1      -8.477  14.758  68.180  1.00  0.00    -0.149 C  
HETATM   12  C   UNL     1      -8.859  15.069  69.689  1.00  0.00     0.020 C  
HETATM   13  C   UNL     1     -10.671  15.450  71.427  1.00  0.00     0.143 A  
HETATM   14  C   UNL     1     -10.306  14.997  70.139  1.00  0.00    -0.057 A  
HETATM   15  O   UNL     1     -14.295  15.694  71.115  1.00  0.00    -0.485 OA 
HETATM   16  C   UNL     1     -11.297  14.553  69.259  1.00  0.00    -0.317 A  
HETATM   17  C   UNL     1     -12.645  14.804  69.595  1.00  0.00    -0.097 A  
HETATM   18  C   UNL     1     -12.997  15.351  70.835  1.00  0.00    -0.478 A  
HETATM   19  C   UNL     1     -12.020  15.617  71.771  1.00  0.00    -0.518 A  
ENDROOT
BRANCH   9  20
HETATM   20  C   UNL     1      -6.665  13.278  67.260  1.00  0.00     0.078 C  
BRANCH  20  21
HETATM   21  C   UNL     1      -5.415  12.431  67.434  1.00  0.00    -0.117 C  
HETATM   22  C   UNL     1      -5.230  11.112  67.268  1.00  0.00    -0.048 C  
ENDBRANCH  20  21
ENDBRANCH   9  20
TORSDOF 2
ENDMDL
MODEL       92
REMARK 921   NORMALIZED FREE ENERGY PREDICTED BY IDOCK:   -3.80 KCAL/MOL
REMARK 922        TOTAL FREE ENERGY PREDICTED BY IDOCK:   -4.41 KCAL/MOL
REMARK 923 INTER-LIGAND FREE ENERGY PREDICTED BY IDOCK:   -4.21 KCAL/MOL
REMARK 924 INTRA-LIGAND FREE ENERGY PREDICTED BY IDOCK:   -0.21 KCAL/MOL
REMARK 927      BINDING AFFINITY PREDICTED BY RF-SCORE:    0.00 PKD
ROOT
HETATM    1  C   UNL     1      -8.430   9.315  69.084  1.00  0.00    -0.133 C  
HETATM    2  C   UNL     1      -7.657  10.650  69.382  1.00  0.00    -0.135 C  
HETATM    3  C   UNL     1      -6.353  10.477  70.106  1.00  0.00    -0.132 C  
HETATM    4  C   UNL     1      -6.339   9.316  71.080  1.00  0.00    -0.083 C  
HETATM    5  C   UNL     1      -7.678   8.699  71.491  1.00  0.00    -0.152 C  
HETATM    6  C   UNL     1      -8.821   8.600  70.421  1.00  0.00    -0.170 C  
HETATM    7  C   UNL     1     -10.180   9.294  71.073  1.00  0.00    -0.384 C  
HETATM    8  C   UNL     1     -11.357   9.987  70.197  1.00  0.00    -0.291 C  
HETATM    9  N   UNL     1     -11.057  10.427  68.765  1.00  0.00    -0.244 NA 
HETATM   10  H   UNL     1      -8.594   2.723  70.243  1.00  0.00     0.000 HD 
HETATM   11  C   UNL     1      -9.820   9.625  68.367  1.00  0.00    -0.153 C  
HETATM   12  C   UNL     1     -10.534   8.222  68.160  1.00  0.00    -0.226 C  
HETATM   13  C   UNL     1     -10.601   5.735  68.665  1.00  0.00    -0.305 A  
HETATM   14  C   UNL     1     -10.098   7.019  68.974  1.00  0.00    -0.182 A  
HETATM   15  O   UNL     1      -8.300   3.587  70.506  1.00  0.00    -0.059 OA 
HETATM   16  C   UNL     1      -9.142   7.159  69.984  1.00  0.00    -0.145 A  
HETATM   17  C   UNL     1      -8.531   5.990  70.488  1.00  0.00    -0.132 A  
HETATM   18  C   UNL     1      -8.965   4.716  70.100  1.00  0.00    -0.089 A  
HETATM   19  C   UNL     1     -10.034   4.587  69.238  1.00  0.00    -0.192 A  
ENDROOT
BRANCH   9  20
HETATM   20  C   UNL     1     -10.831  11.905  68.683  1.00  0.00    -0.235 C  
BRANCH  20  21
HETATM   21  C   UNL     1     -11.762  12.855  69.419  1.00  0.00    -0.382 C  
HETATM   22  C   UNL     1     -11.959  14.173  69.260  1.00  0.00    -0.382 C  
ENDBRANCH  20  21
ENDBRANCH   9  20
TORSDOF 2
ENDMDL
MODEL       93
REMARK 921   NORMALIZED FREE ENERGY PREDICTED BY IDOCK:   -3.74 KCAL/MOL
REMARK 922        TOTAL FREE ENERGY PREDICTED BY IDOCK:   -4.34 KCAL/MOL
REMARK 923 INTER-LIGAND FREE ENERGY PREDICTED BY IDOCK:   -4.06 KCAL/MOL
REMARK 924 INTRA-LIGAND FREE ENERGY PREDICTED BY IDOCK:   -0.28 KCAL/MOL
REMARK 927      BINDING AFFINITY PREDICTED BY RF-SCORE:    0.00 PKD
ROOT
HETATM    1  C   UNL     1      -8.260   7.783  68.759  1.00  0.00    -0.128 C  
HETATM    2  C   UNL     1      -7.595   6.870  69.851  1.00  0.00    -0.099 C  
HETATM    3  C   UNL     1      -6.236   6.340  69.490  1.00  0.00    -0.033 C  
HETATM    4  C   UNL     1      -6.054   6.070  68.010  1.00  0.00    -0.021 C  
HETATM    5  C   UNL     1      -7.303   6.005  67.126  1.00  0.00    -0.076 C  
HETATM    6  C   UNL     1      -8.497   6.972  67.441  1.00  0.00    -0.122 C  
HETATM    7  C   UNL     1      -9.870   6.048  67.569  1.00  0.00    -0.138 C  
HETATM    8  C   UNL     1     -11.159   6.454  68.467  1.00  0.00    -0.300 C  
HETATM    9  N   UNL     1     -10.992   7.482  69.585  1.00  0.00    -0.201 NA 
HETATM   10  H   UNL     1      -7.747  10.042  62.477  1.00  0.00     0.000 HD 
HETATM   11  C   UNL     1      -9.715   8.238  69.225  1.00  0.00    -0.177 C  
HETATM   12  C   UNL     1     -10.310   9.105  68.036  1.00  0.00    -0.272 C  
HETATM   13  C   UNL     1     -10.117   9.899  65.631  1.00  0.00    -0.307 A  
HETATM   14  C   UNL     1      -9.714   9.000  66.644  1.00  0.00    -0.295 A  
HETATM   15  O   UNL     1      -7.517   9.389  63.126  1.00  0.00    -0.105 OA 
HETATM   16  C   UNL     1      -8.713   8.063  66.375  1.00  0.00    -0.169 A  
HETATM   17  C   UNL     1      -7.967   8.211  65.185  1.00  0.00    -0.126 A  
HETATM   18  C   UNL     1      -8.306   9.175  64.228  1.00  0.00    -0.173 A  
HETATM   19  C   UNL     1      -9.412   9.976  64.422  1.00  0.00    -0.349 A  
ENDROOT
BRANCH   9  20
HETATM   20  C   UNL     1     -10.908   6.823  70.927  1.00  0.00    -0.249 C  
BRANCH  20  21
HETATM   21  C   UNL     1     -10.924   7.670  72.189  1.00  0.00    -0.304 C  
HETATM   22  C   UNL     1     -10.441   7.410  73.414  1.00  0.00    -0.419 C  
ENDBRANCH  20  21
ENDBRANCH   9  20
TORSDOF 2
ENDMDL
MODEL       94
REMARK 921   NORMALIZED FREE ENERGY PREDICTED BY IDOCK:   -3.73 KCAL/MOL
REMARK 922        TOTAL FREE ENERGY PREDICTED BY IDOCK:   -4.33 KCAL/MOL
REMARK 923 INTER-LIGAND FREE ENERGY PREDICTED BY IDOCK:   -4.15 KCAL/MOL
REMARK 924 INTRA-LIGAND FREE ENERGY PREDICTED BY IDOCK:   -0.18 KCAL/MOL
REMARK 927      BINDING AFFINITY PREDICTED BY RF-SCORE:    0.00 PKD
ROOT
HETATM    1  C   UNL     1     -10.529   7.587  68.070  1.00  0.00    -0.253 C  
HETATM    2  C   UNL     1     -10.778   9.105  68.389  1.00  0.00    -0.163 C  
HETATM    3  C   UNL     1     -10.549  10.039  67.235  1.00  0.00    -0.319 C  
HETATM    4  C   UNL     1      -9.448   9.595  66.293  1.00  0.00    -0.255 C  
HETATM    5  C   UNL     1      -8.479   8.509  66.771  1.00  0.00    -0.111 C  
HETATM    6  C   UNL     1      -9.033   7.351  67.672  1.00  0.00    -0.126 C  
HETATM    7  C   UNL     1      -8.079   7.270  69.027  1.00  0.00    -0.124 C  
HETATM    8  C   UNL     1      -8.589   6.722  70.467  1.00  0.00    -0.142 C  
HETATM    9  N   UNL     1     -10.089   6.674  70.756  1.00  0.00    -0.184 NA 
HETATM   10  H   UNL     1      -8.192   3.274  63.513  1.00  0.00     0.000 HD 
HETATM   11  C   UNL     1     -10.747   6.701  69.378  1.00  0.00    -0.259 C  
HETATM   12  C   UNL     1     -10.422   5.205  68.958  1.00  0.00    -0.149 C  
HETATM   13  C   UNL     1      -9.476   3.599  67.233  1.00  0.00    -0.235 A  
HETATM   14  C   UNL     1      -9.610   4.924  67.707  1.00  0.00    -0.184 A  
HETATM   15  O   UNL     1      -8.216   4.159  63.857  1.00  0.00    -0.089 OA 
HETATM   16  C   UNL     1      -9.052   5.977  66.977  1.00  0.00    -0.117 A  
HETATM   17  C   UNL     1      -8.593   5.709  65.670  1.00  0.00    -0.150 A  
HETATM   18  C   UNL     1      -8.559   4.404  65.162  1.00  0.00    -0.126 A  
HETATM   19  C   UNL     1      -8.943   3.346  65.961  1.00  0.00    -0.143 A  
ENDROOT
BRANCH   9  20
HETATM   20  C   UNL     1     -10.517   7.821  71.617  1.00  0.00    -0.202 C  
BRANCH  20  21
HETATM   21  C   UNL     1     -10.705   7.616  73.112  1.00  0.00    -0.445 C  
HETATM   22  C   UNL     1     -10.022   6.847  73.974  1.00  0.00    -0.371 C  
ENDBRANCH  20  21
ENDBRANCH   9  20
TORSDOF 2
ENDMDL
MODEL       95
REMARK 921   NORMALIZED FREE ENERGY PREDICTED BY IDOCK:   -3.70 KCAL/MOL
REMARK 922        TOTAL FREE ENERGY PREDICTED BY IDOCK:   -4.30 KCAL/MOL
REMARK 923 INTER-LIGAND FREE ENERGY PREDICTED BY IDOCK:   -4.15 KCAL/MOL
REMARK 924 INTRA-LIGAND FREE ENERGY PREDICTED BY IDOCK:   -0.15 KCAL/MOL
REMARK 927      BINDING AFFINITY PREDICTED BY RF-SCORE:    0.00 PKD
ROOT
HETATM    1  C   UNL     1      -8.595   9.695  65.133  1.00  0.00    -0.175 C  
HETATM    2  C   UNL     1      -8.032  10.146  63.738  1.00  0.00    -0.153 C  
HETATM    3  C   UNL     1      -6.586   9.812  63.502  1.00  0.00    -0.117 C  
HETATM    4  C   UNL     1      -5.733   9.850  64.754  1.00  0.00    -0.093 C  
HETATM    5  C   UNL     1      -6.299  10.545  65.995  1.00  0.00    -0.124 C  
HETATM    6  C   UNL     1      -7.834  10.423  66.291  1.00  0.00    -0.132 C  
HETATM    7  C   UNL     1      -8.428  11.959  66.498  1.00  0.00    -0.097 C  
HETATM    8  C   UNL     1      -9.963  12.389  66.193  1.00  0.00    -0.253 C  
HETATM    9  N   UNL     1     -10.815  11.507  65.282  1.00  0.00    -0.280 NA 
HETATM   10  H   UNL     1      -6.977   7.174  71.122  1.00  0.00     0.000 HD 
HETATM   11  C   UNL     1     -10.114  10.151  65.294  1.00  0.00    -0.274 C  
HETATM   12  C   UNL     1     -10.563   9.692  66.746  1.00  0.00    -0.209 C  
HETATM   13  C   UNL     1      -9.909   8.789  69.027  1.00  0.00    -0.183 A  
HETATM   14  C   UNL     1      -9.520   9.370  67.799  1.00  0.00    -0.152 A  
HETATM   15  O   UNL     1      -6.708   7.626  70.331  1.00  0.00    -0.042 OA 
HETATM   16  C   UNL     1      -8.163   9.577  67.535  1.00  0.00    -0.121 A  
HETATM   17  C   UNL     1      -7.219   8.972  68.393  1.00  0.00    -0.077 A  
HETATM   18  C   UNL     1      -7.616   8.305  69.558  1.00  0.00    -0.095 A  
HETATM   19  C   UNL     1      -8.950   8.264  69.906  1.00  0.00    -0.139 A  
ENDROOT
BRANCH   9  20
HETATM   20  C   UNL     1     -10.921  12.085  63.905  1.00  0.00    -0.401 C  
BRANCH  20  21
HETATM   21  C   UNL     1     -11.985  13.127  63.601  1.00  0.00    -0.580 C  
HETATM   22  C   UNL     1     -12.280  14.275  64.232  1.00  0.00    -0.451 C  
ENDBRANCH  20  21
ENDBRANCH   9  20
TORSDOF 2
ENDMDL
MODEL       96
REMARK 921   NORMALIZED FREE ENERGY PREDICTED BY IDOCK:   -3.66 KCAL/MOL
REMARK 922        TOTAL FREE ENERGY PREDICTED BY IDOCK:   -4.25 KCAL/MOL
REMARK 923 INTER-LIGAND FREE ENERGY PREDICTED BY IDOCK:   -3.87 KCAL/MOL
REMARK 924 INTRA-LIGAND FREE ENERGY PREDICTED BY IDOCK:   -0.37 KCAL/MOL
REMARK 927      BINDING AFFINITY PREDICTED BY RF-SCORE:    0.00 PKD
ROOT
HETATM    1  C   UNL     1      -7.654   9.546  67.151  1.00  0.00    -0.091 C  
HETATM    2  C   UNL     1      -6.358   8.661  67.226  1.00  0.00    -0.057 C  
HETATM    3  C   UNL     1      -5.639   8.482  65.919  1.00  0.00    -0.045 C  
HETATM    4  C   UNL     1      -6.554   8.451  64.712  1.00  0.00    -0.068 C  
HETATM    5  C   UNL     1      -8.053   8.238  64.944  1.00  0.00    -0.150 C  
HETATM    6  C   UNL     1      -8.715   8.881  66.212  1.00  0.00    -0.162 C  
HETATM    7  C   UNL     1      -9.528   7.679  67.017  1.00  0.00    -0.209 C  
HETATM    8  C   UNL     1      -9.808   7.683  68.616  1.00  0.00    -0.171 C  
HETATM    9  N   UNL     1      -8.951   8.569  69.518  1.00  0.00    -0.148 NA 
HETATM   10  H   UNL     1     -11.915  12.656  63.028  1.00  0.00     0.000 HD 
HETATM   11  C   UNL     1      -8.361   9.618  68.579  1.00  0.00    -0.117 C  
HETATM   12  C   UNL     1      -9.675  10.487  68.378  1.00  0.00    -0.166 C  
HETATM   13  C   UNL     1     -11.304  11.607  66.785  1.00  0.00    -0.354 A  
HETATM   14  C   UNL     1     -10.248  10.690  66.988  1.00  0.00    -0.267 A  
HETATM   15  O   UNL     1     -11.253  11.988  63.159  1.00  0.00    -0.324 OA 
HETATM   16  C   UNL     1      -9.690  10.030  65.891  1.00  0.00    -0.309 A  
HETATM   17  C   UNL     1     -10.029  10.485  64.598  1.00  0.00    -0.415 A  
HETATM   18  C   UNL     1     -11.004  11.471  64.405  1.00  0.00    -0.324 A  
HETATM   19  C   UNL     1     -11.682  11.988  65.490  1.00  0.00    -0.315 A  
ENDROOT
BRANCH   9  20
HETATM   20  C   UNL     1      -7.896   7.775  70.224  1.00  0.00    -0.091 C  
BRANCH  20  21
HETATM   21  C   UNL     1      -6.792   8.490  70.985  1.00  0.00    -0.059 C  
HETATM   22  C   UNL     1      -5.532   8.108  71.250  1.00  0.00    -0.033 C  
ENDBRANCH  20  21
ENDBRANCH   9  20
TORSDOF 2
ENDMDL
MODEL       97
REMARK 921   NORMALIZED FREE ENERGY PREDICTED BY IDOCK:   -3.62 KCAL/MOL
REMARK 922        TOTAL FREE ENERGY PREDICTED BY IDOCK:   -4.21 KCAL/MOL
REMARK 923 INTER-LIGAND FREE ENERGY PREDICTED BY IDOCK:   -3.91 KCAL/MOL
REMARK 924 INTRA-LIGAND FREE ENERGY PREDICTED BY IDOCK:   -0.30 KCAL/MOL
REMARK 927      BINDING AFFINITY PREDICTED BY RF-SCORE:    0.00 PKD
ROOT
HETATM    1  C   UNL     1     -10.204   9.266  66.412  1.00  0.00    -0.298 C  
HETATM    2  C   UNL     1     -10.395  10.626  65.649  1.00  0.00    -0.285 C  
HETATM    3  C   UNL     1      -9.948  10.615  64.215  1.00  0.00    -0.413 C  
HETATM    4  C   UNL     1      -8.759   9.714  63.948  1.00  0.00    -0.241 C  
HETATM    5  C   UNL     1      -7.939   9.223  65.145  1.00  0.00    -0.116 C  
HETATM    6  C   UNL     1      -8.687   8.888  66.482  1.00  0.00    -0.145 C  
HETATM    7  C   UNL     1      -7.936   9.728  67.700  1.00  0.00    -0.105 C  
HETATM    8  C   UNL     1      -8.675  10.208  69.063  1.00  0.00    -0.161 C  
HETATM    9  N   UNL     1     -10.200  10.298  69.090  1.00  0.00    -0.205 NA 
HETATM   10  H   UNL     1      -7.547   3.131  66.057  1.00  0.00     0.000 HD 
HETATM   11  C   UNL     1     -10.658   9.413  67.933  1.00  0.00    -0.237 C  
HETATM   12  C   UNL     1     -10.377   8.007  68.616  1.00  0.00    -0.224 C  
HETATM   13  C   UNL     1      -9.309   5.708  68.473  1.00  0.00    -0.139 A  
HETATM   14  C   UNL     1      -9.420   7.024  67.969  1.00  0.00    -0.126 A  
HETATM   15  O   UNL     1      -7.560   4.029  65.750  1.00  0.00    -0.083 OA 
HETATM   16  C   UNL     1      -8.699   7.387  66.828  1.00  0.00    -0.136 A  
HETATM   17  C   UNL     1      -8.082   6.363  66.078  1.00  0.00    -0.120 A  
HETATM   18  C   UNL     1      -8.063   5.038  66.531  1.00  0.00    -0.108 A  
HETATM   19  C   UNL     1      -8.622   4.721  67.751  1.00  0.00    -0.103 A  
ENDROOT
BRANCH   9  20
HETATM   20  C   UNL     1     -10.667  11.713  68.948  1.00  0.00    -0.207 C  
BRANCH  20  21
HETATM   21  C   UNL     1      -9.774  12.742  68.275  1.00  0.00    -0.216 C  
HETATM   22  C   UNL     1     -10.000  14.034  67.991  1.00  0.00    -0.235 C  
ENDBRANCH  20  21
ENDBRANCH   9  20
TORSDOF 2
ENDMDL
MODEL       98
REMARK 921   NORMALIZED FREE ENERGY PREDICTED BY IDOCK:   -3.61 KCAL/MOL
REMARK 922        TOTAL FREE ENERGY PREDICTED BY IDOCK:   -4.19 KCAL/MOL
REMARK 923 INTER-LIGAND FREE ENERGY PREDICTED BY IDOCK:   -3.80 KCAL/MOL
REMARK 924 INTRA-LIGAND FREE ENERGY PREDICTED BY IDOCK:   -0.40 KCAL/MOL
REMARK 927      BINDING AFFINITY PREDICTED BY RF-SCORE:    0.00 PKD
ROOT
HETATM    1  C   UNL     1      -8.404   8.431  66.380  1.00  0.00    -0.116 C  
HETATM    2  C   UNL     1      -7.536   9.416  65.517  1.00  0.00    -0.099 C  
HETATM    3  C   UNL     1      -6.071   9.091  65.470  1.00  0.00    -0.055 C  
HETATM    4  C   UNL     1      -5.536   8.469  66.743  1.00  0.00    -0.036 C  
HETATM    5  C   UNL     1      -6.389   8.568  68.012  1.00  0.00    -0.056 C  
HETATM    6  C   UNL     1      -7.948   8.471  67.878  1.00  0.00    -0.108 C  
HETATM    7  C   UNL     1      -8.600   9.789  68.646  1.00  0.00    -0.121 C  
HETATM    8  C   UNL     1     -10.028  10.455  68.256  1.00  0.00    -0.151 C  
HETATM    9  N   UNL     1     -10.627  10.176  66.879  1.00  0.00    -0.225 NA 
HETATM   10  H   UNL     1      -8.194   3.302  70.679  1.00  0.00     0.000 HD 
HETATM   11  C   UNL     1      -9.926   8.905  66.405  1.00  0.00    -0.284 C  
HETATM   12  C   UNL     1     -10.695   7.876  67.338  1.00  0.00    -0.278 C  
HETATM   13  C   UNL     1     -10.579   5.969  69.010  1.00  0.00    -0.357 A  
HETATM   14  C   UNL     1      -9.923   7.009  68.314  1.00  0.00    -0.165 A  
HETATM   15  O   UNL     1      -7.755   4.039  70.272  1.00  0.00    -0.048 OA 
HETATM   16  C   UNL     1      -8.545   7.184  68.476  1.00  0.00    -0.124 A  
HETATM   17  C   UNL     1      -7.819   6.166  69.131  1.00  0.00    -0.104 A  
HETATM   18  C   UNL     1      -8.467   5.079  69.732  1.00  0.00    -0.088 A  
HETATM   19  C   UNL     1      -9.845   5.011  69.723  1.00  0.00    -0.286 A  
ENDROOT
BRANCH   9  20
HETATM   20  C   UNL     1     -10.417  11.328  65.946  1.00  0.00    -0.259 C  
BRANCH  20  21
HETATM   21  C   UNL     1     -10.671  11.153  64.458  1.00  0.00    -0.368 C  
HETATM   22  C   UNL     1     -10.039  11.688  63.401  1.00  0.00    -0.468 C  
ENDBRANCH  20  21
ENDBRANCH   9  20
TORSDOF 2
ENDMDL
MODEL       99
REMARK 921   NORMALIZED FREE ENERGY PREDICTED BY IDOCK:   -3.60 KCAL/MOL
REMARK 922        TOTAL FREE ENERGY PREDICTED BY IDOCK:   -4.19 KCAL/MOL
REMARK 923 INTER-LIGAND FREE ENERGY PREDICTED BY IDOCK:   -3.89 KCAL/MOL
REMARK 924 INTRA-LIGAND FREE ENERGY PREDICTED BY IDOCK:   -0.30 KCAL/MOL
REMARK 927      BINDING AFFINITY PREDICTED BY RF-SCORE:    0.00 PKD
ROOT
HETATM    1  C   UNL     1      -9.060  10.065  66.710  1.00  0.00    -0.159 C  
HETATM    2  C   UNL     1     -10.081   9.682  65.579  1.00  0.00    -0.165 C  
HETATM    3  C   UNL     1     -10.364  10.775  64.588  1.00  0.00    -0.394 C  
HETATM    4  C   UNL     1     -10.318  12.169  65.179  1.00  0.00    -0.311 C  
HETATM    5  C   UNL     1     -10.359  12.313  66.703  1.00  0.00    -0.237 C  
HETATM    6  C   UNL     1      -9.621  11.240  67.579  1.00  0.00    -0.181 C  
HETATM    7  C   UNL     1     -10.710  10.668  68.692  1.00  0.00    -0.239 C  
HETATM    8  C   UNL     1     -10.644   9.186  69.351  1.00  0.00    -0.223 C  
HETATM    9  N   UNL     1      -9.840   8.095  68.646  1.00  0.00    -0.177 NA 
HETATM   10  H   UNL     1      -5.579  15.079  69.461  1.00  0.00     0.000 HD 
HETATM   11  C   UNL     1      -8.882   8.853  67.731  1.00  0.00    -0.135 C  
HETATM   12  C   UNL     1      -7.877   9.362  68.851  1.00  0.00    -0.083 C  
HETATM   13  C   UNL     1      -6.614  11.296  69.907  1.00  0.00    -0.108 A  
HETATM   14  C   UNL     1      -7.638  10.848  69.042  1.00  0.00    -0.135 A  
HETATM   15  O   UNL     1      -6.314  14.796  68.931  1.00  0.00    -0.084 OA 
HETATM   16  C   UNL     1      -8.379  11.781  68.310  1.00  0.00    -0.159 A  
HETATM   17  C   UNL     1      -7.914  13.113  68.270  1.00  0.00    -0.148 A  
HETATM   18  C   UNL     1      -6.831  13.531  69.052  1.00  0.00    -0.107 A  
HETATM   19  C   UNL     1      -6.220  12.641  69.912  1.00  0.00    -0.088 A  
ENDROOT
BRANCH   9  20
HETATM   20  C   UNL     1     -10.732   7.159  67.891  1.00  0.00    -0.192 C  
BRANCH  20  21
HETATM   21  C   UNL     1     -10.158   6.300  66.776  1.00  0.00    -0.237 C  
HETATM   22  C   UNL     1     -10.613   5.156  66.241  1.00  0.00    -0.325 C  
ENDBRANCH  20  21
ENDBRANCH   9  20
TORSDOF 2
ENDMDL
MODEL      100
REMARK 921   NORMALIZED FREE ENERGY PREDICTED BY IDOCK:   -3.59 KCAL/MOL
REMARK 922        TOTAL FREE ENERGY PREDICTED BY IDOCK:   -4.17 KCAL/MOL
REMARK 923 INTER-LIGAND FREE ENERGY PREDICTED BY IDOCK:   -3.69 KCAL/MOL
REMARK 924 INTRA-LIGAND FREE ENERGY PREDICTED BY IDOCK:   -0.48 KCAL/MOL
REMARK 927      BINDING AFFINITY PREDICTED BY RF-SCORE:    0.00 PKD
ROOT
HETATM    1  C   UNL     1      -8.811   9.570  68.287  1.00  0.00    -0.124 C  
HETATM    2  C   UNL     1      -9.421  10.136  69.620  1.00  0.00    -0.226 C  
HETATM    3  C   UNL     1      -9.867   9.092  70.604  1.00  0.00    -0.284 C  
HETATM    4  C   UNL     1     -10.398   7.827  69.961  1.00  0.00    -0.221 C  
HETATM    5  C   UNL     1     -10.762   7.867  68.474  1.00  0.00    -0.069 C  
HETATM    6  C   UNL     1      -9.882   8.735  67.508  1.00  0.00    -0.232 C  
HETATM    7  C   UNL     1     -10.902   9.739  66.668  1.00  0.00    -0.011 C  
HETATM    8  C   UNL     1     -10.466  11.184  66.070  1.00  0.00    -0.256 C  
HETATM    9  N   UNL     1      -9.229  11.880  66.636  1.00  0.00    -0.200 NA 
HETATM   10  H   UNL     1      -7.772   4.028  64.676  1.00  0.00     0.000 HD 
HETATM   11  C   UNL     1      -8.429  10.763  67.300  1.00  0.00    -0.124 C  
HETATM   12  C   UNL     1      -7.875  10.081  65.977  1.00  0.00    -0.119 C  
HETATM   13  C   UNL     1      -7.546   7.969  64.606  1.00  0.00    -0.111 A  
HETATM   14  C   UNL     1      -8.185   8.626  65.682  1.00  0.00    -0.123 A  
HETATM   15  O   UNL     1      -8.260   4.474  65.358  1.00  0.00    -0.108 OA 
HETATM   16  C   UNL     1      -9.048   7.906  66.514  1.00  0.00    -0.209 A  
HETATM   17  C   UNL     1      -9.056   6.499  66.403  1.00  0.00    -0.172 A  
HETATM   18  C   UNL     1      -8.337   5.843  65.397  1.00  0.00    -0.149 A  
HETATM   19  C   UNL     1      -7.632   6.577  64.466  1.00  0.00    -0.101 A  
ENDROOT
BRANCH   9  20
HETATM   20  C   UNL     1      -9.603  12.966  67.596  1.00  0.00    -0.196 C  
BRANCH  20  21
HETATM   21  C   UNL     1     -11.067  13.305  67.823  1.00  0.00    -0.289 C  
HETATM   22  C   UNL     1     -11.799  13.281  68.948  1.00  0.00    -0.367 C  
ENDBRANCH  20  21
ENDBRANCH   9  20
TORSDOF 2
ENDMDL
MODEL      101
REMARK 921   NORMALIZED FREE ENERGY PREDICTED BY IDOCK:   -3.45 KCAL/MOL
REMARK 922        TOTAL FREE ENERGY PREDICTED BY IDOCK:   -4.02 KCAL/MOL
REMARK 923 INTER-LIGAND FREE ENERGY PREDICTED BY IDOCK:   -3.62 KCAL/MOL
REMARK 924 INTRA-LIGAND FREE ENERGY PREDICTED BY IDOCK:   -0.40 KCAL/MOL
REMARK 927      BINDING AFFINITY PREDICTED BY RF-SCORE:    0.00 PKD
ROOT
HETATM    1  C   UNL     1      -9.546   7.363  67.034  1.00  0.00    -0.221 C  
HETATM    2  C   UNL     1      -8.821   6.482  65.953  1.00  0.00    -0.131 C  
HETATM    3  C   UNL     1      -8.730   5.020  66.288  1.00  0.00    -0.117 C  
HETATM    4  C   UNL     1      -8.590   4.736  67.770  1.00  0.00    -0.103 C  
HETATM    5  C   UNL     1      -8.200   5.891  68.696  1.00  0.00    -0.109 C  
HETATM    6  C   UNL     1      -8.759   7.323  68.387  1.00  0.00    -0.122 C  
HETATM    7  C   UNL     1      -7.469   8.365  68.338  1.00  0.00    -0.095 C  
HETATM    8  C   UNL     1      -7.439   9.735  67.468  1.00  0.00    -0.091 C  
HETATM    9  N   UNL     1      -8.421   9.902  66.310  1.00  0.00    -0.127 NA 
HETATM   10  H   UNL     1     -12.128   7.405  73.211  1.00  0.00     0.000 HD 
HETATM   11  C   UNL     1      -9.533   8.897  66.600  1.00  0.00    -0.202 C  
HETATM   12  C   UNL     1     -10.239   9.696  67.777  1.00  0.00    -0.253 C  
HETATM   13  C   UNL     1     -11.158   9.694  70.144  1.00  0.00    -0.314 A  
HETATM   14  C   UNL     1     -10.373   9.066  69.151  1.00  0.00    -0.229 A  
HETATM   15  O   UNL     1     -11.543   7.007  72.578  1.00  0.00    -0.264 OA 
HETATM   16  C   UNL     1      -9.784   7.828  69.421  1.00  0.00    -0.169 A  
HETATM   17  C   UNL     1     -10.196   7.134  70.579  1.00  0.00    -0.206 A  
HETATM   18  C   UNL     1     -11.059   7.721  71.512  1.00  0.00    -0.236 A  
HETATM   19  C   UNL     1     -11.492   9.018  71.326  1.00  0.00    -0.390 A  
ENDROOT
BRANCH   9  20
HETATM   20  C   UNL     1      -7.758   9.656  64.990  1.00  0.00    -0.119 C  
BRANCH  20  21
HETATM   21  C   UNL     1      -6.471   8.849  64.928  1.00  0.00    -0.066 C  
HETATM   22  C   UNL     1      -6.014   8.017  63.979  1.00  0.00    -0.058 C  
ENDBRANCH  20  21
ENDBRANCH   9  20
TORSDOF 2
ENDMDL
MODEL      102
REMARK 921   NORMALIZED FREE ENERGY PREDICTED BY IDOCK:   -3.41 KCAL/MOL
REMARK 922        TOTAL FREE ENERGY PREDICTED BY IDOCK:   -3.97 KCAL/MOL
REMARK 923 INTER-LIGAND FREE ENERGY PREDICTED BY IDOCK:   -3.52 KCAL/MOL
REMARK 924 INTRA-LIGAND FREE ENERGY PREDICTED BY IDOCK:   -0.45 KCAL/MOL
REMARK 927      BINDING AFFINITY PREDICTED BY RF-SCORE:    0.00 PKD
ROOT
HETATM    1  C   UNL     1      -7.220   8.261  66.458  1.00  0.00    -0.076 C  
HETATM    2  C   UNL     1      -6.095   7.188  66.232  1.00  0.00    -0.036 C  
HETATM    3  C   UNL     1      -5.481   7.196  64.861  1.00  0.00    -0.032 C  
HETATM    4  C   UNL     1      -6.443   7.582  63.757  1.00  0.00    -0.053 C  
HETATM    5  C   UNL     1      -7.944   7.563  64.064  1.00  0.00    -0.091 C  
HETATM    6  C   UNL     1      -8.424   8.001  65.491  1.00  0.00    -0.159 C  
HETATM    7  C   UNL     1      -9.394   6.794  66.086  1.00  0.00    -0.095 C  
HETATM    8  C   UNL     1      -9.593   6.482  67.667  1.00  0.00    -0.122 C  
HETATM    9  N   UNL     1      -8.553   6.995  68.662  1.00  0.00    -0.121 NA 
HETATM   10  H   UNL     1     -11.067  12.854  63.469  1.00  0.00     0.000 HD 
HETATM   11  C   UNL     1      -7.836   8.121  67.922  1.00  0.00    -0.122 C  
HETATM   12  C   UNL     1      -8.987   9.210  68.023  1.00  0.00    -0.129 C  
HETATM   13  C   UNL     1     -10.471  10.905  66.850  1.00  0.00    -0.299 A  
HETATM   14  C   UNL     1      -9.581   9.810  66.763  1.00  0.00    -0.228 A  
HETATM   15  O   UNL     1     -10.526  12.077  63.398  1.00  0.00    -0.427 OA 
HETATM   16  C   UNL     1      -9.198   9.333  65.506  1.00  0.00    -0.292 A  
HETATM   17  C   UNL     1      -9.514  10.114  64.374  1.00  0.00    -0.368 A  
HETATM   18  C   UNL     1     -10.311  11.261  64.479  1.00  0.00    -0.322 A  
HETATM   19  C   UNL     1     -10.837  11.622  65.702  1.00  0.00    -0.330 A  
ENDROOT
BRANCH   9  20
HETATM   20  C   UNL     1      -7.620   5.906  69.090  1.00  0.00    -0.090 C  
BRANCH  20  21
HETATM   21  C   UNL     1      -7.673   4.551  68.403  1.00  0.00    -0.079 C  
HETATM   22  C   UNL     1      -6.688   3.685  68.116  1.00  0.00    -0.046 C  
ENDBRANCH  20  21
ENDBRANCH   9  20
TORSDOF 2
ENDMDL
MODEL      103
REMARK 921   NORMALIZED FREE ENERGY PREDICTED BY IDOCK:   -3.40 KCAL/MOL
REMARK 922        TOTAL FREE ENERGY PREDICTED BY IDOCK:   -3.96 KCAL/MOL
REMARK 923 INTER-LIGAND FREE ENERGY PREDICTED BY IDOCK:   -3.70 KCAL/MOL
REMARK 924 INTRA-LIGAND FREE ENERGY PREDICTED BY IDOCK:   -0.26 KCAL/MOL
REMARK 927      BINDING AFFINITY PREDICTED BY RF-SCORE:    0.00 PKD
ROOT
HETATM    1  C   UNL     1      -8.462   6.951  68.390  1.00  0.00    -0.123 C  
HETATM    2  C   UNL     1      -7.716   7.703  69.550  1.00  0.00    -0.103 C  
HETATM    3  C   UNL     1      -6.320   7.220  69.821  1.00  0.00    -0.035 C  
HETATM    4  C   UNL     1      -6.123   5.737  69.580  1.00  0.00    -0.028 C  
HETATM    5  C   UNL     1      -7.367   4.852  69.456  1.00  0.00    -0.056 C  
HETATM    6  C   UNL     1      -8.637   5.436  68.745  1.00  0.00    -0.098 C  
HETATM    7  C   UNL     1      -9.925   5.227  69.770  1.00  0.00    -0.306 C  
HETATM    8  C   UNL     1     -11.239   6.179  69.786  1.00  0.00    -0.423 C  
HETATM    9  N   UNL     1     -11.154   7.573  69.166  1.00  0.00     0.008 NA 
HETATM   10  H   UNL     1      -8.177   1.752  64.180  1.00  0.00     0.000 HD 
HETATM   11  C   UNL     1      -9.948   7.506  68.232  1.00  0.00    -0.173 C  
HETATM   12  C   UNL     1     -10.621   6.649  67.077  1.00  0.00    -0.404 C  
HETATM   13  C   UNL     1     -10.509   4.636  65.533  1.00  0.00    -0.220 A  
HETATM   14  C   UNL     1     -10.026   5.312  66.676  1.00  0.00    -0.227 A  
HETATM   15  O   UNL     1      -7.889   2.160  64.988  1.00  0.00    -0.074 OA 
HETATM   16  C   UNL     1      -8.950   4.776  67.390  1.00  0.00    -0.115 A  
HETATM   17  C   UNL     1      -8.227   3.716  66.803  1.00  0.00    -0.096 A  
HETATM   18  C   UNL     1      -8.651   3.115  65.611  1.00  0.00    -0.113 A  
HETATM   19  C   UNL     1      -9.820   3.533  65.010  1.00  0.00    -0.111 A  
ENDROOT
BRANCH   9  20
HETATM   20  C   UNL     1     -11.007   8.631  70.216  1.00  0.00    -0.236 C  
BRANCH  20  21
HETATM   21  C   UNL     1     -10.930  10.094  69.811  1.00  0.00    -0.325 C  
HETATM   22  C   UNL     1     -11.669  11.143  70.205  1.00  0.00    -0.439 C  
ENDBRANCH  20  21
ENDBRANCH   9  20
TORSDOF 2
ENDMDL
MODEL      104
REMARK 921   NORMALIZED FREE ENERGY PREDICTED BY IDOCK:   -3.39 KCAL/MOL
REMARK 922        TOTAL FREE ENERGY PREDICTED BY IDOCK:   -3.95 KCAL/MOL
REMARK 923 INTER-LIGAND FREE ENERGY PREDICTED BY IDOCK:   -3.82 KCAL/MOL
REMARK 924 INTRA-LIGAND FREE ENERGY PREDICTED BY IDOCK:   -0.13 KCAL/MOL
REMARK 927      BINDING AFFINITY PREDICTED BY RF-SCORE:    0.00 PKD
ROOT
HETATM    1  C   UNL     1      -8.948   6.135  68.757  1.00  0.00    -0.123 C  
HETATM    2  C   UNL     1      -9.092   4.590  68.510  1.00  0.00    -0.161 C  
HETATM    3  C   UNL     1      -9.121   4.182  67.065  1.00  0.00    -0.155 C  
HETATM    4  C   UNL     1      -9.776   5.197  66.151  1.00  0.00    -0.192 C  
HETATM    5  C   UNL     1     -10.628   6.300  66.785  1.00  0.00    -0.335 C  
HETATM    6  C   UNL     1     -10.177   6.900  68.162  1.00  0.00    -0.203 C  
HETATM    7  C   UNL     1     -11.471   6.810  69.196  1.00  0.00    -0.122 C  
HETATM    8  C   UNL     1     -11.340   6.699  70.810  1.00  0.00    -0.336 C  
HETATM    9  N   UNL     1     -10.021   6.224  71.418  1.00  0.00    -0.184 NA 
HETATM   10  H   UNL     1      -8.928  12.157  65.831  1.00  0.00     0.000 HD 
HETATM   11  C   UNL     1      -8.986   6.454  70.319  1.00  0.00    -0.154 C  
HETATM   12  C   UNL     1      -8.885   8.033  70.450  1.00  0.00    -0.141 C  
HETATM   13  C   UNL     1      -8.939  10.306  69.318  1.00  0.00    -0.190 A  
HETATM   14  C   UNL     1      -9.204   8.918  69.260  1.00  0.00    -0.145 A  
HETATM   15  O   UNL     1      -9.175  11.241  65.802  1.00  0.00    -0.212 OA 
HETATM   16  C   UNL     1      -9.692   8.360  68.076  1.00  0.00    -0.184 A  
HETATM   17  C   UNL     1      -9.667   9.152  66.908  1.00  0.00    -0.254 A  
HETATM   18  C   UNL     1      -9.303  10.503  66.951  1.00  0.00    -0.159 A  
HETATM   19  C   UNL     1      -8.997  11.094  68.160  1.00  0.00    -0.159 A  
ENDROOT
BRANCH   9  20
HETATM   20  C   UNL     1     -10.098   4.789  71.840  1.00  0.00    -0.198 C  
BRANCH  20  21
HETATM   21  C   UNL     1      -8.898   3.877  71.643  1.00  0.00    -0.142 C  
HETATM   22  C   UNL     1      -7.898   3.566  72.482  1.00  0.00    -0.068 C  
ENDBRANCH  20  21
ENDBRANCH   9  20
TORSDOF 2
ENDMDL
MODEL      105
REMARK 921   NORMALIZED FREE ENERGY PREDICTED BY IDOCK:   -3.37 KCAL/MOL
REMARK 922        TOTAL FREE ENERGY PREDICTED BY IDOCK:   -3.93 KCAL/MOL
REMARK 923 INTER-LIGAND FREE ENERGY PREDICTED BY IDOCK:   -3.60 KCAL/MOL
REMARK 924 INTRA-LIGAND FREE ENERGY PREDICTED BY IDOCK:   -0.32 KCAL/MOL
REMARK 927      BINDING AFFINITY PREDICTED BY RF-SCORE:    0.00 PKD
ROOT
HETATM    1  C   UNL     1      -7.880   7.716  70.771  1.00  0.00    -0.096 C  
HETATM    2  C   UNL     1      -7.169   9.107  70.606  1.00  0.00    -0.106 C  
HETATM    3  C   UNL     1      -6.006   9.336  71.529  1.00  0.00    -0.070 C  
HETATM    4  C   UNL     1      -6.157   8.677  72.884  1.00  0.00    -0.083 C  
HETATM    5  C   UNL     1      -7.546   8.188  73.303  1.00  0.00    -0.196 C  
HETATM    6  C   UNL     1      -8.491   7.582  72.207  1.00  0.00    -0.138 C  
HETATM    7  C   UNL     1      -9.941   8.385  72.296  1.00  0.00    -0.383 C  
HETATM    8  C   UNL     1     -10.953   8.576  71.042  1.00  0.00    -0.249 C  
HETATM    9  N   UNL     1     -10.415   8.415  69.621  1.00  0.00    -0.220 NA 
HETATM   10  H   UNL     1      -8.237   2.174  74.512  1.00  0.00     0.000 HD 
HETATM   11  C   UNL     1      -9.129   7.609  69.786  1.00  0.00    -0.147 C  
HETATM   12  C   UNL     1      -9.798   6.197  70.071  1.00  0.00    -0.207 C  
HETATM   13  C   UNL     1      -9.949   4.133  71.542  1.00  0.00    -0.230 A  
HETATM   14  C   UNL     1      -9.505   5.463  71.366  1.00  0.00    -0.188 A  
HETATM   15  O   UNL     1      -7.992   3.088  74.436  1.00  0.00    -0.066 OA 
HETATM   16  C   UNL     1      -8.734   6.069  72.362  1.00  0.00    -0.126 A  
HETATM   17  C   UNL     1      -8.217   5.253  73.391  1.00  0.00    -0.111 A  
HETATM   18  C   UNL     1      -8.578   3.905  73.502  1.00  0.00    -0.091 A  
HETATM   19  C   UNL     1      -9.486   3.361  72.617  1.00  0.00    -0.165 A  
ENDROOT
BRANCH   9  20
HETATM   20  C   UNL     1     -10.179   9.743  68.971  1.00  0.00    -0.203 C  
BRANCH  20  21
HETATM   21  C   UNL     1      -9.670   9.806  67.540  1.00  0.00    -0.192 C  
HETATM   22  C   UNL     1     -10.141   9.225  66.426  1.00  0.00    -0.337 C  
ENDBRANCH  20  21
ENDBRANCH   9  20
TORSDOF 2
ENDMDL
MODEL      106
REMARK 921   NORMALIZED FREE ENERGY PREDICTED BY IDOCK:   -3.28 KCAL/MOL
REMARK 922        TOTAL FREE ENERGY PREDICTED BY IDOCK:   -3.83 KCAL/MOL
REMARK 923 INTER-LIGAND FREE ENERGY PREDICTED BY IDOCK:   -3.62 KCAL/MOL
REMARK 924 INTRA-LIGAND FREE ENERGY PREDICTED BY IDOCK:   -0.22 KCAL/MOL
REMARK 927      BINDING AFFINITY PREDICTED BY RF-SCORE:    0.00 PKD
ROOT
HETATM    1  C   UNL     1      -8.538   8.779  68.466  1.00  0.00    -0.134 C  
HETATM    2  C   UNL     1      -8.291  10.142  67.726  1.00  0.00    -0.114 C  
HETATM    3  C   UNL     1      -9.033  11.315  68.298  1.00  0.00    -0.172 C  
HETATM    4  C   UNL     1     -10.385  10.963  68.883  1.00  0.00    -0.222 C  
HETATM    5  C   UNL     1     -10.998   9.605  68.526  1.00  0.00    -0.153 C  
HETATM    6  C   UNL     1     -10.046   8.369  68.368  1.00  0.00    -0.224 C  
HETATM    7  C   UNL     1     -10.363   7.677  66.894  1.00  0.00    -0.388 C  
HETATM    8  C   UNL     1      -9.277   6.832  66.033  1.00  0.00    -0.030 C  
HETATM    9  N   UNL     1      -7.789   7.013  66.331  1.00  0.00    -0.103 NA 
HETATM   10  H   UNL     1     -12.199   5.688  73.143  1.00  0.00     0.000 HD 
HETATM   11  C   UNL     1      -7.747   7.599  67.740  1.00  0.00    -0.122 C  
HETATM   12  C   UNL     1      -8.106   6.272  68.534  1.00  0.00    -0.109 C  
HETATM   13  C   UNL     1      -9.550   5.115  70.273  1.00  0.00    -0.249 A  
HETATM   14  C   UNL     1      -9.331   6.226  69.427  1.00  0.00    -0.145 A  
HETATM   15  O   UNL     1     -12.102   6.408  72.532  1.00  0.00    -0.175 OA 
HETATM   16  C   UNL     1     -10.210   7.311  69.475  1.00  0.00    -0.200 A  
HETATM   17  C   UNL     1     -11.138   7.368  70.538  1.00  0.00    -0.280 A  
HETATM   18  C   UNL     1     -11.280   6.306  71.439  1.00  0.00    -0.293 A  
HETATM   19  C   UNL     1     -10.531   5.159  71.273  1.00  0.00    -0.245 A  
ENDROOT
BRANCH   9  20
HETATM   20  C   UNL     1      -7.133   7.902  65.321  1.00  0.00    -0.060 C  
BRANCH  20  21
HETATM   21  C   UNL     1      -7.295   7.612  63.838  1.00  0.00    -0.092 C  
HETATM   22  C   UNL     1      -7.417   8.452  62.798  1.00  0.00    -0.104 C  
ENDBRANCH  20  21
ENDBRANCH   9  20
TORSDOF 2
ENDMDL
MODEL      107
REMARK 921   NORMALIZED FREE ENERGY PREDICTED BY IDOCK:   -3.28 KCAL/MOL
REMARK 922        TOTAL FREE ENERGY PREDICTED BY IDOCK:   -3.83 KCAL/MOL
REMARK 923 INTER-LIGAND FREE ENERGY PREDICTED BY IDOCK:   -3.51 KCAL/MOL
REMARK 924 INTRA-LIGAND FREE ENERGY PREDICTED BY IDOCK:   -0.32 KCAL/MOL
REMARK 927      BINDING AFFINITY PREDICTED BY RF-SCORE:    0.00 PKD
ROOT
HETATM    1  C   UNL     1      -7.947   9.811  67.399  1.00  0.00    -0.102 C  
HETATM    2  C   UNL     1      -7.764   9.916  68.956  1.00  0.00    -0.089 C  
HETATM    3  C   UNL     1      -6.929   8.828  69.568  1.00  0.00    -0.055 C  
HETATM    4  C   UNL     1      -7.055   7.488  68.872  1.00  0.00    -0.080 C  
HETATM    5  C   UNL     1      -8.226   7.280  67.907  1.00  0.00    -0.119 C  
HETATM    6  C   UNL     1      -8.697   8.488  67.025  1.00  0.00    -0.132 C  
HETATM    7  C   UNL     1     -10.331   8.666  67.250  1.00  0.00    -0.366 C  
HETATM    8  C   UNL     1     -11.123  10.074  67.090  1.00  0.00     0.005 C  
HETATM    9  N   UNL     1     -10.337  11.382  67.162  1.00  0.00    -0.206 NA 
HETATM   10  H   UNL     1      -6.909   5.955  62.024  1.00  0.00     0.000 HD 
HETATM   11  C   UNL     1      -8.894  10.980  66.870  1.00  0.00    -0.149 C  
HETATM   12  C   UNL     1      -9.050  10.749  65.306  1.00  0.00    -0.217 C  
HETATM   13  C   UNL     1      -8.693   9.239  63.297  1.00  0.00    -0.190 A  
HETATM   14  C   UNL     1      -8.732   9.395  64.701  1.00  0.00    -0.229 A  
HETATM   15  O   UNL     1      -6.998   6.027  62.967  1.00  0.00    -0.042 OA 
HETATM   16  C   UNL     1      -8.404   8.313  65.523  1.00  0.00    -0.163 A  
HETATM   17  C   UNL     1      -7.807   7.182  64.927  1.00  0.00    -0.126 A  
HETATM   18  C   UNL     1      -7.675   7.075  63.537  1.00  0.00    -0.114 A  
HETATM   19  C   UNL     1      -8.169   8.072  62.721  1.00  0.00    -0.112 A  
ENDROOT
BRANCH   9  20
HETATM   20  C   UNL     1     -10.488  12.039  68.499  1.00  0.00    -0.229 C  
BRANCH  20  21
HETATM   21  C   UNL     1     -11.468  11.473  69.514  1.00  0.00    -0.378 C  
HETATM   22  C   UNL     1     -11.330  10.455  70.378  1.00  0.00    -0.417 C  
ENDBRANCH  20  21
ENDBRANCH   9  20
TORSDOF 2
ENDMDL
MODEL      108
REMARK 921   NORMALIZED FREE ENERGY PREDICTED BY IDOCK:   -3.06 KCAL/MOL
REMARK 922        TOTAL FREE ENERGY PREDICTED BY IDOCK:   -3.58 KCAL/MOL
REMARK 923 INTER-LIGAND FREE ENERGY PREDICTED BY IDOCK:   -3.39 KCAL/MOL
REMARK 924 INTRA-LIGAND FREE ENERGY PREDICTED BY IDOCK:   -0.19 KCAL/MOL
REMARK 927      BINDING AFFINITY PREDICTED BY RF-SCORE:    0.00 PKD
ROOT
HETATM    1  C   UNL     1      -9.159   8.401  69.649  1.00  0.00    -0.153 C  
HETATM    2  C   UNL     1     -10.502   9.127  70.021  1.00  0.00    -0.244 C  
HETATM    3  C   UNL     1     -11.500   8.274  70.749  1.00  0.00    -0.268 C  
HETATM    4  C   UNL     1     -11.472   6.813  70.347  1.00  0.00    -0.419 C  
HETATM    5  C   UNL     1     -10.743   6.431  69.056  1.00  0.00    -0.339 C  
HETATM    6  C   UNL     1      -9.436   7.208  68.673  1.00  0.00    -0.140 C  
HETATM    7  C   UNL     1      -9.619   7.762  67.119  1.00  0.00    -0.220 C  
HETATM    8  C   UNL     1      -8.884   9.084  66.532  1.00  0.00    -0.135 C  
HETATM    9  N   UNL     1      -8.342  10.128  67.507  1.00  0.00    -0.118 NA 
HETATM   10  H   UNL     1      -6.005   2.497  69.486  1.00  0.00     0.000 HD 
HETATM   11  C   UNL     1      -8.204   9.382  68.832  1.00  0.00    -0.111 C  
HETATM   12  C   UNL     1      -6.910   8.537  68.467  1.00  0.00    -0.064 C  
HETATM   13  C   UNL     1      -5.762   6.275  68.365  1.00  0.00    -0.012 A  
HETATM   14  C   UNL     1      -6.953   7.022  68.509  1.00  0.00    -0.075 A  
HETATM   15  O   UNL     1      -6.822   2.981  69.516  1.00  0.00    -0.033 OA 
HETATM   16  C   UNL     1      -8.156   6.357  68.764  1.00  0.00    -0.114 A  
HETATM   17  C   UNL     1      -8.098   4.991  69.115  1.00  0.00    -0.083 A  
HETATM   18  C   UNL     1      -6.895   4.277  69.071  1.00  0.00    -0.047 A  
HETATM   19  C   UNL     1      -5.742   4.900  68.641  1.00  0.00    -0.016 A  
ENDROOT
BRANCH   9  20
HETATM   20  C   UNL     1      -9.256  11.309  67.608  1.00  0.00    -0.156 C  
BRANCH  20  21
HETATM   21  C   UNL     1     -10.759  11.116  67.487  1.00  0.00    -0.280 C  
HETATM   22  C   UNL     1     -11.760  12.000  67.623  1.00  0.00    -0.365 C  
ENDBRANCH  20  21
ENDBRANCH   9  20
TORSDOF 2
ENDMDL
MODEL      109
REMARK 921   NORMALIZED FREE ENERGY PREDICTED BY IDOCK:   -2.85 KCAL/MOL
REMARK 922        TOTAL FREE ENERGY PREDICTED BY IDOCK:   -3.34 KCAL/MOL
REMARK 923 INTER-LIGAND FREE ENERGY PREDICTED BY IDOCK:   -2.82 KCAL/MOL
REMARK 924 INTRA-LIGAND FREE ENERGY PREDICTED BY IDOCK:   -0.52 KCAL/MOL
REMARK 927      BINDING AFFINITY PREDICTED BY RF-SCORE:    0.00 PKD
ROOT
HETATM    1  C   UNL     1      -9.756   6.294  70.914  1.00  0.00    -0.197 C  
HETATM    2  C   UNL     1     -10.646   6.096  72.194  1.00  0.00    -0.248 C  
HETATM    3  C   UNL     1     -11.039   7.366  72.892  1.00  0.00    -0.397 C  
HETATM    4  C   UNL     1      -9.996   8.462  72.811  1.00  0.00    -0.285 C  
HETATM    5  C   UNL     1      -8.577   8.082  72.382  1.00  0.00    -0.220 C  
HETATM    6  C   UNL     1      -8.394   6.967  71.294  1.00  0.00    -0.119 C  
HETATM    7  C   UNL     1      -7.342   5.838  71.906  1.00  0.00    -0.093 C  
HETATM    8  C   UNL     1      -7.336   4.273  71.475  1.00  0.00    -0.055 C  
HETATM    9  N   UNL     1      -8.583   3.677  70.824  1.00  0.00    -0.069 NA 
HETATM   10  H   UNL     1      -6.297  10.746  67.301  1.00  0.00     0.000 HD 
HETATM   11  C   UNL     1      -9.353   4.882  70.292  1.00  0.00    -0.154 C  
HETATM   12  C   UNL     1      -8.422   5.197  69.045  1.00  0.00    -0.090 C  
HETATM   13  C   UNL     1      -7.072   6.898  67.729  1.00  0.00    -0.085 A  
HETATM   14  C   UNL     1      -7.749   6.551  68.920  1.00  0.00    -0.109 A  
HETATM   15  O   UNL     1      -6.688  10.502  68.131  1.00  0.00    -0.063 OA 
HETATM   16  C   UNL     1      -7.856   7.491  69.950  1.00  0.00    -0.107 A  
HETATM   17  C   UNL     1      -7.505   8.828  69.668  1.00  0.00    -0.071 A  
HETATM   18  C   UNL     1      -6.928   9.188  68.444  1.00  0.00    -0.068 A  
HETATM   19  C   UNL     1      -6.658   8.218  67.500  1.00  0.00    -0.058 A  
ENDROOT
BRANCH   9  20
HETATM   20  C   UNL     1      -9.381   2.873  71.803  1.00  0.00    -0.123 C  
BRANCH  20  21
HETATM   21  C   UNL     1      -8.948   2.806  73.258  1.00  0.00    -0.088 C  
HETATM   22  C   UNL     1      -9.583   3.204  74.372  1.00  0.00    -0.125 C  
ENDBRANCH  20  21
ENDBRANCH   9  20
TORSDOF 2
ENDMDL
MODEL      110
REMARK 921   NORMALIZED FREE ENERGY PREDICTED BY IDOCK:   -2.84 KCAL/MOL
REMARK 922        TOTAL FREE ENERGY PREDICTED BY IDOCK:   -3.33 KCAL/MOL
REMARK 923 INTER-LIGAND FREE ENERGY PREDICTED BY IDOCK:   -2.84 KCAL/MOL
REMARK 924 INTRA-LIGAND FREE ENERGY PREDICTED BY IDOCK:   -0.49 KCAL/MOL
REMARK 927      BINDING AFFINITY PREDICTED BY RF-SCORE:    0.00 PKD
ROOT
HETATM    1  C   UNL     1      -9.568   7.645  68.814  1.00  0.00    -0.153 C  
HETATM    2  C   UNL     1     -10.128   6.497  69.729  1.00  0.00    -0.207 C  
HETATM    3  C   UNL     1     -10.125   6.804  71.199  1.00  0.00    -0.198 C  
HETATM    4  C   UNL     1      -8.974   7.684  71.643  1.00  0.00    -0.148 C  
HETATM    5  C   UNL     1      -7.787   7.859  70.691  1.00  0.00    -0.095 C  
HETATM    6  C   UNL     1      -8.064   7.926  69.148  1.00  0.00    -0.124 C  
HETATM    7  C   UNL     1      -7.088   6.802  68.414  1.00  0.00    -0.083 C  
HETATM    8  C   UNL     1      -7.442   6.069  67.010  1.00  0.00    -0.084 C  
HETATM    9  N   UNL     1      -8.891   6.048  66.527  1.00  0.00    -0.126 NA 
HETATM   10  H   UNL     1      -6.457  13.574  68.773  1.00  0.00     0.000 HD 
HETATM   11  C   UNL     1      -9.566   7.187  67.286  1.00  0.00    -0.143 C  
HETATM   12  C   UNL     1      -8.939   8.392  66.464  1.00  0.00    -0.190 C  
HETATM   13  C   UNL     1      -7.708  10.613  66.481  1.00  0.00    -0.137 A  
HETATM   14  C   UNL     1      -8.111   9.448  67.172  1.00  0.00    -0.102 A  
HETATM   15  O   UNL     1      -6.662  12.767  69.230  1.00  0.00    -0.107 OA 
HETATM   16  C   UNL     1      -7.804   9.311  68.529  1.00  0.00    -0.090 A  
HETATM   17  C   UNL     1      -7.325  10.445  69.218  1.00  0.00    -0.106 A  
HETATM   18  C   UNL     1      -7.023  11.635  68.544  1.00  0.00    -0.085 A  
HETATM   19  C   UNL     1      -7.158  11.701  67.173  1.00  0.00    -0.143 A  
ENDROOT
BRANCH   9  20
HETATM   20  C   UNL     1      -9.537   4.723  66.790  1.00  0.00    -0.173 C  
BRANCH  20  21
HETATM   21  C   UNL     1      -8.830   3.696  67.660  1.00  0.00    -0.143 C  
HETATM   22  C   UNL     1      -9.121   3.260  68.896  1.00  0.00    -0.207 C  
ENDBRANCH  20  21
ENDBRANCH   9  20
TORSDOF 2
ENDMDL
MODEL      111
REMARK 921   NORMALIZED FREE ENERGY PREDICTED BY IDOCK:   -2.78 KCAL/MOL
REMARK 922        TOTAL FREE ENERGY PREDICTED BY IDOCK:   -3.27 KCAL/MOL
REMARK 923 INTER-LIGAND FREE ENERGY PREDICTED BY IDOCK:   -2.98 KCAL/MOL
REMARK 924 INTRA-LIGAND FREE ENERGY PREDICTED BY IDOCK:   -0.29 KCAL/MOL
REMARK 927      BINDING AFFINITY PREDICTED BY RF-SCORE:    0.00 PKD
ROOT
HETATM    1  C   UNL     1      -9.722  17.822  66.963  1.00  0.00    -0.290 C  
HETATM    2  C   UNL     1     -11.132  17.888  67.653  1.00  0.00     0.065 C  
HETATM    3  C   UNL     1     -11.629  19.275  67.943  1.00  0.00     1.260 C  
HETATM    4  C   UNL     1     -10.533  20.264  68.281  1.00  0.00    -0.267 C  
HETATM    5  C   UNL     1      -9.149  19.717  68.643  1.00  0.00    -0.341 C  
HETATM    6  C   UNL     1      -8.627  18.439  67.898  1.00  0.00    -0.285 C  
HETATM    7  C   UNL     1      -8.164  17.340  69.051  1.00  0.00    -0.096 C  
HETATM    8  C   UNL     1      -8.172  15.732  68.830  1.00  0.00    -0.210 C  
HETATM    9  N   UNL     1      -9.027  15.140  67.710  1.00  0.00    -0.176 NA 
HETATM   10  H   UNL     1      -4.375  21.402  65.111  1.00  0.00     0.000 HD 
HETATM   11  C   UNL     1      -9.273  16.306  66.757  1.00  0.00    -0.230 C  
HETATM   12  C   UNL     1      -7.826  16.358  66.105  1.00  0.00    -0.057 C  
HETATM   13  C   UNL     1      -5.789  17.733  65.466  1.00  0.00    -0.049 A  
HETATM   14  C   UNL     1      -6.994  17.622  66.198  1.00  0.00    -0.338 A  
HETATM   15  O   UNL     1      -5.145  21.317  65.661  1.00  0.00    -0.191 OA 
HETATM   16  C   UNL     1      -7.446  18.712  66.948  1.00  0.00    -0.230 A  
HETATM   17  C   UNL     1      -6.820  19.961  66.749  1.00  0.00    -0.232 A  
HETATM   18  C   UNL     1      -5.685  20.087  65.938  1.00  0.00    -0.171 A  
HETATM   19  C   UNL     1      -5.137  18.968  65.346  1.00  0.00    -0.188 A  
ENDROOT
BRANCH   9  20
HETATM   20  C   UNL     1     -10.299  14.557  68.242  1.00  0.00    -0.236 C  
BRANCH  20  21
HETATM   21  C   UNL     1     -11.305  13.937  67.287  1.00  0.00    -0.344 C  
HETATM   22  C   UNL     1     -11.391  12.685  66.810  1.00  0.00    -0.373 C  
ENDBRANCH  20  21
ENDBRANCH   9  20
TORSDOF 2
ENDMDL
MODEL      112
REMARK 921   NORMALIZED FREE ENERGY PREDICTED BY IDOCK:   -2.69 KCAL/MOL
REMARK 922        TOTAL FREE ENERGY PREDICTED BY IDOCK:   -3.16 KCAL/MOL
REMARK 923 INTER-LIGAND FREE ENERGY PREDICTED BY IDOCK:   -3.42 KCAL/MOL
REMARK 924 INTRA-LIGAND FREE ENERGY PREDICTED BY IDOCK:    0.26 KCAL/MOL
REMARK 927      BINDING AFFINITY PREDICTED BY RF-SCORE:    0.00 PKD
ROOT
HETATM    1  C   UNL     1      -8.043   7.243  71.095  1.00  0.00    -0.102 C  
HETATM    2  C   UNL     1      -7.980   8.413  72.141  1.00  0.00    -0.181 C  
HETATM    3  C   UNL     1      -7.193   8.108  73.384  1.00  0.00    -0.170 C  
HETATM    4  C   UNL     1      -7.264   6.658  73.817  1.00  0.00    -0.083 C  
HETATM    5  C   UNL     1      -8.358   5.773  73.212  1.00  0.00    -0.116 C  
HETATM    6  C   UNL     1      -8.761   5.996  71.713  1.00  0.00    -0.138 C  
HETATM    7  C   UNL     1     -10.408   6.191  71.661  1.00  0.00    -0.259 C  
HETATM    8  C   UNL     1     -11.187   7.043  70.520  1.00  0.00    -0.295 C  
HETATM    9  N   UNL     1     -10.410   8.071  69.699  1.00  0.00    -0.216 NA 
HETATM   10  H   UNL     1      -6.591   0.796  70.016  1.00  0.00     0.000 HD 
HETATM   11  C   UNL     1      -8.948   7.658  69.850  1.00  0.00    -0.144 C  
HETATM   12  C   UNL     1      -8.984   6.395  68.888  1.00  0.00    -0.123 C  
HETATM   13  C   UNL     1      -8.472   3.934  68.531  1.00  0.00    -0.107 A  
HETATM   14  C   UNL     1      -8.619   5.022  69.420  1.00  0.00    -0.097 A  
HETATM   15  O   UNL     1      -6.753   1.500  70.632  1.00  0.00    -0.024 OA 
HETATM   16  C   UNL     1      -8.354   4.840  70.780  1.00  0.00    -0.096 A  
HETATM   17  C   UNL     1      -7.711   3.648  71.178  1.00  0.00    -0.051 A  
HETATM   18  C   UNL     1      -7.473   2.610  70.269  1.00  0.00    -0.043 A  
HETATM   19  C   UNL     1      -7.904   2.727  68.964  1.00  0.00    -0.052 A  
ENDROOT
BRANCH   9  20
HETATM   20  C   UNL     1     -10.664   9.464  70.185  1.00  0.00    -0.243 C  
BRANCH  20  21
HETATM   21  C   UNL     1     -11.636   9.702  71.330  1.00  0.00    -0.466 C  
HETATM   22  C   UNL     1     -12.865   9.205  71.541  1.00  0.00    -0.412 C  
ENDBRANCH  20  21
ENDBRANCH   9  20
TORSDOF 2
ENDMDL
MODEL      113
REMARK 921   NORMALIZED FREE ENERGY PREDICTED BY IDOCK:   -2.67 KCAL/MOL
REMARK 922        TOTAL FREE ENERGY PREDICTED BY IDOCK:   -3.15 KCAL/MOL
REMARK 923 INTER-LIGAND FREE ENERGY PREDICTED BY IDOCK:   -2.95 KCAL/MOL
REMARK 924 INTRA-LIGAND FREE ENERGY PREDICTED BY IDOCK:   -0.19 KCAL/MOL
REMARK 927      BINDING AFFINITY PREDICTED BY RF-SCORE:    0.00 PKD
ROOT
HETATM    1  C   UNL     1      -9.566   9.406  67.021  1.00  0.00    -0.209 C  
HETATM    2  C   UNL     1      -9.039   9.635  65.559  1.00  0.00    -0.252 C  
HETATM    3  C   UNL     1      -8.928   8.389  64.726  1.00  0.00     0.201 C  
HETATM    4  C   UNL     1      -8.564   7.150  65.517  1.00  0.00    -0.093 C  
HETATM    5  C   UNL     1      -8.009   7.330  66.933  1.00  0.00    -0.112 C  
HETATM    6  C   UNL     1      -8.578   8.491  67.821  1.00  0.00    -0.134 C  
HETATM    7  C   UNL     1      -7.289   9.376  68.375  1.00  0.00    -0.077 C  
HETATM    8  C   UNL     1      -7.365  10.950  68.762  1.00  0.00    -0.104 C  
HETATM    9  N   UNL     1      -8.513  11.796  68.212  1.00  0.00    -0.157 NA 
HETATM   10  H   UNL     1     -11.146   4.781  71.598  1.00  0.00     0.000 HD 
HETATM   11  C   UNL     1      -9.587  10.782  67.827  1.00  0.00    -0.162 C  
HETATM   12  C   UNL     1     -10.082  10.429  69.293  1.00  0.00    -0.248 C  
HETATM   13  C   UNL     1     -10.619   8.652  71.026  1.00  0.00    -0.278 A  
HETATM   14  C   UNL     1     -10.014   9.000  69.797  1.00  0.00    -0.204 A  
HETATM   15  O   UNL     1     -10.676   5.013  70.806  1.00  0.00    -0.138 OA 
HETATM   16  C   UNL     1      -9.417   8.005  69.017  1.00  0.00    -0.151 A  
HETATM   17  C   UNL     1      -9.657   6.657  69.362  1.00  0.00    -0.148 A  
HETATM   18  C   UNL     1     -10.350   6.316  70.530  1.00  0.00    -0.204 A  
HETATM   19  C   UNL     1     -10.778   7.307  71.389  1.00  0.00    -0.247 A  
ENDROOT
BRANCH   9  20
HETATM   20  C   UNL     1      -8.070  12.630  67.050  1.00  0.00    -0.085 C  
BRANCH  20  21
HETATM   21  C   UNL     1      -7.466  14.004  67.292  1.00  0.00    -0.054 C  
HETATM   22  C   UNL     1      -6.210  14.356  67.606  1.00  0.00    -0.098 C  
ENDBRANCH  20  21
ENDBRANCH   9  20
TORSDOF 2
ENDMDL
MODEL      114
REMARK 921   NORMALIZED FREE ENERGY PREDICTED BY IDOCK:   -2.53 KCAL/MOL
REMARK 922        TOTAL FREE ENERGY PREDICTED BY IDOCK:   -2.99 KCAL/MOL
REMARK 923 INTER-LIGAND FREE ENERGY PREDICTED BY IDOCK:   -2.84 KCAL/MOL
REMARK 924 INTRA-LIGAND FREE ENERGY PREDICTED BY IDOCK:   -0.16 KCAL/MOL
REMARK 927      BINDING AFFINITY PREDICTED BY RF-SCORE:    0.00 PKD
ROOT
HETATM    1  C   UNL     1      -8.022   9.610  66.527  1.00  0.00    -0.112 C  
HETATM    2  C   UNL     1      -9.005  10.632  65.852  1.00  0.00    -0.192 C  
HETATM    3  C   UNL     1     -10.273  10.888  66.616  1.00  0.00    -0.282 C  
HETATM    4  C   UNL     1     -10.781   9.687  67.386  1.00  0.00    -0.308 C  
HETATM    5  C   UNL     1     -10.210   8.309  67.039  1.00  0.00    -0.380 C  
HETATM    6  C   UNL     1      -8.695   8.201  66.645  1.00  0.00    -0.152 C  
HETATM    7  C   UNL     1      -8.611   7.395  65.197  1.00  0.00     0.034 C  
HETATM    8  C   UNL     1      -7.416   7.590  64.117  1.00  0.00    -0.099 C  
HETATM    9  N   UNL     1      -6.552   8.849  64.182  1.00  0.00    -0.082 NA 
HETATM   10  H   UNL     1      -7.307   5.193  71.508  1.00  0.00     0.000 HD 
HETATM   11  C   UNL     1      -6.744   9.373  65.603  1.00  0.00    -0.074 C  
HETATM   12  C   UNL     1      -5.850   8.295  66.351  1.00  0.00    -0.041 C  
HETATM   13  C   UNL     1      -5.631   6.586  68.216  1.00  0.00    -0.012 A  
HETATM   14  C   UNL     1      -6.460   7.414  67.425  1.00  0.00    -0.060 A  
HETATM   15  O   UNL     1      -7.882   5.691  70.941  1.00  0.00    -0.099 OA 
HETATM   16  C   UNL     1      -7.831   7.469  67.689  1.00  0.00    -0.113 A  
HETATM   17  C   UNL     1      -8.300   6.892  68.888  1.00  0.00    -0.121 A  
HETATM   18  C   UNL     1      -7.451   6.158  69.725  1.00  0.00    -0.081 A  
HETATM   19  C   UNL     1      -6.136   5.955  69.362  1.00  0.00    -0.028 A  
ENDROOT
BRANCH   9  20
HETATM   20  C   UNL     1      -6.959   9.847  63.143  1.00  0.00    -0.124 C  
BRANCH  20  21
HETATM   21  C   UNL     1      -8.415   9.946  62.718  1.00  0.00    -0.175 C  
HETATM   22  C   UNL     1      -9.173  11.024  62.462  1.00  0.00    -0.337 C  
ENDBRANCH  20  21
ENDBRANCH   9  20
TORSDOF 2
ENDMDL
MODEL      115
REMARK 921   NORMALIZED FREE ENERGY PREDICTED BY IDOCK:   -2.49 KCAL/MOL
REMARK 922        TOTAL FREE ENERGY PREDICTED BY IDOCK:   -2.95 KCAL/MOL
REMARK 923 INTER-LIGAND FREE ENERGY PREDICTED BY IDOCK:   -2.64 KCAL/MOL
REMARK 924 INTRA-LIGAND FREE ENERGY PREDICTED BY IDOCK:   -0.31 KCAL/MOL
REMARK 927      BINDING AFFINITY PREDICTED BY RF-SCORE:    0.00 PKD
ROOT
HETATM    1  C   UNL     1      -9.471   4.968  68.446  1.00  0.00    -0.178 C  
HETATM    2  C   UNL     1      -9.241   4.519  66.958  1.00  0.00    -0.145 C  
HETATM    3  C   UNL     1      -9.654   3.107  66.654  1.00  0.00     0.006 C  
HETATM    4  C   UNL     1      -9.466   2.148  67.811  1.00  0.00    -0.140 C  
HETATM    5  C   UNL     1      -8.583   2.588  68.982  1.00  0.00    -0.115 C  
HETATM    6  C   UNL     1      -8.610   4.094  69.419  1.00  0.00    -0.109 C  
HETATM    7  C   UNL     1      -7.042   4.636  69.449  1.00  0.00    -0.051 C  
HETATM    8  C   UNL     1      -6.609   6.182  69.215  1.00  0.00    -0.047 C  
HETATM    9  N   UNL     1      -7.582   7.128  68.514  1.00  0.00    -0.112 NA 
HETATM   10  H   UNL     1     -11.165   2.889  74.580  1.00  0.00     0.000 HD 
HETATM   11  C   UNL     1      -8.946   6.458  68.664  1.00  0.00    -0.125 C  
HETATM   12  C   UNL     1      -9.178   6.788  70.200  1.00  0.00    -0.155 C  
HETATM   13  C   UNL     1      -9.769   5.957  72.525  1.00  0.00    -0.172 A  
HETATM   14  C   UNL     1      -9.382   5.664  71.198  1.00  0.00    -0.180 A  
HETATM   15  O   UNL     1     -10.839   2.680  73.713  1.00  0.00    -0.169 OA 
HETATM   16  C   UNL     1      -9.260   4.331  70.795  1.00  0.00    -0.205 A  
HETATM   17  C   UNL     1      -9.767   3.329  71.650  1.00  0.00    -0.234 A  
HETATM   18  C   UNL     1     -10.248   3.637  72.929  1.00  0.00    -0.163 A  
HETATM   19  C   UNL     1     -10.195   4.937  73.388  1.00  0.00    -0.212 A  
ENDROOT
BRANCH   9  20
HETATM   20  C   UNL     1      -7.204   7.342  67.082  1.00  0.00    -0.092 C  
BRANCH  20  21
HETATM   21  C   UNL     1      -5.745   7.259  66.664  1.00  0.00    -0.024 C  
HETATM   22  C   UNL     1      -5.160   6.538  65.694  1.00  0.00    -0.017 C  
ENDBRANCH  20  21
ENDBRANCH   9  20
TORSDOF 2
ENDMDL
MODEL      116
REMARK 921   NORMALIZED FREE ENERGY PREDICTED BY IDOCK:   -2.30 KCAL/MOL
REMARK 922        TOTAL FREE ENERGY PREDICTED BY IDOCK:   -2.73 KCAL/MOL
REMARK 923 INTER-LIGAND FREE ENERGY PREDICTED BY IDOCK:   -2.59 KCAL/MOL
REMARK 924 INTRA-LIGAND FREE ENERGY PREDICTED BY IDOCK:   -0.14 KCAL/MOL
REMARK 927      BINDING AFFINITY PREDICTED BY RF-SCORE:    0.00 PKD
ROOT
HETATM    1  C   UNL     1      -7.613   5.427  66.909  1.00  0.00    -0.089 C  
HETATM    2  C   UNL     1      -6.855   6.079  65.698  1.00  0.00    -0.056 C  
HETATM    3  C   UNL     1      -6.285   7.442  65.970  1.00  0.00    -0.041 C  
HETATM    4  C   UNL     1      -7.109   8.274  66.931  1.00  0.00    -0.078 C  
HETATM    5  C   UNL     1      -8.544   7.830  67.227  1.00  0.00    -0.128 C  
HETATM    6  C   UNL     1      -8.855   6.295  67.307  1.00  0.00    -0.107 C  
HETATM    7  C   UNL     1     -10.127   5.987  66.286  1.00  0.00    -0.067 C  
HETATM    8  C   UNL     1     -10.385   4.559  65.559  1.00  0.00    -0.229 C  
HETATM    9  N   UNL     1      -9.226   3.572  65.428  1.00  0.00    -0.149 NA 
HETATM   10  H   UNL     1      -9.993   6.491  73.076  1.00  0.00     0.000 HD 
HETATM   11  C   UNL     1      -8.222   4.014  66.489  1.00  0.00    -0.101 C  
HETATM   12  C   UNL     1      -9.003   3.473  67.761  1.00  0.00    -0.171 C  
HETATM   13  C   UNL     1      -9.944   3.926  70.076  1.00  0.00     0.006 A  
HETATM   14  C   UNL     1      -9.414   4.428  68.865  1.00  0.00    -0.232 A  
HETATM   15  O   UNL     1      -9.704   6.847  72.245  1.00  0.00    -0.149 OA 
HETATM   16  C   UNL     1      -9.206   5.803  68.723  1.00  0.00    -0.128 A  
HETATM   17  C   UNL     1      -9.296   6.611  69.877  1.00  0.00    -0.153 A  
HETATM   18  C   UNL     1      -9.722   6.087  71.103  1.00  0.00    -0.177 A  
HETATM   19  C   UNL     1     -10.101   4.763  71.190  1.00  0.00    -0.261 A  
ENDROOT
BRANCH   9  20
HETATM   20  C   UNL     1      -8.646   3.588  64.048  1.00  0.00    -0.090 C  
BRANCH  20  21
HETATM   21  C   UNL     1      -8.563   4.895  63.277  1.00  0.00    -0.122 C  
HETATM   22  C   UNL     1      -7.695   5.291  62.332  1.00  0.00    -0.065 C  
ENDBRANCH  20  21
ENDBRANCH   9  20
TORSDOF 2
ENDMDL
MODEL      117
REMARK 921   NORMALIZED FREE ENERGY PREDICTED BY IDOCK:   -2.28 KCAL/MOL
REMARK 922        TOTAL FREE ENERGY PREDICTED BY IDOCK:   -2.71 KCAL/MOL
REMARK 923 INTER-LIGAND FREE ENERGY PREDICTED BY IDOCK:   -2.44 KCAL/MOL
REMARK 924 INTRA-LIGAND FREE ENERGY PREDICTED BY IDOCK:   -0.27 KCAL/MOL
REMARK 927      BINDING AFFINITY PREDICTED BY RF-SCORE:    0.00 PKD
ROOT
HETATM    1  C   UNL     1      -7.610   8.172  68.679  1.00  0.00    -0.103 C  
HETATM    2  C   UNL     1      -8.429   8.555  67.394  1.00  0.00    -0.127 C  
HETATM    3  C   UNL     1      -9.537   9.544  67.622  1.00  0.00    -0.163 C  
HETATM    4  C   UNL     1     -10.198   9.425  68.979  1.00  0.00    -0.216 C  
HETATM    5  C   UNL     1      -9.954   8.153  69.797  1.00  0.00    -0.191 C  
HETATM    6  C   UNL     1      -8.539   7.479  69.732  1.00  0.00    -0.140 C  
HETATM    7  C   UNL     1      -8.762   5.881  69.344  1.00  0.00    -0.116 C  
HETATM    8  C   UNL     1      -7.666   4.972  68.566  1.00  0.00    -0.079 C  
HETATM    9  N   UNL     1      -6.564   5.662  67.763  1.00  0.00    -0.051 NA 
HETATM   10  H   UNL     1      -7.311   8.761  75.342  1.00  0.00     0.000 HD 
HETATM   11  C   UNL     1      -6.504   7.078  68.329  1.00  0.00    -0.044 C  
HETATM   12  C   UNL     1      -5.777   6.730  69.697  1.00  0.00    -0.015 C  
HETATM   13  C   UNL     1      -5.724   6.925  72.228  1.00  0.00    -0.038 A  
HETATM   14  C   UNL     1      -6.442   7.064  71.019  1.00  0.00    -0.044 A  
HETATM   15  O   UNL     1      -7.828   8.794  74.546  1.00  0.00    -0.387 OA 
HETATM   16  C   UNL     1      -7.741   7.579  71.045  1.00  0.00    -0.089 A  
HETATM   17  C   UNL     1      -8.196   8.173  72.242  1.00  0.00    -0.205 A  
HETATM   18  C   UNL     1      -7.434   8.124  73.416  1.00  0.00    -0.145 A  
HETATM   19  C   UNL     1      -6.229   7.452  73.425  1.00  0.00    -0.060 A  
ENDROOT
BRANCH   9  20
HETATM   20  C   UNL     1      -6.862   5.643  66.296  1.00  0.00    -0.059 C  
BRANCH  20  21
HETATM   21  C   UNL     1      -7.773   4.570  65.722  1.00  0.00    -0.094 C  
HETATM   22  C   UNL     1      -7.497   3.314  65.335  1.00  0.00    -0.076 C  
ENDBRANCH  20  21
ENDBRANCH   9  20
TORSDOF 2
ENDMDL
MODEL      118
REMARK 921   NORMALIZED FREE ENERGY PREDICTED BY IDOCK:   -1.46 KCAL/MOL
REMARK 922        TOTAL FREE ENERGY PREDICTED BY IDOCK:   -1.79 KCAL/MOL
REMARK 923 INTER-LIGAND FREE ENERGY PREDICTED BY IDOCK:   -1.56 KCAL/MOL
REMARK 924 INTRA-LIGAND FREE ENERGY PREDICTED BY IDOCK:   -0.23 KCAL/MOL
REMARK 927      BINDING AFFINITY PREDICTED BY RF-SCORE:    0.00 PKD
ROOT
HETATM    1  C   UNL     1      -8.506  17.177  68.189  1.00  0.00    -0.227 C  
HETATM    2  C   UNL     1      -7.488  18.373  68.180  1.00  0.00    -0.279 C  
HETATM    3  C   UNL     1      -7.752  19.420  67.136  1.00  0.00    -0.272 C  
HETATM    4  C   UNL     1      -8.349  18.875  65.854  1.00  0.00     0.047 C  
HETATM    5  C   UNL     1      -8.284  17.365  65.609  1.00  0.00     0.502 C  
HETATM    6  C   UNL     1      -8.445  16.397  66.832  1.00  0.00    -0.254 C  
HETATM    7  C   UNL     1      -7.153  15.356  66.821  1.00  0.00     0.424 C  
HETATM    8  C   UNL     1      -6.547  14.644  68.147  1.00  0.00    -0.134 C  
HETATM    9  N   UNL     1      -6.853  15.244  69.519  1.00  0.00    -0.167 NA 
HETATM   10  H   UNL     1     -13.614  14.327  64.930  1.00  0.00     0.000 HD 
HETATM   11  C   UNL     1      -8.094  16.104  69.294  1.00  0.00    -0.186 C  
HETATM   12  C   UNL     1      -9.152  14.925  69.182  1.00  0.00    -0.140 C  
HETATM   13  C   UNL     1     -11.050  13.838  67.892  1.00  0.00    -0.285 A  
HETATM   14  C   UNL     1      -9.986  14.767  67.924  1.00  0.00    -0.213 A  
HETATM   15  O   UNL     1     -12.861  14.905  64.913  1.00  0.00    -0.291 OA 
HETATM   16  C   UNL     1      -9.755  15.587  66.816  1.00  0.00    -0.252 A  
HETATM   17  C   UNL     1     -10.740  15.634  65.807  1.00  0.00    -0.350 A  
HETATM   18  C   UNL     1     -11.851  14.782  65.833  1.00  0.00    -0.204 A  
HETATM   19  C   UNL     1     -11.976  13.847  66.839  1.00  0.00    -0.467 A  
ENDROOT
BRANCH   9  20
HETATM   20  C   UNL     1      -5.695  16.036  70.041  1.00  0.00    -0.171 C  
BRANCH  20  21
HETATM   21  C   UNL     1      -5.313  15.941  71.509  1.00  0.00     0.131 C  
HETATM   22  C   UNL     1      -5.970  15.389  72.542  1.00  0.00     1.232 C  
ENDBRANCH  20  21
ENDBRANCH   9  20
TORSDOF 2
ENDMDL
MODEL      119
REMARK 921   NORMALIZED FREE ENERGY PREDICTED BY IDOCK:   -0.95 KCAL/MOL
REMARK 922        TOTAL FREE ENERGY PREDICTED BY IDOCK:   -1.22 KCAL/MOL
REMARK 923 INTER-LIGAND FREE ENERGY PREDICTED BY IDOCK:   -3.54 KCAL/MOL
REMARK 924 INTRA-LIGAND FREE ENERGY PREDICTED BY IDOCK:    2.31 KCAL/MOL
REMARK 927      BINDING AFFINITY PREDICTED BY RF-SCORE:    0.00 PKD
ROOT
HETATM    1  C   UNL     1      -8.122  15.273  66.723  1.00  0.00    -0.166 C  
HETATM    2  C   UNL     1      -6.951  14.716  67.609  1.00  0.00    -0.205 C  
HETATM    3  C   UNL     1      -6.735  13.232  67.509  1.00  0.00    -0.156 C  
HETATM    4  C   UNL     1      -8.004  12.439  67.279  1.00  0.00    -0.178 C  
HETATM    5  C   UNL     1      -9.347  13.131  67.528  1.00  0.00    -0.207 C  
HETATM    6  C   UNL     1      -9.488  14.650  67.167  1.00  0.00    -0.234 C  
HETATM    7  C   UNL     1     -10.072  15.433  68.509  1.00  0.00    -0.213 C  
HETATM    8  C   UNL     1      -9.791  16.996  68.845  1.00  0.00    -0.272 C  
HETATM    9  N   UNL     1      -8.612  17.700  68.175  1.00  0.00    -0.253 NA 
HETATM   10  H   UNL     1     -13.270  13.594  62.785  1.00  0.00     0.000 HD 
HETATM   11  C   UNL     1      -8.296  16.842  66.953  1.00  0.00    -0.209 C  
HETATM   12  C   UNL     1      -9.527  17.287  66.055  1.00  0.00    -0.143 C  
HETATM   13  C   UNL     1     -11.507  16.617  64.613  1.00  0.00     0.152 A  
HETATM   14  C   UNL     1     -10.520  16.253  65.557  1.00  0.00    -0.383 A  
HETATM   15  O   UNL     1     -12.658  13.351  63.469  1.00  0.00    -0.733 OA 
HETATM   16  C   UNL     1     -10.420  14.922  65.972  1.00  0.00    -0.326 A  
HETATM   17  C   UNL     1     -11.140  13.946  65.250  1.00  0.00    -0.318 A  
HETATM   18  C   UNL     1     -12.043  14.304  64.241  1.00  0.00    -0.441 A  
HETATM   19  C   UNL     1     -12.270  15.636  63.963  1.00  0.00     0.158 A  
ENDROOT
BRANCH   9  20
HETATM   20  C   UNL     1      -7.447  17.822  69.106  1.00  0.00    -0.084 C  
BRANCH  20  21
HETATM   21  C   UNL     1      -7.026  16.632  69.954  1.00  0.00     0.347 C  
HETATM   22  C   UNL     1      -7.597  15.425  70.098  1.00  0.00     0.330 C  
ENDBRANCH  20  21
ENDBRANCH   9  20
TORSDOF 2
ENDMDL
MODEL      120
REMARK 921   NORMALIZED FREE ENERGY PREDICTED BY IDOCK:   -0.09 KCAL/MOL
REMARK 922        TOTAL FREE ENERGY PREDICTED BY IDOCK:   -0.26 KCAL/MOL
REMARK 923 INTER-LIGAND FREE ENERGY PREDICTED BY IDOCK:   -0.03 KCAL/MOL
REMARK 924 INTRA-LIGAND FREE ENERGY PREDICTED BY IDOCK:   -0.23 KCAL/MOL
REMARK 927      BINDING AFFINITY PREDICTED BY RF-SCORE:    0.00 PKD
ROOT
HETATM    1  C   UNL     1      -8.119  14.369  68.910  1.00  0.00    -0.095 C  
HETATM    2  C   UNL     1      -6.976  13.424  69.427  1.00  0.00     0.067 C  
HETATM    3  C   UNL     1      -5.832  14.127  70.101  1.00  0.00    -0.141 C  
HETATM    4  C   UNL     1      -5.533  15.499  69.533  1.00  0.00    -0.106 C  
HETATM    5  C   UNL     1      -6.131  15.868  68.172  1.00  0.00    -0.130 C  
HETATM    6  C   UNL     1      -7.568  15.346  67.818  1.00  0.00    -0.167 C  
HETATM    7  C   UNL     1      -7.474  14.580  66.349  1.00  0.00     1.924 C  
HETATM    8  C   UNL     1      -8.466  13.384  65.882  1.00  0.00     1.462 C  
HETATM    9  N   UNL     1      -9.245  12.607  66.943  1.00  0.00    -0.212 NA 
HETATM   10  H   UNL     1      -9.907  20.745  67.916  1.00  0.00     0.000 HD 
HETATM   11  C   UNL     1      -9.247  13.522  68.165  1.00  0.00    -0.208 C  
HETATM   12  C   UNL     1     -10.317  14.572  67.643  1.00  0.00    -0.237 C  
HETATM   13  C   UNL     1     -10.942  16.998  67.226  1.00  0.00    -0.015 A  
HETATM   14  C   UNL     1      -9.946  16.037  67.513  1.00  0.00    -0.240 A  
HETATM   15  O   UNL     1      -9.216  20.105  68.041  1.00  0.00    -0.307 OA 
HETATM   16  C   UNL     1      -8.633  16.456  67.748  1.00  0.00    -0.172 A  
HETATM   17  C   UNL     1      -8.399  17.835  67.937  1.00  0.00    -0.241 A  
HETATM   18  C   UNL     1      -9.417  18.779  67.752  1.00  0.00    -0.301 A  
HETATM   19  C   UNL     1     -10.668  18.368  67.341  1.00  0.00    -0.397 A  
ENDROOT
BRANCH   9  20
HETATM   20  C   UNL     1      -8.613  11.279  67.223  1.00  0.00    -0.143 C  
BRANCH  20  21
HETATM   21  C   UNL     1      -8.700  10.678  68.617  1.00  0.00    -0.148 C  
HETATM   22  C   UNL     1      -9.716  10.051  69.229  1.00  0.00    -0.227 C  
ENDBRANCH  20  21
ENDBRANCH   9  20
TORSDOF 2
ENDMDL
MODEL      121
REMARK 921   NORMALIZED FREE ENERGY PREDICTED BY IDOCK:    2.73 KCAL/MOL
REMARK 922        TOTAL FREE ENERGY PREDICTED BY IDOCK:    2.89 KCAL/MOL
REMARK 923 INTER-LIGAND FREE ENERGY PREDICTED BY IDOCK:    1.89 KCAL/MOL
REMARK 924 INTRA-LIGAND FREE ENERGY PREDICTED BY IDOCK:    1.00 KCAL/MOL
REMARK 927      BINDING AFFINITY PREDICTED BY RF-SCORE:    0.00 PKD
ROOT
HETATM    1  C   UNL     1      -9.631  10.170  68.167  1.00  0.00    -0.151 C  
HETATM    2  C   UNL     1     -11.173   9.973  68.395  1.00  0.00    -0.187 C  
HETATM    3  C   UNL     1     -12.024  11.147  68.005  1.00  0.00    -0.076 C  
HETATM    4  C   UNL     1     -11.355  12.490  68.217  1.00  0.00    -0.331 C  
HETATM    5  C   UNL     1     -10.105  12.546  69.099  1.00  0.00     0.293 C  
HETATM    6  C   UNL     1      -9.095  11.347  69.048  1.00  0.00     0.069 C  
HETATM    7  C   UNL     1      -8.844  10.836  70.607  1.00  0.00     2.715 C  
HETATM    8  C   UNL     1      -8.431   9.320  71.011  1.00  0.00    -0.089 C  
HETATM    9  N   UNL     1      -8.689   8.188  70.017  1.00  0.00    -0.130 NA 
HETATM   10  H   UNL     1      -4.870  14.589  66.545  1.00  0.00     0.000 HD 
HETATM   11  C   UNL     1      -8.826   8.887  68.667  1.00  0.00    -0.137 C  
HETATM   12  C   UNL     1      -7.289   9.213  68.438  1.00  0.00    -0.078 C  
HETATM   13  C   UNL     1      -5.501  10.926  67.876  1.00  0.00    -0.039 A  
HETATM   14  C   UNL     1      -6.833  10.648  68.260  1.00  0.00    -0.068 A  
HETATM   15  O   UNL     1      -5.746  14.422  66.870  1.00  0.00     0.438 OA 
HETATM   16  C   UNL     1      -7.742  11.700  68.403  1.00  0.00    -0.130 A  
HETATM   17  C   UNL     1      -7.367  12.972  67.918  1.00  0.00    -0.128 A  
HETATM   18  C   UNL     1      -6.074  13.218  67.440  1.00  0.00     0.026 A  
HETATM   19  C   UNL     1      -5.127  12.216  67.473  1.00  0.00    -0.089 A  
ENDROOT
BRANCH   9  20
HETATM   20  C   UNL     1      -9.911   7.405  70.384  1.00  0.00    -0.188 C  
BRANCH  20  21
HETATM   21  C   UNL     1     -11.279   7.872  69.911  1.00  0.00    -0.051 C  
HETATM   22  C   UNL     1     -12.492   7.699  70.461  1.00  0.00     0.221 C  
ENDBRANCH  20  21
ENDBRANCH   9  20
TORSDOF 2
ENDMDL
MODEL      122
REMARK 921   NORMALIZED FREE ENERGY PREDICTED BY IDOCK:    3.86 KCAL/MOL
REMARK 922        TOTAL FREE ENERGY PREDICTED BY IDOCK:    4.15 KCAL/MOL
REMARK 923 INTER-LIGAND FREE ENERGY PREDICTED BY IDOCK:    4.40 KCAL/MOL
REMARK 924 INTRA-LIGAND FREE ENERGY PREDICTED BY IDOCK:   -0.25 KCAL/MOL
REMARK 927      BINDING AFFINITY PREDICTED BY RF-SCORE:    0.00 PKD
ROOT
HETATM    1  C   UNL     1      -9.087  15.524  69.419  1.00  0.00    -0.280 C  
HETATM    2  C   UNL     1      -9.249  14.280  70.364  1.00  0.00     2.275 C  
HETATM    3  C   UNL     1      -8.172  13.241  70.230  1.00  0.00     3.604 C  
HETATM    4  C   UNL     1      -7.617  13.106  68.827  1.00  0.00    -0.033 C  
HETATM    5  C   UNL     1      -8.407  13.728  67.672  1.00  0.00    -0.183 C  
HETATM    6  C   UNL     1      -9.157  15.083  67.918  1.00  0.00    -0.180 C  
HETATM    7  C   UNL     1     -10.735  14.876  67.449  1.00  0.00    -0.292 C  
HETATM    8  C   UNL     1     -11.984  15.706  68.068  1.00  0.00     0.130 C  
HETATM    9  N   UNL     1     -11.821  16.396  69.422  1.00  0.00    -0.012 NA 
HETATM   10  H   UNL     1      -5.620  18.075  64.290  1.00  0.00     0.000 HD 
HETATM   11  C   UNL     1     -10.311  16.528  69.607  1.00  0.00    -0.221 C  
HETATM   12  C   UNL     1     -10.074  17.713  68.577  1.00  0.00    -0.375 C  
HETATM   13  C   UNL     1      -8.778  18.628  66.594  1.00  0.00    -0.307 A  
HETATM   14  C   UNL     1      -9.131  17.525  67.403  1.00  0.00    -0.237 A  
HETATM   15  O   UNL     1      -5.901  17.312  64.781  1.00  0.00     1.143 OA 
HETATM   16  C   UNL     1      -8.550  16.277  67.158  1.00  0.00    -0.207 A  
HETATM   17  C   UNL     1      -7.449  16.219  66.276  1.00  0.00     0.118 A  
HETATM   18  C   UNL     1      -7.035  17.343  65.552  1.00  0.00     0.601 A  
HETATM   19  C   UNL     1      -7.732  18.528  65.665  1.00  0.00     0.152 A  
ENDROOT
BRANCH   9  20
HETATM   20  C   UNL     1     -12.465  15.608  70.520  1.00  0.00    -0.398 C  
BRANCH  20  21
HETATM   21  C   UNL     1     -11.901  15.672  71.930  1.00  0.00    -0.536 C  
HETATM   22  C   UNL     1     -11.984  16.642  72.854  1.00  0.00    -0.361 C  
ENDBRANCH  20  21
ENDBRANCH   9  20
TORSDOF 2
ENDMDL
MODEL      123
REMARK 921   NORMALIZED FREE ENERGY PREDICTED BY IDOCK:    6.31 KCAL/MOL
REMARK 922        TOTAL FREE ENERGY PREDICTED BY IDOCK:    6.89 KCAL/MOL
REMARK 923 INTER-LIGAND FREE ENERGY PREDICTED BY IDOCK:    5.30 KCAL/MOL
REMARK 924 INTRA-LIGAND FREE ENERGY PREDICTED BY IDOCK:    1.59 KCAL/MOL
REMARK 927      BINDING AFFINITY PREDICTED BY RF-SCORE:    0.00 PKD
ROOT
HETATM    1  C   UNL     1     -11.545  16.032  68.492  1.00  0.00    -0.316 C  
HETATM    2  C   UNL     1     -11.456  17.564  68.155  1.00  0.00     0.692 C  
HETATM    3  C   UNL     1     -11.143  17.877  66.720  1.00  0.00     0.376 C  
HETATM    4  C   UNL     1     -10.239  16.863  66.051  1.00  0.00    -0.350 C  
HETATM    5  C   UNL     1      -9.470  15.880  66.939  1.00  0.00    -0.242 C  
HETATM    6  C   UNL     1     -10.167  15.335  68.234  1.00  0.00    -0.226 C  
HETATM    7  C   UNL     1      -9.136  15.602  69.507  1.00  0.00    -0.240 C  
HETATM    8  C   UNL     1      -9.621  15.807  71.043  1.00  0.00     2.159 C  
HETATM    9  N   UNL     1     -11.070  16.208  71.317  1.00  0.00    -0.126 NA 
HETATM   10  H   UNL     1     -10.520   9.851  66.132  1.00  0.00     0.000 HD 
HETATM   11  C   UNL     1     -11.824  15.820  70.048  1.00  0.00    -0.354 C  
HETATM   12  C   UNL     1     -11.843  14.250  70.284  1.00  0.00    -0.377 C  
HETATM   13  C   UNL     1     -11.390  11.921  69.379  1.00  0.00    -0.327 A  
HETATM   14  C   UNL     1     -11.215  13.319  69.265  1.00  0.00    -0.266 A  
HETATM   15  O   UNL     1     -10.336  10.781  66.080  1.00  0.00    -0.243 OA 
HETATM   16  C   UNL     1     -10.521  13.838  68.168  1.00  0.00    -0.252 A  
HETATM   17  C   UNL     1     -10.238  12.972  67.090  1.00  0.00    -0.243 A  
HETATM   18  C   UNL     1     -10.510  11.600  67.167  1.00  0.00    -0.220 A  
HETATM   19  C   UNL     1     -11.029  11.066  68.328  1.00  0.00    -0.287 A  
ENDROOT
BRANCH   9  20
HETATM   20  C   UNL     1     -11.184  17.669  71.627  1.00  0.00     2.266 C  
BRANCH  20  21
HETATM   21  C   UNL     1     -10.299  18.668  70.899  1.00  0.00     2.441 C  
HETATM   22  C   UNL     1      -9.326  18.469  69.997  1.00  0.00     1.434 C  
ENDBRANCH  20  21
ENDBRANCH   9  20
TORSDOF 2
ENDMDL
MODEL      124
REMARK 921   NORMALIZED FREE ENERGY PREDICTED BY IDOCK:    8.94 KCAL/MOL
REMARK 922        TOTAL FREE ENERGY PREDICTED BY IDOCK:    9.82 KCAL/MOL
REMARK 923 INTER-LIGAND FREE ENERGY PREDICTED BY IDOCK:   10.06 KCAL/MOL
REMARK 924 INTRA-LIGAND FREE ENERGY PREDICTED BY IDOCK:   -0.24 KCAL/MOL
REMARK 927      BINDING AFFINITY PREDICTED BY RF-SCORE:    0.00 PKD
ROOT
HETATM    1  C   UNL     1      -9.243   8.118  67.586  1.00  0.00    -0.150 C  
HETATM    2  C   UNL     1      -8.285   6.940  67.990  1.00  0.00    -0.115 C  
HETATM    3  C   UNL     1      -6.824   7.212  67.771  1.00  0.00    -0.074 C  
HETATM    4  C   UNL     1      -6.534   8.099  66.578  1.00  0.00    -0.055 C  
HETATM    5  C   UNL     1      -7.646   8.316  65.549  1.00  0.00    -0.087 C  
HETATM    6  C   UNL     1      -9.128   8.415  66.053  1.00  0.00    -0.235 C  
HETATM    7  C   UNL     1     -10.027   7.325  65.183  1.00  0.00     2.436 C  
HETATM    8  C   UNL     1     -11.382   6.620  65.732  1.00  0.00     3.466 C  
HETATM    9  N   UNL     1     -11.645   6.587  67.237  1.00  0.00     0.246 NA 
HETATM   10  H   UNL     1      -9.591  14.096  64.590  1.00  0.00     0.000 HD 
HETATM   11  C   UNL     1     -10.765   7.697  67.806  1.00  0.00    -0.145 C  
HETATM   12  C   UNL     1     -11.640   8.931  67.323  1.00  0.00     2.276 C  
HETATM   13  C   UNL     1     -11.749  11.170  66.131  1.00  0.00     0.696 A  
HETATM   14  C   UNL     1     -11.036   9.983  66.412  1.00  0.00     0.175 A  
HETATM   15  O   UNL     1      -9.130  13.275  64.714  1.00  0.00     1.019 OA 
HETATM   16  C   UNL     1      -9.743   9.819  65.905  1.00  0.00    -0.332 A  
HETATM   17  C   UNL     1      -9.103  10.944  65.342  1.00  0.00    -0.218 A  
HETATM   18  C   UNL     1      -9.784  12.154  65.160  1.00  0.00    -0.114 A  
HETATM   19  C   UNL     1     -11.118  12.250  65.498  1.00  0.00    -0.348 A  
ENDROOT
BRANCH   9  20
HETATM   20  C   UNL     1     -11.324   5.246  67.819  1.00  0.00     1.756 C  
BRANCH  20  21
HETATM   21  C   UNL     1     -10.212   4.404  67.214  1.00  0.00    -0.002 C  
HETATM   22  C   UNL     1      -9.590   3.315  67.694  1.00  0.00    -0.136 C  
ENDBRANCH  20  21
ENDBRANCH   9  20
TORSDOF 2
ENDMDL
MODEL      125
REMARK 921   NORMALIZED FREE ENERGY PREDICTED BY IDOCK:    9.80 KCAL/MOL
REMARK 922        TOTAL FREE ENERGY PREDICTED BY IDOCK:   10.78 KCAL/MOL
REMARK 923 INTER-LIGAND FREE ENERGY PREDICTED BY IDOCK:   10.96 KCAL/MOL
REMARK 924 INTRA-LIGAND FREE ENERGY PREDICTED BY IDOCK:   -0.18 KCAL/MOL
REMARK 927      BINDING AFFINITY PREDICTED BY RF-SCORE:    0.00 PKD
ROOT
HETATM    1  C   UNL     1      -9.290  17.312  67.210  1.00  0.00    -0.237 C  
HETATM    2  C   UNL     1      -8.671  18.541  66.451  1.00  0.00    -0.274 C  
HETATM    3  C   UNL     1      -8.836  18.511  64.958  1.00  0.00     3.106 C  
HETATM    4  C   UNL     1      -8.813  17.117  64.365  1.00  0.00     7.555 C  
HETATM    5  C   UNL     1      -8.282  15.970  65.229  1.00  0.00     3.121 C  
HETATM    6  C   UNL     1      -8.583  15.986  66.768  1.00  0.00    -0.292 C  
HETATM    7  C   UNL     1      -7.138  15.808  67.564  1.00  0.00    -0.215 C  
HETATM    8  C   UNL     1      -6.844  16.379  69.054  1.00  0.00    -0.198 C  
HETATM    9  N   UNL     1      -7.731  17.490  69.613  1.00  0.00     0.468 NA 
HETATM   10  H   UNL     1     -12.110  11.286  66.460  1.00  0.00     0.000 HD 
HETATM   11  C   UNL     1      -9.005  17.424  68.775  1.00  0.00    -0.219 C  
HETATM   12  C   UNL     1      -9.623  16.117  69.431  1.00  0.00    -0.208 C  
HETATM   13  C   UNL     1     -10.638  13.811  69.115  1.00  0.00    -0.099 A  
HETATM   14  C   UNL     1      -9.922  14.902  68.573  1.00  0.00    -0.223 A  
HETATM   15  O   UNL     1     -11.570  11.980  66.102  1.00  0.00    -0.392 OA 
HETATM   16  C   UNL     1      -9.557  14.884  67.224  1.00  0.00    -0.216 A  
HETATM   17  C   UNL     1     -10.130  13.896  66.394  1.00  0.00    -0.298 A  
HETATM   18  C   UNL     1     -10.927  12.873  66.922  1.00  0.00    -0.266 A  
HETATM   19  C   UNL     1     -11.132  12.795  68.284  1.00  0.00    -0.288 A  
ENDROOT
BRANCH   9  20
HETATM   20  C   UNL     1      -7.057  18.824  69.525  1.00  0.00    -0.007 C  
BRANCH  20  21
HETATM   21  C   UNL     1      -6.639  19.546  70.796  1.00  0.00     0.281 C  
HETATM   22  C   UNL     1      -5.702  19.231  71.704  1.00  0.00    -0.138 C  
ENDBRANCH  20  21
ENDBRANCH   9  20
TORSDOF 2
ENDMDL
MODEL      126
REMARK 921   NORMALIZED FREE ENERGY PREDICTED BY IDOCK:   10.17 KCAL/MOL
REMARK 922        TOTAL FREE ENERGY PREDICTED BY IDOCK:   11.20 KCAL/MOL
REMARK 923 INTER-LIGAND FREE ENERGY PREDICTED BY IDOCK:   11.48 KCAL/MOL
REMARK 924 INTRA-LIGAND FREE ENERGY PREDICTED BY IDOCK:   -0.28 KCAL/MOL
REMARK 927      BINDING AFFINITY PREDICTED BY RF-SCORE:    0.00 PKD
ROOT
HETATM    1  C   UNL     1     -10.644  18.677  68.236  1.00  0.00    -0.212 C  
HETATM    2  C   UNL     1     -11.940  19.049  69.041  1.00  0.00     5.873 C  
HETATM    3  C   UNL     1     -12.002  20.474  69.515  1.00  0.00     4.999 C  
HETATM    4  C   UNL     1     -10.652  21.065  69.865  1.00  0.00     1.296 C  
HETATM    5  C   UNL     1      -9.469  20.111  70.053  1.00  0.00     0.785 C  
HETATM    6  C   UNL     1      -9.375  18.841  69.137  1.00  0.00    -0.113 C  
HETATM    7  C   UNL     1      -9.193  17.522  70.127  1.00  0.00     2.234 C  
HETATM    8  C   UNL     1      -9.675  16.021  69.740  1.00  0.00    -0.064 C  
HETATM    9  N   UNL     1     -10.717  15.836  68.638  1.00  0.00    -0.250 NA 
HETATM   10  H   UNL     1      -4.588  20.813  66.340  1.00  0.00     0.000 HD 
HETATM   11  C   UNL     1     -10.662  17.133  67.835  1.00  0.00    -0.355 C  
HETATM   12  C   UNL     1      -9.295  16.857  67.077  1.00  0.00    -0.245 C  
HETATM   13  C   UNL     1      -6.981  17.674  66.422  1.00  0.00    -0.300 A  
HETATM   14  C   UNL     1      -8.129  17.816  67.234  1.00  0.00    -0.223 A  
HETATM   15  O   UNL     1      -5.322  20.880  66.938  1.00  0.00    -0.172 OA 
HETATM   16  C   UNL     1      -8.212  18.887  68.128  1.00  0.00    -0.343 A  
HETATM   17  C   UNL     1      -7.263  19.925  68.011  1.00  0.00    -0.327 A  
HETATM   18  C   UNL     1      -6.180  19.826  67.128  1.00  0.00    -0.184 A  
HETATM   19  C   UNL     1      -6.007  18.681  66.379  1.00  0.00    -0.186 A  
ENDROOT
BRANCH   9  20
HETATM   20  C   UNL     1     -12.075  15.572  69.208  1.00  0.00    -0.259 C  
BRANCH  20  21
HETATM   21  C   UNL     1     -12.252  15.430  70.711  1.00  0.00    -0.430 C  
HETATM   22  C   UNL     1     -12.271  16.364  71.675  1.00  0.00    -0.046 C  
ENDBRANCH  20  21
ENDBRANCH   9  20
TORSDOF 2
ENDMDL
MODEL      127
REMARK 921   NORMALIZED FREE ENERGY PREDICTED BY IDOCK:   21.12 KCAL/MOL
REMARK 922        TOTAL FREE ENERGY PREDICTED BY IDOCK:   23.42 KCAL/MOL
REMARK 923 INTER-LIGAND FREE ENERGY PREDICTED BY IDOCK:   22.82 KCAL/MOL
REMARK 924 INTRA-LIGAND FREE ENERGY PREDICTED BY IDOCK:    0.61 KCAL/MOL
REMARK 927      BINDING AFFINITY PREDICTED BY RF-SCORE:    0.00 PKD
ROOT
HETATM    1  C   UNL     1     -10.002  10.284  66.646  1.00  0.00    -0.270 C  
HETATM    2  C   UNL     1     -10.463   9.411  65.423  1.00  0.00     0.973 C  
HETATM    3  C   UNL     1      -9.348   8.906  64.552  1.00  0.00     0.440 C  
HETATM    4  C   UNL     1      -8.166   9.848  64.455  1.00  0.00    -0.162 C  
HETATM    5  C   UNL     1      -8.355  11.297  64.913  1.00  0.00     0.417 C  
HETATM    6  C   UNL     1      -9.278  11.580  66.150  1.00  0.00    -0.230 C  
HETATM    7  C   UNL     1     -10.389  12.725  65.694  1.00  0.00    -0.296 C  
HETATM    8  C   UNL     1     -11.866  12.870  66.349  1.00  0.00    -0.415 C  
HETATM    9  N   UNL     1     -12.466  11.683  67.100  1.00  0.00     0.766 NA 
HETATM   10  H   UNL     1      -4.784  13.348  69.512  1.00  0.00     0.000 HD 
HETATM   11  C   UNL     1     -11.267  10.811  67.462  1.00  0.00    -0.274 C  
HETATM   12  C   UNL     1     -10.692  11.714  68.634  1.00  0.00    -0.246 C  
HETATM   13  C   UNL     1      -8.705  12.913  69.665  1.00  0.00     1.976 A  
HETATM   14  C   UNL     1      -9.281  12.265  68.549  1.00  0.00    -0.089 A  
HETATM   15  O   UNL     1      -5.180  12.978  68.733  1.00  0.00    -0.066 OA 
HETATM   16  C   UNL     1      -8.517  12.074  67.394  1.00  0.00    -0.170 A  
HETATM   17  C   UNL     1      -7.127  12.307  67.471  1.00  0.00    -0.142 A  
HETATM   18  C   UNL     1      -6.542  12.853  68.620  1.00  0.00    -0.091 A  
HETATM   19  C   UNL     1      -7.335  13.210  69.691  1.00  0.00     0.597 A  
ENDROOT
BRANCH   9  20
HETATM   20  C   UNL     1     -13.471  10.955  66.262  1.00  0.00    12.517 C  
BRANCH  20  21
HETATM   21  C   UNL     1     -13.174  10.673  64.798  1.00  0.00     7.560 C  
HETATM   22  C   UNL     1     -12.783  11.501  63.817  1.00  0.00     0.021 C  
ENDBRANCH  20  21
ENDBRANCH   9  20
TORSDOF 2
ENDMDL
MODEL      128
REMARK 921   NORMALIZED FREE ENERGY PREDICTED BY IDOCK:   24.21 KCAL/MOL
REMARK 922        TOTAL FREE ENERGY PREDICTED BY IDOCK:   26.88 KCAL/MOL
REMARK 923 INTER-LIGAND FREE ENERGY PREDICTED BY IDOCK:   27.03 KCAL/MOL
REMARK 924 INTRA-LIGAND FREE ENERGY PREDICTED BY IDOCK:   -0.15 KCAL/MOL
REMARK 927      BINDING AFFINITY PREDICTED BY RF-SCORE:    0.00 PKD
ROOT
HETATM    1  C   UNL     1      -8.909  16.651  69.138  1.00  0.00    -0.136 C  
HETATM    2  C   UNL     1      -9.468  16.627  70.606  1.00  0.00     2.803 C  
HETATM    3  C   UNL     1      -9.289  17.908  71.371  1.00  0.00     7.870 C  
HETATM    4  C   UNL     1      -8.029  18.668  71.013  1.00  0.00     5.019 C  
HETATM    5  C   UNL     1      -6.935  17.933  70.234  1.00  0.00     1.318 C  
HETATM    6  C   UNL     1      -7.361  16.886  69.147  1.00  0.00    -0.197 C  
HETATM    7  C   UNL     1      -6.562  15.469  69.476  1.00  0.00    -0.172 C  
HETATM    8  C   UNL     1      -7.117  13.998  69.073  1.00  0.00    -0.106 C  
HETATM    9  N   UNL     1      -8.604  13.820  68.772  1.00  0.00    -0.043 NA 
HETATM   10  H   UNL     1      -5.330  20.177  64.712  1.00  0.00     0.000 HD 
HETATM   11  C   UNL     1      -9.101  15.227  68.447  1.00  0.00    -0.189 C  
HETATM   12  C   UNL     1      -8.461  15.348  66.999  1.00  0.00    -0.262 C  
HETATM   13  C   UNL     1      -7.051  16.684  65.362  1.00  0.00     2.798 A  
HETATM   14  C   UNL     1      -7.479  16.464  66.691  1.00  0.00    -0.267 A  
HETATM   15  O   UNL     1      -5.554  19.998  65.617  1.00  0.00    -0.166 OA 
HETATM   16  C   UNL     1      -7.049  17.325  67.704  1.00  0.00    -0.179 A  
HETATM   17  C   UNL     1      -6.408  18.525  67.329  1.00  0.00    -0.193 A  
HETATM   18  C   UNL     1      -6.077  18.788  65.993  1.00  0.00    -0.183 A  
HETATM   19  C   UNL     1      -6.344  17.846  65.022  1.00  0.00     0.546 A  
ENDROOT
BRANCH   9  20
HETATM   20  C   UNL     1      -9.329  13.212  69.932  1.00  0.00     2.706 C  
BRANCH  20  21
HETATM   21  C   UNL     1      -9.492  11.703  70.016  1.00  0.00     2.287 C  
HETATM   22  C   UNL     1      -9.856  10.926  71.048  1.00  0.00     3.782 C  
ENDBRANCH  20  21
ENDBRANCH   9  20
TORSDOF 2
ENDMDL
MODEL      129
REMARK 921   NORMALIZED FREE ENERGY PREDICTED BY IDOCK:   30.55 KCAL/MOL
REMARK 922        TOTAL FREE ENERGY PREDICTED BY IDOCK:   33.95 KCAL/MOL
REMARK 923 INTER-LIGAND FREE ENERGY PREDICTED BY IDOCK:   34.27 KCAL/MOL
REMARK 924 INTRA-LIGAND FREE ENERGY PREDICTED BY IDOCK:   -0.32 KCAL/MOL
REMARK 927      BINDING AFFINITY PREDICTED BY RF-SCORE:    0.00 PKD
ROOT
HETATM    1  C   UNL     1     -10.471  15.305  65.942  1.00  0.00    -0.345 C  
HETATM    2  C   UNL     1     -10.838  16.804  66.239  1.00  0.00     0.005 C  
HETATM    3  C   UNL     1     -12.196  17.229  65.757  1.00  0.00     4.504 C  
HETATM    4  C   UNL     1     -12.642  16.539  64.484  1.00  0.00     2.532 C  
HETATM    5  C   UNL     1     -11.588  15.802  63.652  1.00  0.00     1.040 C  
HETATM    6  C   UNL     1     -10.434  15.048  64.398  1.00  0.00     0.408 C  
HETATM    7  C   UNL     1      -8.996  15.573  63.759  1.00  0.00    11.964 C  
HETATM    8  C   UNL     1      -7.591  15.592  64.572  1.00  0.00    12.910 C  
HETATM    9  N   UNL     1      -7.616  15.546  66.099  1.00  0.00     0.745 NA 
HETATM   10  H   UNL     1     -12.372   9.750  62.724  1.00  0.00     0.000 HD 
HETATM   11  C   UNL     1      -8.992  14.985  66.445  1.00  0.00    -0.251 C  
HETATM   12  C   UNL     1      -8.710  13.472  66.052  1.00  0.00     0.736 C  
HETATM   13  C   UNL     1      -9.428  11.399  64.774  1.00  0.00    -0.176 A  
HETATM   14  C   UNL     1      -9.556  12.789  64.994  1.00  0.00     0.161 A  
HETATM   15  O   UNL     1     -12.420  10.694  62.812  1.00  0.00     1.826 OA 
HETATM   16  C   UNL     1     -10.515  13.514  64.281  1.00  0.00    -0.258 A  
HETATM   17  C   UNL     1     -11.487  12.794  63.555  1.00  0.00    -0.521 A  
HETATM   18  C   UNL     1     -11.417  11.401  63.425  1.00  0.00    -0.023 A  
HETATM   19  C   UNL     1     -10.360  10.712  63.983  1.00  0.00    -0.262 A  
ENDROOT
BRANCH   9  20
HETATM   20  C   UNL     1      -7.385  16.902  66.691  1.00  0.00    -0.263 C  
BRANCH  20  21
HETATM   21  C   UNL     1      -7.693  17.150  68.159  1.00  0.00    -0.204 C  
HETATM   22  C   UNL     1      -7.366  18.182  68.951  1.00  0.00    -0.253 C  
ENDBRANCH  20  21
ENDBRANCH   9  20
TORSDOF 2
ENDMDL
