MODEL        1
REMARK 921   NORMALIZED FREE ENERGY PREDICTED BY IDOCK:   -4.93 KCAL/MOL
REMARK 922        TOTAL FREE ENERGY PREDICTED BY IDOCK:   -6.15 KCAL/MOL
REMARK 923 INTER-LIGAND FREE ENERGY PREDICTED BY IDOCK:   -5.79 KCAL/MOL
REMARK 924 INTRA-LIGAND FREE ENERGY PREDICTED BY IDOCK:   -0.36 KCAL/MOL
REMARK 927      BINDING AFFINITY PREDICTED BY RF-SCORE:    0.00 PKD
ROOT
HETATM    1  C   UNL     1     -10.078  11.288  64.148  1.00  0.00    -0.373 C  
HETATM    2  C   UNL     1      -9.968  12.434  65.147  1.00  0.00    -0.219 C  
ENDROOT
BRANCH   2   3
HETATM    3  C   UNL     1     -10.629  13.720  64.628  1.00  0.00    -0.425 C  
BRANCH   3   4
HETATM    4  N   UNL     1     -10.436  14.874  65.516  1.00  0.00    -0.332 N  
HETATM    5  O   UNL     1     -11.244  16.601  64.176  1.00  0.00    -1.103 OA 
HETATM    6  C   UNL     1      -9.587  14.790  66.678  1.00  0.00    -0.272 C  
HETATM    7  C   UNL     1     -10.738  16.192  65.210  1.00  0.00    -0.368 C  
HETATM    8  C   UNL     1     -10.220  17.062  66.330  1.00  0.00    -0.336 C  
HETATM    9  C   UNL     1      -9.932  16.054  67.435  1.00  0.00    -0.241 C  
ENDBRANCH   3   4
BRANCH   3  10
HETATM   10  C   UNL     1     -12.122  13.510  64.311  1.00  0.00    -0.431 C  
HETATM   11  H2  UNL     1     -11.865  14.131  62.332  1.00  0.00     0.000 HD 
HETATM   12  N   UNL     1     -12.521  13.796  63.038  1.00  0.00    -1.000 N  
HETATM   13  O   UNL     1     -12.935  13.139  65.154  1.00  0.00    -0.695 OA 
HETATM   14  H1  UNL     1     -13.509  13.657  62.828  1.00  0.00     0.000 HD 
ENDBRANCH   3  10
ENDBRANCH   2   3
TORSDOF 3
ENDMDL
MODEL        2
REMARK 921   NORMALIZED FREE ENERGY PREDICTED BY IDOCK:   -4.77 KCAL/MOL
REMARK 922        TOTAL FREE ENERGY PREDICTED BY IDOCK:   -5.96 KCAL/MOL
REMARK 923 INTER-LIGAND FREE ENERGY PREDICTED BY IDOCK:   -5.53 KCAL/MOL
REMARK 924 INTRA-LIGAND FREE ENERGY PREDICTED BY IDOCK:   -0.43 KCAL/MOL
REMARK 927      BINDING AFFINITY PREDICTED BY RF-SCORE:    0.00 PKD
ROOT
HETATM    1  C   UNL     1      -9.793  11.068  64.014  1.00  0.00    -0.365 C  
HETATM    2  C   UNL     1     -10.250  11.893  65.212  1.00  0.00    -0.309 C  
ENDROOT
BRANCH   2   3
HETATM    3  C   UNL     1     -10.774  13.276  64.797  1.00  0.00    -0.378 C  
BRANCH   3   4
HETATM    4  N   UNL     1     -10.665  14.284  65.859  1.00  0.00    -0.296 N  
HETATM    5  O   UNL     1     -10.721  16.250  64.607  1.00  0.00    -0.670 OA 
HETATM    6  C   UNL     1     -10.235  13.927  67.187  1.00  0.00    -0.258 C  
HETATM    7  C   UNL     1     -10.630  15.658  65.672  1.00  0.00    -0.378 C  
HETATM    8  C   UNL     1     -10.334  16.302  67.005  1.00  0.00    -0.292 C  
HETATM    9  C   UNL     1     -10.571  15.165  67.991  1.00  0.00    -0.258 C  
ENDBRANCH   3   4
BRANCH   3  10
HETATM   10  C   UNL     1     -12.213  13.204  64.250  1.00  0.00    -0.396 C  
HETATM   11  H2  UNL     1     -11.750  14.474  62.656  1.00  0.00     0.000 HD 
HETATM   12  N   UNL     1     -12.472  13.920  63.117  1.00  0.00    -1.079 N  
HETATM   13  O   UNL     1     -13.105  12.569  64.806  1.00  0.00    -0.853 OA 
HETATM   14  H1  UNL     1     -13.424  13.872  62.755  1.00  0.00     0.000 HD 
ENDBRANCH   3  10
ENDBRANCH   2   3
TORSDOF 3
ENDMDL
MODEL        3
REMARK 921   NORMALIZED FREE ENERGY PREDICTED BY IDOCK:   -4.75 KCAL/MOL
REMARK 922        TOTAL FREE ENERGY PREDICTED BY IDOCK:   -5.94 KCAL/MOL
REMARK 923 INTER-LIGAND FREE ENERGY PREDICTED BY IDOCK:   -5.60 KCAL/MOL
REMARK 924 INTRA-LIGAND FREE ENERGY PREDICTED BY IDOCK:   -0.34 KCAL/MOL
REMARK 927      BINDING AFFINITY PREDICTED BY RF-SCORE:    0.00 PKD
ROOT
HETATM    1  C   UNL     1      -9.619  11.351  62.972  1.00  0.00    -0.397 C  
HETATM    2  C   UNL     1     -10.425  11.127  64.246  1.00  0.00    -0.427 C  
ENDROOT
BRANCH   2   3
HETATM    3  C   UNL     1     -11.051  12.428  64.772  1.00  0.00    -0.304 C  
BRANCH   3   4
HETATM    4  N   UNL     1     -11.387  12.378  66.200  1.00  0.00    -0.333 N  
HETATM    5  O   UNL     1     -12.029  14.586  66.579  1.00  0.00    -0.397 OA 
HETATM    6  C   UNL     1     -10.967  11.276  67.029  1.00  0.00    -0.294 C  
HETATM    7  C   UNL     1     -11.821  13.447  66.970  1.00  0.00    -0.394 C  
HETATM    8  C   UNL     1     -11.878  12.995  68.409  1.00  0.00    -0.370 C  
HETATM    9  C   UNL     1     -11.779  11.479  68.290  1.00  0.00    -0.371 C  
ENDBRANCH   3   4
BRANCH   3  10
HETATM   10  C   UNL     1     -12.269  12.858  63.932  1.00  0.00    -0.449 C  
HETATM   11  H2  UNL     1     -11.574  14.825  63.797  1.00  0.00     0.000 HD 
HETATM   12  N   UNL     1     -12.312  14.166  63.544  1.00  0.00    -1.127 N  
HETATM   13  O   UNL     1     -13.183  12.090  63.644  1.00  0.00    -0.737 OA 
HETATM   14  H1  UNL     1     -13.118  14.451  62.989  1.00  0.00     0.000 HD 
ENDBRANCH   3  10
ENDBRANCH   2   3
TORSDOF 3
ENDMDL
MODEL        4
REMARK 921   NORMALIZED FREE ENERGY PREDICTED BY IDOCK:   -4.53 KCAL/MOL
REMARK 922        TOTAL FREE ENERGY PREDICTED BY IDOCK:   -5.68 KCAL/MOL
REMARK 923 INTER-LIGAND FREE ENERGY PREDICTED BY IDOCK:   -5.35 KCAL/MOL
REMARK 924 INTRA-LIGAND FREE ENERGY PREDICTED BY IDOCK:   -0.33 KCAL/MOL
REMARK 927      BINDING AFFINITY PREDICTED BY RF-SCORE:    0.00 PKD
ROOT
HETATM    1  C   UNL     1      -9.446  11.036  62.830  1.00  0.00    -0.378 C  
HETATM    2  C   UNL     1     -10.287  11.274  64.080  1.00  0.00    -0.430 C  
ENDROOT
BRANCH   2   3
HETATM    3  C   UNL     1     -10.766  12.730  64.186  1.00  0.00    -0.412 C  
BRANCH   3   4
HETATM    4  N   UNL     1     -10.748  13.251  65.559  1.00  0.00    -0.283 N  
HETATM    5  O   UNL     1     -10.417  15.524  65.163  1.00  0.00    -0.393 OA 
HETATM    6  C   UNL     1     -10.580  12.373  66.690  1.00  0.00    -0.231 C  
HETATM    7  C   UNL     1     -10.560  14.576  65.921  1.00  0.00    -0.309 C  
HETATM    8  C   UNL     1     -10.435  14.637  67.424  1.00  0.00    -0.255 C  
HETATM    9  C   UNL     1     -10.935  13.265  67.860  1.00  0.00    -0.270 C  
ENDBRANCH   3   4
BRANCH   3  10
HETATM   10  C   UNL     1     -12.151  12.926  63.540  1.00  0.00    -0.555 C  
HETATM   11  H2  UNL     1     -11.933  15.004  63.529  1.00  0.00     0.000 HD 
HETATM   12  N   UNL     1     -12.533  14.213  63.296  1.00  0.00    -1.098 N  
HETATM   13  O   UNL     1     -12.903  11.990  63.280  1.00  0.00    -0.732 OA 
HETATM   14  H1  UNL     1     -13.450  14.343  62.868  1.00  0.00     0.000 HD 
ENDBRANCH   3  10
ENDBRANCH   2   3
TORSDOF 3
ENDMDL
MODEL        5
REMARK 921   NORMALIZED FREE ENERGY PREDICTED BY IDOCK:   -4.50 KCAL/MOL
REMARK 922        TOTAL FREE ENERGY PREDICTED BY IDOCK:   -5.65 KCAL/MOL
REMARK 923 INTER-LIGAND FREE ENERGY PREDICTED BY IDOCK:   -5.40 KCAL/MOL
REMARK 924 INTRA-LIGAND FREE ENERGY PREDICTED BY IDOCK:   -0.26 KCAL/MOL
REMARK 927      BINDING AFFINITY PREDICTED BY RF-SCORE:    0.00 PKD
ROOT
HETATM    1  C   UNL     1     -10.346  12.331  66.105  1.00  0.00    -0.269 C  
HETATM    2  C   UNL     1     -11.403  13.419  65.951  1.00  0.00    -0.327 C  
ENDROOT
BRANCH   2   3
HETATM    3  C   UNL     1     -10.800  14.747  65.466  1.00  0.00    -0.351 C  
BRANCH   3   4
HETATM    4  N   UNL     1     -10.546  15.703  66.550  1.00  0.00    -0.305 N  
HETATM    5  O   UNL     1      -8.594  16.724  65.790  1.00  0.00    -0.485 OA 
HETATM    6  C   UNL     1     -11.211  15.583  67.824  1.00  0.00    -0.302 C  
HETATM    7  C   UNL     1      -9.474  16.580  66.625  1.00  0.00    -0.258 C  
HETATM    8  C   UNL     1      -9.508  17.245  67.980  1.00  0.00    -0.271 C  
HETATM    9  C   UNL     1     -10.905  16.910  68.486  1.00  0.00    -0.335 C  
ENDBRANCH   3   4
BRANCH   3  10
HETATM   10  C   UNL     1     -11.648  15.388  64.351  1.00  0.00    -0.264 C  
HETATM   11  H2  UNL     1     -12.500  13.549  63.839  1.00  0.00     0.000 HD 
HETATM   12  N   UNL     1     -12.458  14.550  63.641  1.00  0.00    -1.078 N  
HETATM   13  O   UNL     1     -11.590  16.583  64.075  1.00  0.00    -1.154 OA 
HETATM   14  H1  UNL     1     -13.019  14.974  62.903  1.00  0.00     0.000 HD 
ENDBRANCH   3  10
ENDBRANCH   2   3
TORSDOF 3
ENDMDL
MODEL        6
REMARK 921   NORMALIZED FREE ENERGY PREDICTED BY IDOCK:   -4.50 KCAL/MOL
REMARK 922        TOTAL FREE ENERGY PREDICTED BY IDOCK:   -5.65 KCAL/MOL
REMARK 923 INTER-LIGAND FREE ENERGY PREDICTED BY IDOCK:   -5.29 KCAL/MOL
REMARK 924 INTRA-LIGAND FREE ENERGY PREDICTED BY IDOCK:   -0.36 KCAL/MOL
REMARK 927      BINDING AFFINITY PREDICTED BY RF-SCORE:    0.00 PKD
ROOT
HETATM    1  C   UNL     1      -9.718  14.694  66.455  1.00  0.00    -0.315 C  
HETATM    2  C   UNL     1     -10.329  14.151  65.168  1.00  0.00    -0.429 C  
ENDROOT
BRANCH   2   3
HETATM    3  C   UNL     1     -11.413  13.098  65.440  1.00  0.00    -0.304 C  
BRANCH   3   4
HETATM    4  N   UNL     1     -10.871  11.775  65.776  1.00  0.00    -0.284 N  
HETATM    5  O   UNL     1     -11.845  11.416  67.862  1.00  0.00    -0.588 OA 
HETATM    6  C   UNL     1      -9.746  11.226  65.062  1.00  0.00    -0.251 C  
HETATM    7  C   UNL     1     -11.115  11.071  66.945  1.00  0.00    -0.213 C  
HETATM    8  C   UNL     1     -10.225   9.852  66.951  1.00  0.00    -0.302 C  
HETATM    9  C   UNL     1      -9.742   9.779  65.508  1.00  0.00    -0.382 C  
ENDBRANCH   3   4
BRANCH   3  10
HETATM   10  C   UNL     1     -12.424  13.003  64.282  1.00  0.00    -0.315 C  
HETATM   11  H2  UNL     1     -11.563  14.632  63.298  1.00  0.00     0.000 HD 
HETATM   12  N   UNL     1     -12.293  13.920  63.280  1.00  0.00    -1.148 N  
HETATM   13  O   UNL     1     -13.330  12.174  64.256  1.00  0.00    -0.761 OA 
HETATM   14  H1  UNL     1     -12.963  13.857  62.514  1.00  0.00     0.000 HD 
ENDBRANCH   3  10
ENDBRANCH   2   3
TORSDOF 3
ENDMDL
MODEL        7
REMARK 921   NORMALIZED FREE ENERGY PREDICTED BY IDOCK:   -4.47 KCAL/MOL
REMARK 922        TOTAL FREE ENERGY PREDICTED BY IDOCK:   -5.61 KCAL/MOL
REMARK 923 INTER-LIGAND FREE ENERGY PREDICTED BY IDOCK:   -5.65 KCAL/MOL
REMARK 924 INTRA-LIGAND FREE ENERGY PREDICTED BY IDOCK:    0.04 KCAL/MOL
REMARK 927      BINDING AFFINITY PREDICTED BY RF-SCORE:    0.00 PKD
ROOT
HETATM    1  C   UNL     1     -10.076  10.991  63.525  1.00  0.00    -0.428 C  
HETATM    2  C   UNL     1     -10.464  11.394  64.943  1.00  0.00    -0.363 C  
ENDROOT
BRANCH   2   3
HETATM    3  C   UNL     1     -11.045  12.814  65.003  1.00  0.00    -0.285 C  
BRANCH   3   4
HETATM    4  N   UNL     1     -11.250  13.303  66.372  1.00  0.00    -0.296 N  
HETATM    5  O   UNL     1     -12.013  11.367  67.421  1.00  0.00    -0.606 OA 
HETATM    6  C   UNL     1     -11.300  14.714  66.663  1.00  0.00    -0.356 C  
HETATM    7  C   UNL     1     -11.726  12.554  67.438  1.00  0.00    -0.366 C  
HETATM    8  C   UNL     1     -11.947  13.488  68.603  1.00  0.00    -0.378 C  
HETATM    9  C   UNL     1     -11.204  14.747  68.173  1.00  0.00    -0.307 C  
ENDBRANCH   3   4
BRANCH   3  10
HETATM   10  C   UNL     1     -12.337  12.941  64.172  1.00  0.00    -0.376 C  
HETATM   11  H2  UNL     1     -11.583  14.577  63.113  1.00  0.00     0.000 HD 
HETATM   12  N   UNL     1     -12.372  13.944  63.248  1.00  0.00    -1.148 N  
HETATM   13  O   UNL     1     -13.310  12.210  64.340  1.00  0.00    -0.740 OA 
HETATM   14  H1  UNL     1     -13.226  14.028  62.698  1.00  0.00     0.000 HD 
ENDBRANCH   3  10
ENDBRANCH   2   3
TORSDOF 3
ENDMDL
MODEL        8
REMARK 921   NORMALIZED FREE ENERGY PREDICTED BY IDOCK:   -4.47 KCAL/MOL
REMARK 922        TOTAL FREE ENERGY PREDICTED BY IDOCK:   -5.61 KCAL/MOL
REMARK 923 INTER-LIGAND FREE ENERGY PREDICTED BY IDOCK:   -5.33 KCAL/MOL
REMARK 924 INTRA-LIGAND FREE ENERGY PREDICTED BY IDOCK:   -0.28 KCAL/MOL
REMARK 927      BINDING AFFINITY PREDICTED BY RF-SCORE:    0.00 PKD
ROOT
HETATM    1  C   UNL     1     -11.743  15.419  68.411  1.00  0.00    -0.332 C  
HETATM    2  C   UNL     1     -10.912  14.583  67.444  1.00  0.00    -0.306 C  
ENDROOT
BRANCH   2   3
HETATM    3  C   UNL     1     -11.301  14.834  65.980  1.00  0.00    -0.332 C  
BRANCH   3   4
HETATM    4  N   UNL     1     -11.206  13.635  65.137  1.00  0.00    -0.302 N  
HETATM    5  O   UNL     1     -12.745  14.148  63.464  1.00  0.00    -0.794 OA 
HETATM    6  C   UNL     1     -10.583  12.429  65.621  1.00  0.00    -0.265 C  
HETATM    7  C   UNL     1     -11.937  13.394  63.984  1.00  0.00    -0.464 C  
HETATM    8  C   UNL     1     -11.655  11.978  63.540  1.00  0.00    -0.553 C  
HETATM    9  C   UNL     1     -10.428  11.604  64.361  1.00  0.00    -0.374 C  
ENDBRANCH   3   4
BRANCH   3  10
HETATM   10  C   UNL     1     -10.508  16.004  65.367  1.00  0.00    -0.392 C  
HETATM   11  H2  UNL     1      -8.881  15.660  66.633  1.00  0.00     0.000 HD 
HETATM   12  N   UNL     1      -9.265  16.234  65.882  1.00  0.00    -0.294 N  
HETATM   13  O   UNL     1     -10.963  16.727  64.485  1.00  0.00    -0.921 OA 
HETATM   14  H1  UNL     1      -8.740  17.008  65.477  1.00  0.00     0.000 HD 
ENDBRANCH   3  10
ENDBRANCH   2   3
TORSDOF 3
ENDMDL
MODEL        9
REMARK 921   NORMALIZED FREE ENERGY PREDICTED BY IDOCK:   -4.46 KCAL/MOL
REMARK 922        TOTAL FREE ENERGY PREDICTED BY IDOCK:   -5.60 KCAL/MOL
REMARK 923 INTER-LIGAND FREE ENERGY PREDICTED BY IDOCK:   -5.17 KCAL/MOL
REMARK 924 INTRA-LIGAND FREE ENERGY PREDICTED BY IDOCK:   -0.43 KCAL/MOL
REMARK 927      BINDING AFFINITY PREDICTED BY RF-SCORE:    0.00 PKD
ROOT
HETATM    1  C   UNL     1     -11.621  11.003  69.387  1.00  0.00    -0.383 C  
HETATM    2  C   UNL     1     -11.137  11.212  67.956  1.00  0.00    -0.334 C  
ENDROOT
BRANCH   2   3
HETATM    3  C   UNL     1     -11.748  12.467  67.316  1.00  0.00    -0.362 C  
BRANCH   3   4
HETATM    4  N   UNL     1     -11.583  12.518  65.858  1.00  0.00    -0.384 N  
HETATM    5  O   UNL     1     -13.254  14.035  65.278  1.00  0.00    -0.782 OA 
HETATM    6  C   UNL     1     -10.820  11.516  65.157  1.00  0.00    -0.265 C  
HETATM    7  C   UNL     1     -12.349  13.270  64.980  1.00  0.00    -0.448 C  
HETATM    8  C   UNL     1     -11.957  12.889  63.573  1.00  0.00    -0.629 C  
HETATM    9  C   UNL     1     -10.655  12.125  63.780  1.00  0.00    -0.482 C  
ENDBRANCH   3   4
BRANCH   3  10
HETATM   10  C   UNL     1     -11.228  13.759  67.976  1.00  0.00    -0.267 C  
HETATM   11  H2  UNL     1     -13.156  14.550  68.120  1.00  0.00     0.000 HD 
HETATM   12  N   UNL     1     -12.163  14.697  68.303  1.00  0.00    -0.604 N  
HETATM   13  O   UNL     1     -10.034  13.969  68.176  1.00  0.00    -0.228 OA 
HETATM   14  H1  UNL     1     -11.819  15.551  68.739  1.00  0.00     0.000 HD 
ENDBRANCH   3  10
ENDBRANCH   2   3
TORSDOF 3
ENDMDL
MODEL       10
REMARK 921   NORMALIZED FREE ENERGY PREDICTED BY IDOCK:   -4.41 KCAL/MOL
REMARK 922        TOTAL FREE ENERGY PREDICTED BY IDOCK:   -5.55 KCAL/MOL
REMARK 923 INTER-LIGAND FREE ENERGY PREDICTED BY IDOCK:   -5.25 KCAL/MOL
REMARK 924 INTRA-LIGAND FREE ENERGY PREDICTED BY IDOCK:   -0.30 KCAL/MOL
REMARK 927      BINDING AFFINITY PREDICTED BY RF-SCORE:    0.00 PKD
ROOT
HETATM    1  C   UNL     1     -10.433  14.323  68.201  1.00  0.00    -0.246 C  
HETATM    2  C   UNL     1     -11.199  15.458  67.530  1.00  0.00    -0.302 C  
ENDROOT
BRANCH   2   3
HETATM    3  C   UNL     1     -10.373  16.140  66.428  1.00  0.00    -0.315 C  
BRANCH   3   4
HETATM    4  N   UNL     1      -9.994  17.521  66.754  1.00  0.00    -0.300 N  
HETATM    5  O   UNL     1      -7.825  17.593  65.902  1.00  0.00    -0.523 OA 
HETATM    6  C   UNL     1     -10.748  18.300  67.703  1.00  0.00    -0.348 C  
HETATM    7  C   UNL     1      -8.768  18.110  66.483  1.00  0.00    -0.268 C  
HETATM    8  C   UNL     1      -8.747  19.468  67.142  1.00  0.00    -0.347 C  
HETATM    9  C   UNL     1     -10.213  19.699  67.487  1.00  0.00    -0.562 C  
ENDBRANCH   3   4
BRANCH   3  10
HETATM   10  C   UNL     1     -11.075  16.069  65.058  1.00  0.00    -0.336 C  
HETATM   11  H2  UNL     1     -11.344  14.003  65.220  1.00  0.00     0.000 HD 
HETATM   12  N   UNL     1     -11.490  14.835  64.649  1.00  0.00    -0.535 N  
HETATM   13  O   UNL     1     -11.234  17.053  64.340  1.00  0.00    -1.167 OA 
HETATM   14  H1  UNL     1     -11.955  14.788  63.742  1.00  0.00     0.000 HD 
ENDBRANCH   3  10
ENDBRANCH   2   3
TORSDOF 3
ENDMDL
MODEL       11
REMARK 921   NORMALIZED FREE ENERGY PREDICTED BY IDOCK:   -4.37 KCAL/MOL
REMARK 922        TOTAL FREE ENERGY PREDICTED BY IDOCK:   -5.49 KCAL/MOL
REMARK 923 INTER-LIGAND FREE ENERGY PREDICTED BY IDOCK:   -5.11 KCAL/MOL
REMARK 924 INTRA-LIGAND FREE ENERGY PREDICTED BY IDOCK:   -0.38 KCAL/MOL
REMARK 927      BINDING AFFINITY PREDICTED BY RF-SCORE:    0.00 PKD
ROOT
HETATM    1  C   UNL     1      -9.850  11.222  65.009  1.00  0.00    -0.307 C  
HETATM    2  C   UNL     1     -10.884  11.848  65.938  1.00  0.00    -0.342 C  
ENDROOT
BRANCH   2   3
HETATM    3  C   UNL     1     -11.166  13.316  65.585  1.00  0.00    -0.285 C  
BRANCH   3   4
HETATM    4  N   UNL     1     -11.299  14.184  66.762  1.00  0.00    -0.330 N  
HETATM    5  O   UNL     1     -10.469  16.194  65.923  1.00  0.00    -0.330 OA 
HETATM    6  C   UNL     1     -11.514  13.633  68.076  1.00  0.00    -0.310 C  
HETATM    7  C   UNL     1     -10.928  15.518  66.832  1.00  0.00    -0.268 C  
HETATM    8  C   UNL     1     -11.072  15.968  68.266  1.00  0.00    -0.351 C  
HETATM    9  C   UNL     1     -11.898  14.850  68.890  1.00  0.00    -0.334 C  
ENDBRANCH   3   4
BRANCH   3  10
HETATM   10  C   UNL     1     -12.385  13.458  64.654  1.00  0.00    -0.382 C  
HETATM   11  H2  UNL     1     -11.745  15.330  63.981  1.00  0.00     0.000 HD 
HETATM   12  N   UNL     1     -12.460  14.605  63.918  1.00  0.00    -1.041 N  
HETATM   13  O   UNL     1     -13.273  12.612  64.586  1.00  0.00    -0.828 OA 
HETATM   14  H1  UNL     1     -13.267  14.699  63.302  1.00  0.00     0.000 HD 
ENDBRANCH   3  10
ENDBRANCH   2   3
TORSDOF 3
ENDMDL
MODEL       12
REMARK 921   NORMALIZED FREE ENERGY PREDICTED BY IDOCK:   -4.36 KCAL/MOL
REMARK 922        TOTAL FREE ENERGY PREDICTED BY IDOCK:   -5.49 KCAL/MOL
REMARK 923 INTER-LIGAND FREE ENERGY PREDICTED BY IDOCK:   -5.21 KCAL/MOL
REMARK 924 INTRA-LIGAND FREE ENERGY PREDICTED BY IDOCK:   -0.27 KCAL/MOL
REMARK 927      BINDING AFFINITY PREDICTED BY RF-SCORE:    0.00 PKD
ROOT
HETATM    1  C   UNL     1      -9.147  15.783  66.173  1.00  0.00    -0.377 C  
HETATM    2  C   UNL     1     -10.039  14.794  65.432  1.00  0.00    -0.406 C  
ENDROOT
BRANCH   2   3
HETATM    3  C   UNL     1     -11.470  14.774  65.991  1.00  0.00    -0.316 C  
BRANCH   3   4
HETATM    4  N   UNL     1     -11.590  14.044  67.260  1.00  0.00    -0.348 N  
HETATM    5  O   UNL     1     -11.900  15.807  68.753  1.00  0.00    -0.387 OA 
HETATM    6  C   UNL     1     -11.184  12.666  67.372  1.00  0.00    -0.290 C  
HETATM    7  C   UNL     1     -11.773  14.616  68.510  1.00  0.00    -0.316 C  
HETATM    8  C   UNL     1     -11.664  13.522  69.545  1.00  0.00    -0.382 C  
HETATM    9  C   UNL     1     -11.766  12.254  68.707  1.00  0.00    -0.390 C  
ENDBRANCH   3   4
BRANCH   3  10
HETATM   10  C   UNL     1     -12.484  14.250  64.955  1.00  0.00    -0.400 C  
HETATM   11  H2  UNL     1     -11.386  15.051  63.368  1.00  0.00     0.000 HD 
HETATM   12  N   UNL     1     -12.215  14.526  63.646  1.00  0.00    -1.062 N  
HETATM   13  O   UNL     1     -13.504  13.644  65.271  1.00  0.00    -0.541 OA 
HETATM   14  H1  UNL     1     -12.886  14.180  62.961  1.00  0.00     0.000 HD 
ENDBRANCH   3  10
ENDBRANCH   2   3
TORSDOF 3
ENDMDL
MODEL       13
REMARK 921   NORMALIZED FREE ENERGY PREDICTED BY IDOCK:   -4.36 KCAL/MOL
REMARK 922        TOTAL FREE ENERGY PREDICTED BY IDOCK:   -5.48 KCAL/MOL
REMARK 923 INTER-LIGAND FREE ENERGY PREDICTED BY IDOCK:   -5.39 KCAL/MOL
REMARK 924 INTRA-LIGAND FREE ENERGY PREDICTED BY IDOCK:   -0.10 KCAL/MOL
REMARK 927      BINDING AFFINITY PREDICTED BY RF-SCORE:    0.00 PKD
ROOT
HETATM    1  C   UNL     1     -10.390  16.243  66.676  1.00  0.00    -0.302 C  
HETATM    2  C   UNL     1     -10.465  14.926  65.913  1.00  0.00    -0.327 C  
ENDROOT
BRANCH   2   3
HETATM    3  C   UNL     1     -11.793  14.192  66.155  1.00  0.00    -0.407 C  
BRANCH   3   4
HETATM    4  N   UNL     1     -11.669  13.048  67.067  1.00  0.00    -0.366 N  
HETATM    5  O   UNL     1     -12.279  14.031  69.090  1.00  0.00    -0.346 OA 
HETATM    6  C   UNL     1     -10.956  11.857  66.681  1.00  0.00    -0.291 C  
HETATM    7  C   UNL     1     -11.901  13.072  68.434  1.00  0.00    -0.334 C  
HETATM    8  C   UNL     1     -11.487  11.737  69.002  1.00  0.00    -0.358 C  
HETATM    9  C   UNL     1     -11.349  10.868  67.758  1.00  0.00    -0.366 C  
ENDBRANCH   3   4
BRANCH   3  10
HETATM   10  C   UNL     1     -12.467  13.774  64.834  1.00  0.00    -0.386 C  
HETATM   11  H2  UNL     1     -11.758  15.475  63.848  1.00  0.00     0.000 HD 
HETATM   12  N   UNL     1     -12.301  14.614  63.771  1.00  0.00    -1.092 N  
HETATM   13  O   UNL     1     -13.150  12.759  64.727  1.00  0.00    -0.813 OA 
HETATM   14  H1  UNL     1     -12.747  14.338  62.897  1.00  0.00     0.000 HD 
ENDBRANCH   3  10
ENDBRANCH   2   3
TORSDOF 3
ENDMDL
MODEL       14
REMARK 921   NORMALIZED FREE ENERGY PREDICTED BY IDOCK:   -4.34 KCAL/MOL
REMARK 922        TOTAL FREE ENERGY PREDICTED BY IDOCK:   -5.45 KCAL/MOL
REMARK 923 INTER-LIGAND FREE ENERGY PREDICTED BY IDOCK:   -5.36 KCAL/MOL
REMARK 924 INTRA-LIGAND FREE ENERGY PREDICTED BY IDOCK:   -0.09 KCAL/MOL
REMARK 927      BINDING AFFINITY PREDICTED BY RF-SCORE:    0.00 PKD
ROOT
HETATM    1  C   UNL     1      -9.090  10.982  65.123  1.00  0.00    -0.199 C  
HETATM    2  C   UNL     1     -10.348  11.168  64.283  1.00  0.00    -0.413 C  
ENDROOT
BRANCH   2   3
HETATM    3  C   UNL     1     -10.720  12.649  64.116  1.00  0.00    -0.406 C  
BRANCH   3   4
HETATM    4  N   UNL     1     -10.568  13.431  65.349  1.00  0.00    -0.294 N  
HETATM    5  O   UNL     1     -12.043  12.311  66.764  1.00  0.00    -0.593 OA 
HETATM    6  C   UNL     1      -9.946  14.731  65.339  1.00  0.00    -0.334 C  
HETATM    7  C   UNL     1     -11.245  13.209  66.539  1.00  0.00    -0.310 C  
HETATM    8  C   UNL     1     -10.921  14.344  67.479  1.00  0.00    -0.299 C  
HETATM    9  C   UNL     1      -9.723  15.007  66.810  1.00  0.00    -0.253 C  
ENDBRANCH   3   4
BRANCH   3  10
HETATM   10  C   UNL     1     -12.130  12.824  63.521  1.00  0.00    -0.559 C  
HETATM   11  H2  UNL     1     -12.352  10.763  63.253  1.00  0.00     0.000 HD 
HETATM   12  N   UNL     1     -12.779  11.684  63.145  1.00  0.00    -0.848 N  
HETATM   13  O   UNL     1     -12.650  13.924  63.354  1.00  0.00    -0.853 OA 
HETATM   14  H1  UNL     1     -13.712  11.799  62.751  1.00  0.00     0.000 HD 
ENDBRANCH   3  10
ENDBRANCH   2   3
TORSDOF 3
ENDMDL
MODEL       15
REMARK 921   NORMALIZED FREE ENERGY PREDICTED BY IDOCK:   -4.29 KCAL/MOL
REMARK 922        TOTAL FREE ENERGY PREDICTED BY IDOCK:   -5.40 KCAL/MOL
REMARK 923 INTER-LIGAND FREE ENERGY PREDICTED BY IDOCK:   -5.14 KCAL/MOL
REMARK 924 INTRA-LIGAND FREE ENERGY PREDICTED BY IDOCK:   -0.25 KCAL/MOL
REMARK 927      BINDING AFFINITY PREDICTED BY RF-SCORE:    0.00 PKD
ROOT
HETATM    1  C   UNL     1     -11.961  12.321  63.955  1.00  0.00    -0.582 C  
HETATM    2  C   UNL     1     -11.985  13.840  64.070  1.00  0.00    -0.451 C  
ENDROOT
BRANCH   2   3
HETATM    3  C   UNL     1     -10.873  14.369  64.988  1.00  0.00    -0.407 C  
BRANCH   3   4
HETATM    4  N   UNL     1     -10.967  13.869  66.366  1.00  0.00    -0.301 N  
HETATM    5  O   UNL     1      -9.235  12.310  66.388  1.00  0.00    -0.227 OA 
HETATM    6  C   UNL     1     -12.138  14.111  67.170  1.00  0.00    -0.397 C  
HETATM    7  C   UNL     1     -10.166  12.887  66.929  1.00  0.00    -0.242 C  
HETATM    8  C   UNL     1     -10.719  12.560  68.295  1.00  0.00    -0.246 C  
HETATM    9  C   UNL     1     -11.678  13.714  68.557  1.00  0.00    -0.392 C  
ENDBRANCH   3   4
BRANCH   3  10
HETATM   10  C   UNL     1     -10.791  15.907  64.964  1.00  0.00    -0.426 C  
HETATM   11  H2  UNL     1      -9.519  15.940  66.622  1.00  0.00     0.000 HD 
HETATM   12  N   UNL     1     -10.018  16.493  65.923  1.00  0.00    -0.330 N  
HETATM   13  O   UNL     1     -11.407  16.593  64.152  1.00  0.00    -1.141 OA 
HETATM   14  H1  UNL     1      -9.964  17.511  65.907  1.00  0.00     0.000 HD 
ENDBRANCH   3  10
ENDBRANCH   2   3
TORSDOF 3
ENDMDL
MODEL       16
REMARK 921   NORMALIZED FREE ENERGY PREDICTED BY IDOCK:   -4.26 KCAL/MOL
REMARK 922        TOTAL FREE ENERGY PREDICTED BY IDOCK:   -5.37 KCAL/MOL
REMARK 923 INTER-LIGAND FREE ENERGY PREDICTED BY IDOCK:   -5.07 KCAL/MOL
REMARK 924 INTRA-LIGAND FREE ENERGY PREDICTED BY IDOCK:   -0.30 KCAL/MOL
REMARK 927      BINDING AFFINITY PREDICTED BY RF-SCORE:    0.00 PKD
ROOT
HETATM    1  C   UNL     1     -11.769  14.866  68.590  1.00  0.00    -0.358 C  
HETATM    2  C   UNL     1     -11.038  15.341  67.339  1.00  0.00    -0.326 C  
ENDROOT
BRANCH   2   3
HETATM    3  C   UNL     1     -11.625  14.730  66.058  1.00  0.00    -0.286 C  
BRANCH   3   4
HETATM    4  N   UNL     1     -11.086  13.400  65.745  1.00  0.00    -0.282 N  
HETATM    5  O   UNL     1     -12.943  12.394  64.759  1.00  0.00    -0.786 OA 
HETATM    6  C   UNL     1      -9.863  12.930  66.344  1.00  0.00    -0.268 C  
HETATM    7  C   UNL     1     -11.786  12.361  65.150  1.00  0.00    -0.388 C  
HETATM    8  C   UNL     1     -10.910  11.132  65.179  1.00  0.00    -0.229 C  
HETATM    9  C   UNL     1      -9.539  11.702  65.520  1.00  0.00    -0.241 C  
ENDBRANCH   3   4
BRANCH   3  10
HETATM   10  C   UNL     1     -11.485  15.680  64.853  1.00  0.00    -0.245 C  
HETATM   11  H2  UNL     1     -12.867  14.583  63.733  1.00  0.00     0.000 HD 
HETATM   12  N   UNL     1     -12.241  15.389  63.755  1.00  0.00    -0.955 N  
HETATM   13  O   UNL     1     -10.715  16.637  64.846  1.00  0.00    -0.710 OA 
HETATM   14  H1  UNL     1     -12.148  16.017  62.957  1.00  0.00     0.000 HD 
ENDBRANCH   3  10
ENDBRANCH   2   3
TORSDOF 3
ENDMDL
MODEL       17
REMARK 921   NORMALIZED FREE ENERGY PREDICTED BY IDOCK:   -4.20 KCAL/MOL
REMARK 922        TOTAL FREE ENERGY PREDICTED BY IDOCK:   -5.29 KCAL/MOL
REMARK 923 INTER-LIGAND FREE ENERGY PREDICTED BY IDOCK:   -5.02 KCAL/MOL
REMARK 924 INTRA-LIGAND FREE ENERGY PREDICTED BY IDOCK:   -0.28 KCAL/MOL
REMARK 927      BINDING AFFINITY PREDICTED BY RF-SCORE:    0.00 PKD
ROOT
HETATM    1  C   UNL     1      -9.029  16.030  66.156  1.00  0.00    -0.381 C  
HETATM    2  C   UNL     1     -10.464  15.519  66.082  1.00  0.00    -0.323 C  
ENDROOT
BRANCH   2   3
HETATM    3  C   UNL     1     -10.559  14.015  66.379  1.00  0.00    -0.280 C  
BRANCH   3   4
HETATM    4  N   UNL     1     -11.061  13.227  65.246  1.00  0.00    -0.285 N  
HETATM    5  O   UNL     1     -13.243  14.030  65.084  1.00  0.00    -0.768 OA 
HETATM    6  C   UNL     1     -10.364  12.053  64.784  1.00  0.00    -0.280 C  
HETATM    7  C   UNL     1     -12.342  13.290  64.719  1.00  0.00    -0.402 C  
HETATM    8  C   UNL     1     -12.477  12.194  63.690  1.00  0.00    -0.658 C  
HETATM    9  C   UNL     1     -11.033  11.768  63.457  1.00  0.00    -0.499 C  
ENDBRANCH   3   4
BRANCH   3  10
HETATM   10  C   UNL     1     -11.378  13.732  67.653  1.00  0.00    -0.304 C  
HETATM   11  H2  UNL     1     -12.372  15.565  67.510  1.00  0.00     0.000 HD 
HETATM   12  N   UNL     1     -12.260  14.699  68.039  1.00  0.00    -0.601 N  
HETATM   13  O   UNL     1     -11.236  12.712  68.322  1.00  0.00    -0.237 OA 
HETATM   14  H1  UNL     1     -12.801  14.512  68.882  1.00  0.00     0.000 HD 
ENDBRANCH   3  10
ENDBRANCH   2   3
TORSDOF 3
ENDMDL
MODEL       18
REMARK 921   NORMALIZED FREE ENERGY PREDICTED BY IDOCK:   -4.16 KCAL/MOL
REMARK 922        TOTAL FREE ENERGY PREDICTED BY IDOCK:   -5.24 KCAL/MOL
REMARK 923 INTER-LIGAND FREE ENERGY PREDICTED BY IDOCK:   -5.04 KCAL/MOL
REMARK 924 INTRA-LIGAND FREE ENERGY PREDICTED BY IDOCK:   -0.21 KCAL/MOL
REMARK 927      BINDING AFFINITY PREDICTED BY RF-SCORE:    0.00 PKD
ROOT
HETATM    1  C   UNL     1     -12.395  12.060  63.802  1.00  0.00    -0.602 C  
HETATM    2  C   UNL     1     -12.599  13.141  64.857  1.00  0.00    -0.468 C  
ENDROOT
BRANCH   2   3
HETATM    3  C   UNL     1     -11.314  13.428  65.648  1.00  0.00    -0.298 C  
BRANCH   3   4
HETATM    4  N   UNL     1     -11.506  13.399  67.104  1.00  0.00    -0.322 N  
HETATM    5  O   UNL     1     -11.636  11.104  67.485  1.00  0.00    -0.526 OA 
HETATM    6  C   UNL     1     -11.894  14.582  67.830  1.00  0.00    -0.336 C  
HETATM    7  C   UNL     1     -11.667  12.260  67.878  1.00  0.00    -0.347 C  
HETATM    8  C   UNL     1     -12.011  12.694  69.282  1.00  0.00    -0.301 C  
HETATM    9  C   UNL     1     -11.665  14.178  69.271  1.00  0.00    -0.368 C  
ENDBRANCH   3   4
BRANCH   3  10
HETATM   10  C   UNL     1     -10.649  14.746  65.205  1.00  0.00    -0.395 C  
HETATM   11  H2  UNL     1     -12.245  15.211  63.938  1.00  0.00     0.000 HD 
HETATM   12  N   UNL     1     -11.337  15.503  64.302  1.00  0.00    -0.743 N  
HETATM   13  O   UNL     1      -9.544  15.101  65.606  1.00  0.00    -0.334 OA 
HETATM   14  H1  UNL     1     -10.897  16.374  64.008  1.00  0.00     0.000 HD 
ENDBRANCH   3  10
ENDBRANCH   2   3
TORSDOF 3
ENDMDL
MODEL       19
REMARK 921   NORMALIZED FREE ENERGY PREDICTED BY IDOCK:   -4.06 KCAL/MOL
REMARK 922        TOTAL FREE ENERGY PREDICTED BY IDOCK:   -5.13 KCAL/MOL
REMARK 923 INTER-LIGAND FREE ENERGY PREDICTED BY IDOCK:   -4.90 KCAL/MOL
REMARK 924 INTRA-LIGAND FREE ENERGY PREDICTED BY IDOCK:   -0.23 KCAL/MOL
REMARK 927      BINDING AFFINITY PREDICTED BY RF-SCORE:    0.00 PKD
ROOT
HETATM    1  C   UNL     1      -9.301  15.629  66.524  1.00  0.00    -0.305 C  
HETATM    2  C   UNL     1     -10.091  15.132  65.319  1.00  0.00    -0.365 C  
ENDROOT
BRANCH   2   3
HETATM    3  C   UNL     1     -11.127  14.065  65.705  1.00  0.00    -0.305 C  
BRANCH   3   4
HETATM    4  N   UNL     1     -10.639  12.691  65.537  1.00  0.00    -0.270 N  
HETATM    5  O   UNL     1     -10.862  12.424  63.233  1.00  0.00    -0.432 OA 
HETATM    6  C   UNL     1     -10.505  11.802  66.663  1.00  0.00    -0.224 C  
HETATM    7  C   UNL     1     -10.568  11.996  64.339  1.00  0.00    -0.318 C  
HETATM    8  C   UNL     1     -10.180  10.571  64.648  1.00  0.00    -0.364 C  
HETATM    9  C   UNL     1      -9.698  10.656  66.090  1.00  0.00    -0.253 C  
ENDBRANCH   3   4
BRANCH   3  10
HETATM   10  C   UNL     1     -12.465  14.271  64.969  1.00  0.00    -0.400 C  
HETATM   11  H2  UNL     1     -11.562  15.461  63.508  1.00  0.00     0.000 HD 
HETATM   12  N   UNL     1     -12.430  15.042  63.844  1.00  0.00    -1.043 N  
HETATM   13  O   UNL     1     -13.525  13.802  65.374  1.00  0.00    -0.620 OA 
HETATM   14  H1  UNL     1     -13.315  15.178  63.357  1.00  0.00     0.000 HD 
ENDBRANCH   3  10
ENDBRANCH   2   3
TORSDOF 3
ENDMDL
MODEL       20
REMARK 921   NORMALIZED FREE ENERGY PREDICTED BY IDOCK:   -4.02 KCAL/MOL
REMARK 922        TOTAL FREE ENERGY PREDICTED BY IDOCK:   -5.09 KCAL/MOL
REMARK 923 INTER-LIGAND FREE ENERGY PREDICTED BY IDOCK:   -4.79 KCAL/MOL
REMARK 924 INTRA-LIGAND FREE ENERGY PREDICTED BY IDOCK:   -0.30 KCAL/MOL
REMARK 927      BINDING AFFINITY PREDICTED BY RF-SCORE:    0.00 PKD
ROOT
HETATM    1  C   UNL     1     -12.601  12.082  63.402  1.00  0.00    -0.592 C  
HETATM    2  C   UNL     1     -12.136  12.974  64.548  1.00  0.00    -0.468 C  
ENDROOT
BRANCH   2   3
HETATM    3  C   UNL     1     -11.664  12.158  65.761  1.00  0.00    -0.327 C  
BRANCH   3   4
HETATM    4  N   UNL     1     -11.674  12.920  67.016  1.00  0.00    -0.371 N  
HETATM    5  O   UNL     1     -12.050  11.217  68.562  1.00  0.00    -0.586 OA 
HETATM    6  C   UNL     1     -11.811  14.354  67.019  1.00  0.00    -0.412 C  
HETATM    7  C   UNL     1     -11.882  12.394  68.283  1.00  0.00    -0.309 C  
HETATM    8  C   UNL     1     -11.988  13.544  69.254  1.00  0.00    -0.378 C  
HETATM    9  C   UNL     1     -11.458  14.721  68.444  1.00  0.00    -0.336 C  
ENDBRANCH   3   4
BRANCH   3  10
HETATM   10  C   UNL     1     -10.285  11.514  65.518  1.00  0.00    -0.258 C  
HETATM   11  H2  UNL     1      -9.296  13.318  65.880  1.00  0.00     0.000 HD 
HETATM   12  N   UNL     1      -9.200  12.331  65.639  1.00  0.00    -0.438 N  
HETATM   13  O   UNL     1     -10.149  10.336  65.197  1.00  0.00    -0.310 OA 
HETATM   14  H1  UNL     1      -8.288  11.905  65.478  1.00  0.00     0.000 HD 
ENDBRANCH   3  10
ENDBRANCH   2   3
TORSDOF 3
ENDMDL
MODEL       21
REMARK 921   NORMALIZED FREE ENERGY PREDICTED BY IDOCK:   -4.01 KCAL/MOL
REMARK 922        TOTAL FREE ENERGY PREDICTED BY IDOCK:   -5.07 KCAL/MOL
REMARK 923 INTER-LIGAND FREE ENERGY PREDICTED BY IDOCK:   -4.80 KCAL/MOL
REMARK 924 INTRA-LIGAND FREE ENERGY PREDICTED BY IDOCK:   -0.27 KCAL/MOL
REMARK 927      BINDING AFFINITY PREDICTED BY RF-SCORE:    0.00 PKD
ROOT
HETATM    1  C   UNL     1      -9.730   9.726  65.595  1.00  0.00    -0.357 C  
HETATM    2  C   UNL     1      -9.719  11.034  66.378  1.00  0.00    -0.235 C  
ENDROOT
BRANCH   2   3
HETATM    3  C   UNL     1     -11.129  11.622  66.543  1.00  0.00    -0.301 C  
BRANCH   3   4
HETATM    4  N   UNL     1     -11.287  12.943  65.921  1.00  0.00    -0.301 N  
HETATM    5  O   UNL     1     -13.263  12.634  64.725  1.00  0.00    -0.846 OA 
HETATM    6  C   UNL     1     -10.193  13.879  65.868  1.00  0.00    -0.315 C  
HETATM    7  C   UNL     1     -12.312  13.320  65.067  1.00  0.00    -0.448 C  
HETATM    8  C   UNL     1     -11.989  14.693  64.528  1.00  0.00    -0.473 C  
HETATM    9  C   UNL     1     -10.874  15.165  65.453  1.00  0.00    -0.393 C  
ENDBRANCH   3   4
BRANCH   3  10
HETATM   10  C   UNL     1     -11.570  11.649  68.019  1.00  0.00    -0.313 C  
HETATM   11  H2  UNL     1     -11.411   9.572  68.182  1.00  0.00     0.000 HD 
HETATM   12  N   UNL     1     -11.640  10.445  68.657  1.00  0.00    -0.510 N  
HETATM   13  O   UNL     1     -11.880  12.685  68.601  1.00  0.00    -0.305 OA 
HETATM   14  H1  UNL     1     -11.932  10.464  69.634  1.00  0.00     0.000 HD 
ENDBRANCH   3  10
ENDBRANCH   2   3
TORSDOF 3
ENDMDL
MODEL       22
REMARK 921   NORMALIZED FREE ENERGY PREDICTED BY IDOCK:   -4.00 KCAL/MOL
REMARK 922        TOTAL FREE ENERGY PREDICTED BY IDOCK:   -5.06 KCAL/MOL
REMARK 923 INTER-LIGAND FREE ENERGY PREDICTED BY IDOCK:   -4.96 KCAL/MOL
REMARK 924 INTRA-LIGAND FREE ENERGY PREDICTED BY IDOCK:   -0.11 KCAL/MOL
REMARK 927      BINDING AFFINITY PREDICTED BY RF-SCORE:    0.00 PKD
ROOT
HETATM    1  C   UNL     1     -10.396  16.153  66.497  1.00  0.00    -0.311 C  
HETATM    2  C   UNL     1     -10.616  15.087  65.429  1.00  0.00    -0.398 C  
ENDROOT
BRANCH   2   3
HETATM    3  C   UNL     1     -11.689  14.068  65.841  1.00  0.00    -0.366 C  
BRANCH   3   4
HETATM    4  N   UNL     1     -11.163  12.965  66.655  1.00  0.00    -0.292 N  
HETATM    5  O   UNL     1      -9.894  11.816  65.073  1.00  0.00    -0.246 OA 
HETATM    6  C   UNL     1     -11.735  12.644  67.938  1.00  0.00    -0.358 C  
HETATM    7  C   UNL     1     -10.341  11.943  66.203  1.00  0.00    -0.226 C  
HETATM    8  C   UNL     1     -10.190  10.938  67.319  1.00  0.00    -0.242 C  
HETATM    9  C   UNL     1     -10.715  11.696  68.531  1.00  0.00    -0.250 C  
ENDBRANCH   3   4
BRANCH   3  10
HETATM   10  C   UNL     1     -12.469  13.534  64.624  1.00  0.00    -0.323 C  
HETATM   11  H2  UNL     1     -11.586  14.934  63.349  1.00  0.00     0.000 HD 
HETATM   12  N   UNL     1     -12.240  14.155  63.432  1.00  0.00    -1.099 N  
HETATM   13  O   UNL     1     -13.285  12.619  64.707  1.00  0.00    -0.846 OA 
HETATM   14  H1  UNL     1     -12.757  13.802  62.627  1.00  0.00     0.000 HD 
ENDBRANCH   3  10
ENDBRANCH   2   3
TORSDOF 3
ENDMDL
MODEL       23
REMARK 921   NORMALIZED FREE ENERGY PREDICTED BY IDOCK:   -3.99 KCAL/MOL
REMARK 922        TOTAL FREE ENERGY PREDICTED BY IDOCK:   -5.05 KCAL/MOL
REMARK 923 INTER-LIGAND FREE ENERGY PREDICTED BY IDOCK:   -4.94 KCAL/MOL
REMARK 924 INTRA-LIGAND FREE ENERGY PREDICTED BY IDOCK:   -0.11 KCAL/MOL
REMARK 927      BINDING AFFINITY PREDICTED BY RF-SCORE:    0.00 PKD
ROOT
HETATM    1  C   UNL     1     -10.512  19.224  67.408  1.00  0.00    -0.564 C  
HETATM    2  C   UNL     1     -10.473  17.706  67.545  1.00  0.00    -0.365 C  
ENDROOT
BRANCH   2   3
HETATM    3  C   UNL     1      -9.969  17.022  66.265  1.00  0.00    -0.310 C  
BRANCH   3   4
HETATM    4  N   UNL     1     -10.766  15.852  65.876  1.00  0.00    -0.317 N  
HETATM    5  O   UNL     1     -11.447  16.477  63.736  1.00  0.00    -1.065 OA 
HETATM    6  C   UNL     1     -11.213  14.892  66.854  1.00  0.00    -0.343 C  
HETATM    7  C   UNL     1     -11.439  15.693  64.673  1.00  0.00    -0.303 C  
HETATM    8  C   UNL     1     -12.268  14.435  64.765  1.00  0.00    -0.458 C  
HETATM    9  C   UNL     1     -11.696  13.743  65.996  1.00  0.00    -0.383 C  
ENDBRANCH   3   4
BRANCH   3  10
HETATM   10  C   UNL     1      -8.473  16.665  66.357  1.00  0.00    -0.313 C  
HETATM   11  H2  UNL     1      -7.902  18.634  65.952  1.00  0.00     0.000 HD 
HETATM   12  N   UNL     1      -7.588  17.684  66.154  1.00  0.00    -0.291 N  
HETATM   13  O   UNL     1      -8.074  15.523  66.568  1.00  0.00    -0.225 OA 
HETATM   14  H1  UNL     1      -6.599  17.447  66.215  1.00  0.00     0.000 HD 
ENDBRANCH   3  10
ENDBRANCH   2   3
TORSDOF 3
ENDMDL
MODEL       24
REMARK 921   NORMALIZED FREE ENERGY PREDICTED BY IDOCK:   -3.93 KCAL/MOL
REMARK 922        TOTAL FREE ENERGY PREDICTED BY IDOCK:   -4.98 KCAL/MOL
REMARK 923 INTER-LIGAND FREE ENERGY PREDICTED BY IDOCK:   -4.66 KCAL/MOL
REMARK 924 INTRA-LIGAND FREE ENERGY PREDICTED BY IDOCK:   -0.32 KCAL/MOL
REMARK 927      BINDING AFFINITY PREDICTED BY RF-SCORE:    0.00 PKD
ROOT
HETATM    1  C   UNL     1      -7.946  13.675  67.369  1.00  0.00    -0.177 C  
HETATM    2  C   UNL     1      -8.892  14.833  67.071  1.00  0.00    -0.258 C  
ENDROOT
BRANCH   2   3
HETATM    3  C   UNL     1     -10.345  14.505  67.446  1.00  0.00    -0.252 C  
BRANCH   3   4
HETATM    4  N   UNL     1     -11.146  14.023  66.314  1.00  0.00    -0.304 N  
HETATM    5  O   UNL     1     -12.059  12.078  67.218  1.00  0.00    -0.572 OA 
HETATM    6  C   UNL     1     -10.945  14.537  64.983  1.00  0.00    -0.398 C  
HETATM    7  C   UNL     1     -11.904  12.862  66.294  1.00  0.00    -0.416 C  
HETATM    8  C   UNL     1     -12.413  12.661  64.887  1.00  0.00    -0.564 C  
HETATM    9  C   UNL     1     -12.154  14.015  64.237  1.00  0.00    -0.476 C  
ENDBRANCH   3   4
BRANCH   3  10
HETATM   10  C   UNL     1     -11.038  15.690  68.147  1.00  0.00    -0.330 C  
HETATM   11  H2  UNL     1     -12.613  14.481  68.797  1.00  0.00     0.000 HD 
HETATM   12  N   UNL     1     -12.213  15.420  68.784  1.00  0.00    -0.593 N  
HETATM   13  O   UNL     1     -10.590  16.834  68.118  1.00  0.00    -0.319 OA 
HETATM   14  H1  UNL     1     -12.672  16.204  69.248  1.00  0.00     0.000 HD 
ENDBRANCH   3  10
ENDBRANCH   2   3
TORSDOF 3
ENDMDL
MODEL       25
REMARK 921   NORMALIZED FREE ENERGY PREDICTED BY IDOCK:   -3.90 KCAL/MOL
REMARK 922        TOTAL FREE ENERGY PREDICTED BY IDOCK:   -4.94 KCAL/MOL
REMARK 923 INTER-LIGAND FREE ENERGY PREDICTED BY IDOCK:   -4.65 KCAL/MOL
REMARK 924 INTRA-LIGAND FREE ENERGY PREDICTED BY IDOCK:   -0.28 KCAL/MOL
REMARK 927      BINDING AFFINITY PREDICTED BY RF-SCORE:    0.00 PKD
ROOT
HETATM    1  C   UNL     1      -9.059  13.937  66.727  1.00  0.00    -0.238 C  
HETATM    2  C   UNL     1      -8.986  15.220  67.549  1.00  0.00    -0.192 C  
ENDROOT
BRANCH   2   3
HETATM    3  C   UNL     1     -10.363  15.881  67.712  1.00  0.00    -0.278 C  
BRANCH   3   4
HETATM    4  N   UNL     1     -10.359  17.318  67.409  1.00  0.00    -0.330 N  
HETATM    5  O   UNL     1     -10.525  17.278  65.085  1.00  0.00    -0.656 OA 
HETATM    6  C   UNL     1      -9.942  18.288  68.390  1.00  0.00    -0.382 C  
HETATM    7  C   UNL     1     -10.421  17.880  66.143  1.00  0.00    -0.321 C  
HETATM    8  C   UNL     1     -10.211  19.368  66.282  1.00  0.00    -0.566 C  
HETATM    9  C   UNL     1     -10.392  19.597  67.777  1.00  0.00    -0.586 C  
ENDBRANCH   3   4
BRANCH   3  10
HETATM   10  C   UNL     1     -10.967  15.612  69.104  1.00  0.00    -0.259 C  
HETATM   11  H2  UNL     1      -9.129  14.965  69.859  1.00  0.00     0.000 HD 
HETATM   12  N   UNL     1     -10.116  15.135  70.057  1.00  0.00    -0.493 N  
HETATM   13  O   UNL     1     -12.158  15.779  69.355  1.00  0.00    -0.354 OA 
HETATM   14  H1  UNL     1     -10.516  14.956  70.977  1.00  0.00     0.000 HD 
ENDBRANCH   3  10
ENDBRANCH   2   3
TORSDOF 3
ENDMDL
MODEL       26
REMARK 921   NORMALIZED FREE ENERGY PREDICTED BY IDOCK:   -3.89 KCAL/MOL
REMARK 922        TOTAL FREE ENERGY PREDICTED BY IDOCK:   -4.94 KCAL/MOL
REMARK 923 INTER-LIGAND FREE ENERGY PREDICTED BY IDOCK:   -4.64 KCAL/MOL
REMARK 924 INTRA-LIGAND FREE ENERGY PREDICTED BY IDOCK:   -0.29 KCAL/MOL
REMARK 927      BINDING AFFINITY PREDICTED BY RF-SCORE:    0.00 PKD
ROOT
HETATM    1  C   UNL     1     -12.312  12.261  63.799  1.00  0.00    -0.637 C  
HETATM    2  C   UNL     1     -12.362  13.031  65.114  1.00  0.00    -0.536 C  
ENDROOT
BRANCH   2   3
HETATM    3  C   UNL     1     -11.043  12.928  65.896  1.00  0.00    -0.283 C  
BRANCH   3   4
HETATM    4  N   UNL     1     -10.701  11.553  66.283  1.00  0.00    -0.264 N  
HETATM    5  O   UNL     1     -12.118  11.243  68.107  1.00  0.00    -0.635 OA 
HETATM    6  C   UNL     1      -9.504  10.916  65.795  1.00  0.00    -0.211 C  
HETATM    7  C   UNL     1     -11.245  10.851  67.347  1.00  0.00    -0.273 C  
HETATM    8  C   UNL     1     -10.486   9.554  67.488  1.00  0.00    -0.336 C  
HETATM    9  C   UNL     1      -9.720   9.466  66.174  1.00  0.00    -0.334 C  
ENDBRANCH   3   4
BRANCH   3  10
HETATM   10  C   UNL     1     -11.026  13.866  67.118  1.00  0.00    -0.291 C  
HETATM   11  H2  UNL     1     -13.103  14.089  67.068  1.00  0.00     0.000 HD 
HETATM   12  N   UNL     1     -12.234  14.342  67.539  1.00  0.00    -0.619 N  
HETATM   13  O   UNL     1      -9.989  14.208  67.679  1.00  0.00    -0.228 OA 
HETATM   14  H1  UNL     1     -12.222  14.963  68.347  1.00  0.00     0.000 HD 
ENDBRANCH   3  10
ENDBRANCH   2   3
TORSDOF 3
ENDMDL
MODEL       27
REMARK 921   NORMALIZED FREE ENERGY PREDICTED BY IDOCK:   -3.88 KCAL/MOL
REMARK 922        TOTAL FREE ENERGY PREDICTED BY IDOCK:   -4.92 KCAL/MOL
REMARK 923 INTER-LIGAND FREE ENERGY PREDICTED BY IDOCK:   -4.74 KCAL/MOL
REMARK 924 INTRA-LIGAND FREE ENERGY PREDICTED BY IDOCK:   -0.17 KCAL/MOL
REMARK 927      BINDING AFFINITY PREDICTED BY RF-SCORE:    0.00 PKD
ROOT
HETATM    1  C   UNL     1     -11.965  12.785  63.546  1.00  0.00    -0.633 C  
HETATM    2  C   UNL     1     -10.909  12.912  64.638  1.00  0.00    -0.365 C  
ENDROOT
BRANCH   2   3
HETATM    3  C   UNL     1     -11.370  13.824  65.785  1.00  0.00    -0.304 C  
BRANCH   3   4
HETATM    4  N   UNL     1     -10.322  14.737  66.261  1.00  0.00    -0.287 N  
HETATM    5  O   UNL     1     -10.739  16.612  64.942  1.00  0.00    -0.710 OA 
HETATM    6  C   UNL     1      -9.204  14.254  67.031  1.00  0.00    -0.239 C  
HETATM    7  C   UNL     1     -10.091  16.021  65.792  1.00  0.00    -0.366 C  
HETATM    8  C   UNL     1      -8.818  16.528  66.426  1.00  0.00    -0.345 C  
HETATM    9  C   UNL     1      -8.583  15.532  67.554  1.00  0.00    -0.184 C  
ENDBRANCH   3   4
BRANCH   3  10
HETATM   10  C   UNL     1     -11.972  13.019  66.952  1.00  0.00    -0.352 C  
HETATM   11  H2  UNL     1     -12.165  14.732  68.132  1.00  0.00     0.000 HD 
HETATM   12  N   UNL     1     -12.306  13.724  68.071  1.00  0.00    -0.392 N  
HETATM   13  O   UNL     1     -12.123  11.801  66.912  1.00  0.00    -0.566 OA 
HETATM   14  H1  UNL     1     -12.705  13.191  68.844  1.00  0.00     0.000 HD 
ENDBRANCH   3  10
ENDBRANCH   2   3
TORSDOF 3
ENDMDL
MODEL       28
REMARK 921   NORMALIZED FREE ENERGY PREDICTED BY IDOCK:   -3.88 KCAL/MOL
REMARK 922        TOTAL FREE ENERGY PREDICTED BY IDOCK:   -4.92 KCAL/MOL
REMARK 923 INTER-LIGAND FREE ENERGY PREDICTED BY IDOCK:   -4.82 KCAL/MOL
REMARK 924 INTRA-LIGAND FREE ENERGY PREDICTED BY IDOCK:   -0.10 KCAL/MOL
REMARK 927      BINDING AFFINITY PREDICTED BY RF-SCORE:    0.00 PKD
ROOT
HETATM    1  C   UNL     1     -12.561  12.086  63.484  1.00  0.00    -0.625 C  
HETATM    2  C   UNL     1     -12.111  13.531  63.672  1.00  0.00    -0.459 C  
ENDROOT
BRANCH   2   3
HETATM    3  C   UNL     1     -10.864  13.637  64.562  1.00  0.00    -0.406 C  
BRANCH   3   4
HETATM    4  N   UNL     1     -10.914  12.765  65.743  1.00  0.00    -0.272 N  
HETATM    5  O   UNL     1     -12.532  13.850  67.023  1.00  0.00    -0.323 OA 
HETATM    6  C   UNL     1      -9.873  11.805  66.007  1.00  0.00    -0.232 C  
HETATM    7  C   UNL     1     -11.716  12.955  66.858  1.00  0.00    -0.382 C  
HETATM    8  C   UNL     1     -11.321  11.933  67.897  1.00  0.00    -0.358 C  
HETATM    9  C   UNL     1     -10.479  10.947  67.097  1.00  0.00    -0.281 C  
ENDBRANCH   3   4
BRANCH   3  10
HETATM   10  C   UNL     1     -10.569  15.095  64.965  1.00  0.00    -0.413 C  
HETATM   11  H2  UNL     1     -11.932  15.835  63.564  1.00  0.00     0.000 HD 
HETATM   12  N   UNL     1     -11.257  16.064  64.294  1.00  0.00    -0.735 N  
HETATM   13  O   UNL     1      -9.738  15.395  65.818  1.00  0.00    -0.329 OA 
HETATM   14  H1  UNL     1     -11.061  17.029  64.560  1.00  0.00     0.000 HD 
ENDBRANCH   3  10
ENDBRANCH   2   3
TORSDOF 3
ENDMDL
MODEL       29
REMARK 921   NORMALIZED FREE ENERGY PREDICTED BY IDOCK:   -3.87 KCAL/MOL
REMARK 922        TOTAL FREE ENERGY PREDICTED BY IDOCK:   -4.91 KCAL/MOL
REMARK 923 INTER-LIGAND FREE ENERGY PREDICTED BY IDOCK:   -4.61 KCAL/MOL
REMARK 924 INTRA-LIGAND FREE ENERGY PREDICTED BY IDOCK:   -0.31 KCAL/MOL
REMARK 927      BINDING AFFINITY PREDICTED BY RF-SCORE:    0.00 PKD
ROOT
HETATM    1  C   UNL     1     -10.190  15.493  67.894  1.00  0.00    -0.238 C  
HETATM    2  C   UNL     1     -11.430  14.637  67.669  1.00  0.00    -0.364 C  
ENDROOT
BRANCH   2   3
HETATM    3  C   UNL     1     -11.076  13.171  67.374  1.00  0.00    -0.275 C  
BRANCH   3   4
HETATM    4  N   UNL     1     -11.393  12.759  66.001  1.00  0.00    -0.306 N  
HETATM    5  O   UNL     1      -9.441  11.628  65.418  1.00  0.00    -0.224 OA 
HETATM    6  C   UNL     1     -12.489  13.353  65.276  1.00  0.00    -0.483 C  
HETATM    7  C   UNL     1     -10.555  12.052  65.152  1.00  0.00    -0.288 C  
HETATM    8  C   UNL     1     -11.206  12.000  63.791  1.00  0.00    -0.516 C  
HETATM    9  C   UNL     1     -12.636  12.434  64.083  1.00  0.00    -0.498 C  
ENDBRANCH   3   4
BRANCH   3  10
HETATM   10  C   UNL     1     -11.708  12.211  68.399  1.00  0.00    -0.332 C  
HETATM   11  H2  UNL     1     -11.194  13.457  69.995  1.00  0.00     0.000 HD 
HETATM   12  N   UNL     1     -11.641  12.586  69.709  1.00  0.00    -0.471 N  
HETATM   13  O   UNL     1     -12.222  11.142  68.080  1.00  0.00    -0.612 OA 
HETATM   14  H1  UNL     1     -12.059  11.950  70.388  1.00  0.00     0.000 HD 
ENDBRANCH   3  10
ENDBRANCH   2   3
TORSDOF 3
ENDMDL
MODEL       30
REMARK 921   NORMALIZED FREE ENERGY PREDICTED BY IDOCK:   -3.80 KCAL/MOL
REMARK 922        TOTAL FREE ENERGY PREDICTED BY IDOCK:   -4.83 KCAL/MOL
REMARK 923 INTER-LIGAND FREE ENERGY PREDICTED BY IDOCK:   -4.74 KCAL/MOL
REMARK 924 INTRA-LIGAND FREE ENERGY PREDICTED BY IDOCK:   -0.09 KCAL/MOL
REMARK 927      BINDING AFFINITY PREDICTED BY RF-SCORE:    0.00 PKD
ROOT
HETATM    1  C   UNL     1     -12.481  12.176  63.544  1.00  0.00    -0.666 C  
HETATM    2  C   UNL     1     -12.535  12.696  64.976  1.00  0.00    -0.556 C  
ENDROOT
BRANCH   2   3
HETATM    3  C   UNL     1     -11.494  12.015  65.878  1.00  0.00    -0.333 C  
BRANCH   3   4
HETATM    4  N   UNL     1     -11.624  12.379  67.295  1.00  0.00    -0.352 N  
HETATM    5  O   UNL     1     -11.806  14.697  67.139  1.00  0.00    -0.391 OA 
HETATM    6  C   UNL     1     -11.287  11.446  68.341  1.00  0.00    -0.281 C  
HETATM    7  C   UNL     1     -11.747  13.667  67.793  1.00  0.00    -0.362 C  
HETATM    8  C   UNL     1     -11.673  13.595  69.299  1.00  0.00    -0.376 C  
HETATM    9  C   UNL     1     -11.859  12.108  69.576  1.00  0.00    -0.386 C  
ENDBRANCH   3   4
BRANCH   3  10
HETATM   10  C   UNL     1     -10.057  12.251  65.376  1.00  0.00    -0.269 C  
HETATM   11  H2  UNL     1     -10.322  14.324  65.366  1.00  0.00     0.000 HD 
HETATM   12  N   UNL     1      -9.683  13.549  65.185  1.00  0.00    -0.555 N  
HETATM   13  O   UNL     1      -9.282  11.333  65.122  1.00  0.00    -0.210 OA 
HETATM   14  H1  UNL     1      -8.732  13.705  64.853  1.00  0.00     0.000 HD 
ENDBRANCH   3  10
ENDBRANCH   2   3
TORSDOF 3
ENDMDL
MODEL       31
REMARK 921   NORMALIZED FREE ENERGY PREDICTED BY IDOCK:   -3.79 KCAL/MOL
REMARK 922        TOTAL FREE ENERGY PREDICTED BY IDOCK:   -4.82 KCAL/MOL
REMARK 923 INTER-LIGAND FREE ENERGY PREDICTED BY IDOCK:   -4.54 KCAL/MOL
REMARK 924 INTRA-LIGAND FREE ENERGY PREDICTED BY IDOCK:   -0.28 KCAL/MOL
REMARK 927      BINDING AFFINITY PREDICTED BY RF-SCORE:    0.00 PKD
ROOT
HETATM    1  C   UNL     1     -10.356  14.651  65.020  1.00  0.00    -0.432 C  
HETATM    2  C   UNL     1      -9.617  15.400  66.123  1.00  0.00    -0.362 C  
ENDROOT
BRANCH   2   3
HETATM    3  C   UNL     1     -10.568  16.239  66.990  1.00  0.00    -0.284 C  
BRANCH   3   4
HETATM    4  N   UNL     1     -10.047  17.576  67.302  1.00  0.00    -0.316 N  
HETATM    5  O   UNL     1     -10.729  18.765  65.417  1.00  0.00    -0.556 OA 
HETATM    6  C   UNL     1      -9.063  17.772  68.337  1.00  0.00    -0.278 C  
HETATM    7  C   UNL     1     -10.155  18.698  66.494  1.00  0.00    -0.394 C  
HETATM    8  C   UNL     1      -9.332  19.801  67.114  1.00  0.00    -0.458 C  
HETATM    9  C   UNL     1      -9.065  19.275  68.518  1.00  0.00    -0.425 C  
ENDBRANCH   3   4
BRANCH   3  10
HETATM   10  C   UNL     1     -10.981  15.494  68.274  1.00  0.00    -0.305 C  
HETATM   11  H2  UNL     1     -12.703  16.660  68.485  1.00  0.00     0.000 HD 
HETATM   12  N   UNL     1     -12.139  15.901  68.870  1.00  0.00    -0.498 N  
HETATM   13  O   UNL     1     -10.302  14.600  68.772  1.00  0.00    -0.235 OA 
HETATM   14  H1  UNL     1     -12.412  15.408  69.720  1.00  0.00     0.000 HD 
ENDBRANCH   3  10
ENDBRANCH   2   3
TORSDOF 3
ENDMDL
MODEL       32
REMARK 921   NORMALIZED FREE ENERGY PREDICTED BY IDOCK:   -3.79 KCAL/MOL
REMARK 922        TOTAL FREE ENERGY PREDICTED BY IDOCK:   -4.82 KCAL/MOL
REMARK 923 INTER-LIGAND FREE ENERGY PREDICTED BY IDOCK:   -4.53 KCAL/MOL
REMARK 924 INTRA-LIGAND FREE ENERGY PREDICTED BY IDOCK:   -0.29 KCAL/MOL
REMARK 927      BINDING AFFINITY PREDICTED BY RF-SCORE:    0.00 PKD
ROOT
HETATM    1  C   UNL     1      -9.520  16.347  66.513  1.00  0.00    -0.296 C  
HETATM    2  C   UNL     1     -10.897  15.693  66.501  1.00  0.00    -0.260 C  
ENDROOT
BRANCH   2   3
HETATM    3  C   UNL     1     -10.818  14.172  66.700  1.00  0.00    -0.299 C  
BRANCH   3   4
HETATM    4  N   UNL     1     -11.046  13.410  65.465  1.00  0.00    -0.281 N  
HETATM    5  O   UNL     1      -9.450  11.726  65.688  1.00  0.00    -0.231 OA 
HETATM    6  C   UNL     1     -11.804  13.965  64.373  1.00  0.00    -0.429 C  
HETATM    7  C   UNL     1     -10.341  12.284  65.066  1.00  0.00    -0.291 C  
HETATM    8  C   UNL     1     -10.779  11.932  63.665  1.00  0.00    -0.502 C  
HETATM    9  C   UNL     1     -12.045  12.761  63.488  1.00  0.00    -0.642 C  
ENDBRANCH   3   4
BRANCH   3  10
HETATM   10  C   UNL     1     -11.753  13.691  67.826  1.00  0.00    -0.362 C  
HETATM   11  H2  UNL     1     -12.121  15.649  68.458  1.00  0.00     0.000 HD 
HETATM   12  N   UNL     1     -12.312  14.658  68.610  1.00  0.00    -0.593 N  
HETATM   13  O   UNL     1     -11.973  12.503  68.046  1.00  0.00    -0.342 OA 
HETATM   14  H1  UNL     1     -12.931  14.340  69.355  1.00  0.00     0.000 HD 
ENDBRANCH   3  10
ENDBRANCH   2   3
TORSDOF 3
ENDMDL
MODEL       33
REMARK 921   NORMALIZED FREE ENERGY PREDICTED BY IDOCK:   -3.78 KCAL/MOL
REMARK 922        TOTAL FREE ENERGY PREDICTED BY IDOCK:   -4.81 KCAL/MOL
REMARK 923 INTER-LIGAND FREE ENERGY PREDICTED BY IDOCK:   -4.55 KCAL/MOL
REMARK 924 INTRA-LIGAND FREE ENERGY PREDICTED BY IDOCK:   -0.26 KCAL/MOL
REMARK 927      BINDING AFFINITY PREDICTED BY RF-SCORE:    0.00 PKD
ROOT
HETATM    1  C   UNL     1     -11.744  15.120  68.836  1.00  0.00    -0.357 C  
HETATM    2  C   UNL     1     -10.942  14.369  67.779  1.00  0.00    -0.283 C  
ENDROOT
BRANCH   2   3
HETATM    3  C   UNL     1     -11.819  13.406  66.963  1.00  0.00    -0.394 C  
BRANCH   3   4
HETATM    4  N   UNL     1     -11.232  12.069  66.813  1.00  0.00    -0.305 N  
HETATM    5  O   UNL     1     -12.163  10.971  68.645  1.00  0.00    -0.571 OA 
HETATM    6  C   UNL     1     -10.102  11.841  65.948  1.00  0.00    -0.234 C  
HETATM    7  C   UNL     1     -11.437  10.992  67.663  1.00  0.00    -0.224 C  
HETATM    8  C   UNL     1     -10.511   9.879  67.239  1.00  0.00    -0.319 C  
HETATM    9  C   UNL     1     -10.048  10.331  65.860  1.00  0.00    -0.319 C  
ENDBRANCH   3   4
BRANCH   3  10
HETATM   10  C   UNL     1     -12.200  13.999  65.593  1.00  0.00    -0.442 C  
HETATM   11  H2  UNL     1     -10.562  15.297  65.615  1.00  0.00     0.000 HD 
HETATM   12  N   UNL     1     -11.384  14.976  65.102  1.00  0.00    -0.372 N  
HETATM   13  O   UNL     1     -13.201  13.650  64.973  1.00  0.00    -0.729 OA 
HETATM   14  H1  UNL     1     -11.636  15.368  64.195  1.00  0.00     0.000 HD 
ENDBRANCH   3  10
ENDBRANCH   2   3
TORSDOF 3
ENDMDL
MODEL       34
REMARK 921   NORMALIZED FREE ENERGY PREDICTED BY IDOCK:   -3.77 KCAL/MOL
REMARK 922        TOTAL FREE ENERGY PREDICTED BY IDOCK:   -4.78 KCAL/MOL
REMARK 923 INTER-LIGAND FREE ENERGY PREDICTED BY IDOCK:   -4.54 KCAL/MOL
REMARK 924 INTRA-LIGAND FREE ENERGY PREDICTED BY IDOCK:   -0.25 KCAL/MOL
REMARK 927      BINDING AFFINITY PREDICTED BY RF-SCORE:    0.00 PKD
ROOT
HETATM    1  C   UNL     1      -8.669   8.115  73.052  1.00  0.00    -0.309 C  
HETATM    2  C   UNL     1     -10.182   7.930  73.044  1.00  0.00    -0.394 C  
ENDROOT
BRANCH   2   3
HETATM    3  C   UNL     1     -10.769   8.020  71.628  1.00  0.00    -0.232 C  
BRANCH   3   4
HETATM    4  N   UNL     1     -11.466   9.286  71.365  1.00  0.00    -0.339 N  
HETATM    5  O   UNL     1     -13.367   9.025  72.687  1.00  0.00    -0.458 OA 
HETATM    6  C   UNL     1     -11.100  10.123  70.250  1.00  0.00    -0.317 C  
HETATM    7  C   UNL     1     -12.691   9.663  71.894  1.00  0.00    -0.411 C  
HETATM    8  C   UNL     1     -13.113  10.949  71.226  1.00  0.00    -0.405 C  
HETATM    9  C   UNL     1     -11.830  11.415  70.550  1.00  0.00    -0.394 C  
ENDBRANCH   3   4
BRANCH   3  10
HETATM   10  C   UNL     1     -11.673   6.815  71.303  1.00  0.00    -0.336 C  
HETATM   11  H2  UNL     1     -12.138   6.527  73.320  1.00  0.00     0.000 HD 
HETATM   12  N   UNL     1     -12.277   6.203  72.362  1.00  0.00    -0.532 N  
HETATM   13  O   UNL     1     -11.829   6.389  70.162  1.00  0.00    -0.409 OA 
HETATM   14  H1  UNL     1     -12.875   5.405  72.148  1.00  0.00     0.000 HD 
ENDBRANCH   3  10
ENDBRANCH   2   3
TORSDOF 3
ENDMDL
MODEL       35
REMARK 921   NORMALIZED FREE ENERGY PREDICTED BY IDOCK:   -3.75 KCAL/MOL
REMARK 922        TOTAL FREE ENERGY PREDICTED BY IDOCK:   -4.77 KCAL/MOL
REMARK 923 INTER-LIGAND FREE ENERGY PREDICTED BY IDOCK:   -4.36 KCAL/MOL
REMARK 924 INTRA-LIGAND FREE ENERGY PREDICTED BY IDOCK:   -0.40 KCAL/MOL
REMARK 927      BINDING AFFINITY PREDICTED BY RF-SCORE:    0.00 PKD
ROOT
HETATM    1  C   UNL     1      -8.523   9.458  70.346  1.00  0.00    -0.247 C  
HETATM    2  C   UNL     1      -9.851   8.751  70.592  1.00  0.00    -0.237 C  
ENDROOT
BRANCH   2   3
HETATM    3  C   UNL     1     -10.994   9.743  70.857  1.00  0.00    -0.341 C  
BRANCH   3   4
HETATM    4  N   UNL     1     -12.241   9.095  71.282  1.00  0.00    -0.317 N  
HETATM    5  O   UNL     1     -13.403  10.913  72.164  1.00  0.00    -0.443 OA 
HETATM    6  C   UNL     1     -12.336   7.662  71.403  1.00  0.00    -0.333 C  
HETATM    7  C   UNL     1     -13.310   9.723  71.904  1.00  0.00    -0.436 C  
HETATM    8  C   UNL     1     -14.297   8.660  72.322  1.00  0.00    -0.486 C  
HETATM    9  C   UNL     1     -13.826   7.437  71.544  1.00  0.00    -0.483 C  
ENDBRANCH   3   4
BRANCH   3  10
HETATM   10  C   UNL     1     -11.237  10.673  69.653  1.00  0.00    -0.289 C  
HETATM   11  H2  UNL     1     -11.316  12.363  70.880  1.00  0.00     0.000 HD 
HETATM   12  N   UNL     1     -11.373  12.003  69.927  1.00  0.00    -0.510 N  
HETATM   13  O   UNL     1     -11.340  10.258  68.502  1.00  0.00    -0.241 OA 
HETATM   14  H1  UNL     1     -11.534  12.619  69.130  1.00  0.00     0.000 HD 
ENDBRANCH   3  10
ENDBRANCH   2   3
TORSDOF 3
ENDMDL
MODEL       36
REMARK 921   NORMALIZED FREE ENERGY PREDICTED BY IDOCK:   -3.72 KCAL/MOL
REMARK 922        TOTAL FREE ENERGY PREDICTED BY IDOCK:   -4.73 KCAL/MOL
REMARK 923 INTER-LIGAND FREE ENERGY PREDICTED BY IDOCK:   -4.31 KCAL/MOL
REMARK 924 INTRA-LIGAND FREE ENERGY PREDICTED BY IDOCK:   -0.42 KCAL/MOL
REMARK 927      BINDING AFFINITY PREDICTED BY RF-SCORE:    0.00 PKD
ROOT
HETATM    1  C   UNL     1      -7.312  14.887  67.464  1.00  0.00    -0.229 C  
HETATM    2  C   UNL     1      -8.176  16.058  67.919  1.00  0.00    -0.154 C  
ENDROOT
BRANCH   2   3
HETATM    3  C   UNL     1      -9.445  16.207  67.065  1.00  0.00    -0.222 C  
BRANCH   3   4
HETATM    4  N   UNL     1      -9.843  17.604  66.850  1.00  0.00    -0.293 N  
HETATM    5  O   UNL     1     -10.972  17.431  64.818  1.00  0.00    -0.964 OA 
HETATM    6  C   UNL     1      -9.239  18.677  67.599  1.00  0.00    -0.281 C  
HETATM    7  C   UNL     1     -10.543  18.088  65.755  1.00  0.00    -0.169 C  
HETATM    8  C   UNL     1     -10.580  19.594  65.853  1.00  0.00    -0.566 C  
HETATM    9  C   UNL     1     -10.146  19.849  67.291  1.00  0.00    -0.569 C  
ENDBRANCH   3   4
BRANCH   3  10
HETATM   10  C   UNL     1     -10.616  15.380  67.630  1.00  0.00    -0.280 C  
HETATM   11  H2  UNL     1     -11.317  14.926  65.714  1.00  0.00     0.000 HD 
HETATM   12  N   UNL     1     -11.457  14.811  66.718  1.00  0.00    -0.353 N  
HETATM   13  O   UNL     1     -10.822  15.255  68.834  1.00  0.00    -0.229 OA 
HETATM   14  H1  UNL     1     -12.232  14.264  67.092  1.00  0.00     0.000 HD 
ENDBRANCH   3  10
ENDBRANCH   2   3
TORSDOF 3
ENDMDL
MODEL       37
REMARK 921   NORMALIZED FREE ENERGY PREDICTED BY IDOCK:   -3.70 KCAL/MOL
REMARK 922        TOTAL FREE ENERGY PREDICTED BY IDOCK:   -4.71 KCAL/MOL
REMARK 923 INTER-LIGAND FREE ENERGY PREDICTED BY IDOCK:   -4.63 KCAL/MOL
REMARK 924 INTRA-LIGAND FREE ENERGY PREDICTED BY IDOCK:   -0.08 KCAL/MOL
REMARK 927      BINDING AFFINITY PREDICTED BY RF-SCORE:    0.00 PKD
ROOT
HETATM    1  C   UNL     1      -7.885  14.082  67.296  1.00  0.00    -0.143 C  
HETATM    2  C   UNL     1      -8.906  15.150  66.923  1.00  0.00    -0.284 C  
ENDROOT
BRANCH   2   3
HETATM    3  C   UNL     1     -10.344  14.714  67.245  1.00  0.00    -0.256 C  
BRANCH   3   4
HETATM    4  N   UNL     1     -11.081  14.223  66.073  1.00  0.00    -0.314 N  
HETATM    5  O   UNL     1     -11.009  16.099  64.692  1.00  0.00    -0.642 OA 
HETATM    6  C   UNL     1     -11.889  13.033  66.143  1.00  0.00    -0.409 C  
HETATM    7  C   UNL     1     -11.360  14.953  64.927  1.00  0.00    -0.413 C  
HETATM    8  C   UNL     1     -12.282  14.128  64.062  1.00  0.00    -0.369 C  
HETATM    9  C   UNL     1     -12.182  12.742  64.687  1.00  0.00    -0.510 C  
ENDBRANCH   3   4
BRANCH   3  10
HETATM   10  C   UNL     1     -11.131  15.823  67.968  1.00  0.00    -0.337 C  
HETATM   11  H2  UNL     1     -12.466  14.441  68.790  1.00  0.00     0.000 HD 
HETATM   12  N   UNL     1     -12.201  15.424  68.715  1.00  0.00    -0.593 N  
HETATM   13  O   UNL     1     -10.849  17.014  67.865  1.00  0.00    -0.357 OA 
HETATM   14  H1  UNL     1     -12.723  16.158  69.193  1.00  0.00     0.000 HD 
ENDBRANCH   3  10
ENDBRANCH   2   3
TORSDOF 3
ENDMDL
MODEL       38
REMARK 921   NORMALIZED FREE ENERGY PREDICTED BY IDOCK:   -3.69 KCAL/MOL
REMARK 922        TOTAL FREE ENERGY PREDICTED BY IDOCK:   -4.70 KCAL/MOL
REMARK 923 INTER-LIGAND FREE ENERGY PREDICTED BY IDOCK:   -4.49 KCAL/MOL
REMARK 924 INTRA-LIGAND FREE ENERGY PREDICTED BY IDOCK:   -0.20 KCAL/MOL
REMARK 927      BINDING AFFINITY PREDICTED BY RF-SCORE:    0.00 PKD
ROOT
HETATM    1  C   UNL     1     -12.601  11.259  70.873  1.00  0.00    -0.467 C  
HETATM    2  C   UNL     1     -11.814   9.973  70.654  1.00  0.00    -0.411 C  
ENDROOT
BRANCH   2   3
HETATM    3  C   UNL     1     -12.117   8.918  71.729  1.00  0.00    -0.362 C  
BRANCH   3   4
HETATM    4  N   UNL     1     -11.479   7.621  71.469  1.00  0.00    -0.258 N  
HETATM    5  O   UNL     1     -10.857   6.996  73.627  1.00  0.00    -0.336 OA 
HETATM    6  C   UNL     1     -11.087   7.233  70.138  1.00  0.00    -0.258 C  
HETATM    7  C   UNL     1     -10.898   6.797  72.422  1.00  0.00    -0.238 C  
HETATM    8  C   UNL     1     -10.212   5.662  71.702  1.00  0.00    -0.261 C  
HETATM    9  C   UNL     1     -10.785   5.758  70.294  1.00  0.00    -0.380 C  
ENDBRANCH   3   4
BRANCH   3  10
HETATM   10  C   UNL     1     -13.631   8.752  71.959  1.00  0.00    -0.427 C  
HETATM   11  H2  UNL     1     -13.883   7.801  70.115  1.00  0.00     0.000 HD 
HETATM   12  N   UNL     1     -14.336   8.136  70.966  1.00  0.00    -0.664 N  
HETATM   13  O   UNL     1     -14.202   9.175  72.961  1.00  0.00    -0.429 OA 
HETATM   14  H1  UNL     1     -15.338   8.026  71.119  1.00  0.00     0.000 HD 
ENDBRANCH   3  10
ENDBRANCH   2   3
TORSDOF 3
ENDMDL
MODEL       39
REMARK 921   NORMALIZED FREE ENERGY PREDICTED BY IDOCK:   -3.69 KCAL/MOL
REMARK 922        TOTAL FREE ENERGY PREDICTED BY IDOCK:   -4.69 KCAL/MOL
REMARK 923 INTER-LIGAND FREE ENERGY PREDICTED BY IDOCK:   -4.39 KCAL/MOL
REMARK 924 INTRA-LIGAND FREE ENERGY PREDICTED BY IDOCK:   -0.30 KCAL/MOL
REMARK 927      BINDING AFFINITY PREDICTED BY RF-SCORE:    0.00 PKD
ROOT
HETATM    1  C   UNL     1     -12.300  13.865  66.107  1.00  0.00    -0.504 C  
HETATM    2  C   UNL     1     -11.815  14.545  67.383  1.00  0.00    -0.416 C  
ENDROOT
BRANCH   2   3
HETATM    3  C   UNL     1     -11.966  13.639  68.615  1.00  0.00    -0.360 C  
BRANCH   3   4
HETATM    4  N   UNL     1     -12.003  14.380  69.882  1.00  0.00    -0.314 N  
HETATM    5  O   UNL     1     -12.947  12.787  71.297  1.00  0.00    -0.321 OA 
HETATM    6  C   UNL     1     -11.838  15.811  69.916  1.00  0.00    -0.344 C  
HETATM    7  C   UNL     1     -12.499  13.903  71.086  1.00  0.00    -0.372 C  
HETATM    8  C   UNL     1     -12.505  15.046  72.073  1.00  0.00    -0.409 C  
HETATM    9  C   UNL     1     -11.630  16.088  71.390  1.00  0.00    -0.520 C  
ENDBRANCH   3   4
BRANCH   3  10
HETATM   10  C   UNL     1     -10.892  12.535  68.651  1.00  0.00    -0.248 C  
HETATM   11  H2  UNL     1      -9.358  13.914  68.315  1.00  0.00     0.000 HD 
HETATM   12  N   UNL     1      -9.600  12.935  68.468  1.00  0.00    -0.378 N  
HETATM   13  O   UNL     1     -11.164  11.347  68.802  1.00  0.00    -0.204 OA 
HETATM   14  H1  UNL     1      -8.890  12.204  68.492  1.00  0.00     0.000 HD 
ENDBRANCH   3  10
ENDBRANCH   2   3
TORSDOF 3
ENDMDL
MODEL       40
REMARK 921   NORMALIZED FREE ENERGY PREDICTED BY IDOCK:   -3.68 KCAL/MOL
REMARK 922        TOTAL FREE ENERGY PREDICTED BY IDOCK:   -4.68 KCAL/MOL
REMARK 923 INTER-LIGAND FREE ENERGY PREDICTED BY IDOCK:   -4.39 KCAL/MOL
REMARK 924 INTRA-LIGAND FREE ENERGY PREDICTED BY IDOCK:   -0.29 KCAL/MOL
REMARK 927      BINDING AFFINITY PREDICTED BY RF-SCORE:    0.00 PKD
ROOT
HETATM    1  C   UNL     1      -8.047  10.172  69.485  1.00  0.00    -0.176 C  
HETATM    2  C   UNL     1      -9.424   9.640  69.864  1.00  0.00    -0.260 C  
ENDROOT
BRANCH   2   3
HETATM    3  C   UNL     1     -10.551  10.592  69.434  1.00  0.00    -0.239 C  
BRANCH   3   4
HETATM    4  N   UNL     1     -11.638  10.690  70.417  1.00  0.00    -0.330 N  
HETATM    5  O   UNL     1     -12.145  12.961  70.287  1.00  0.00    -0.347 OA 
HETATM    6  C   UNL     1     -11.877   9.640  71.374  1.00  0.00    -0.406 C  
HETATM    7  C   UNL     1     -12.315  11.850  70.765  1.00  0.00    -0.320 C  
HETATM    8  C   UNL     1     -13.221  11.530  71.929  1.00  0.00    -0.479 C  
HETATM    9  C   UNL     1     -13.233  10.007  71.940  1.00  0.00    -0.557 C  
ENDBRANCH   3   4
BRANCH   3  10
HETATM   10  C   UNL     1     -11.099  10.240  68.038  1.00  0.00    -0.274 C  
HETATM   11  H2  UNL     1     -10.272   8.323  68.116  1.00  0.00     0.000 HD 
HETATM   12  N   UNL     1     -10.817   8.990  67.569  1.00  0.00    -0.466 N  
HETATM   13  O   UNL     1     -11.730  11.039  67.350  1.00  0.00    -0.539 OA 
HETATM   14  H1  UNL     1     -11.179   8.757  66.645  1.00  0.00     0.000 HD 
ENDBRANCH   3  10
ENDBRANCH   2   3
TORSDOF 3
ENDMDL
MODEL       41
REMARK 921   NORMALIZED FREE ENERGY PREDICTED BY IDOCK:   -3.68 KCAL/MOL
REMARK 922        TOTAL FREE ENERGY PREDICTED BY IDOCK:   -4.68 KCAL/MOL
REMARK 923 INTER-LIGAND FREE ENERGY PREDICTED BY IDOCK:   -4.45 KCAL/MOL
REMARK 924 INTRA-LIGAND FREE ENERGY PREDICTED BY IDOCK:   -0.23 KCAL/MOL
REMARK 927      BINDING AFFINITY PREDICTED BY RF-SCORE:    0.00 PKD
ROOT
HETATM    1  C   UNL     1     -13.231  12.177  72.073  1.00  0.00    -0.496 C  
HETATM    2  C   UNL     1     -12.865  11.071  71.091  1.00  0.00    -0.491 C  
ENDROOT
BRANCH   2   3
HETATM    3  C   UNL     1     -12.166   9.890  71.782  1.00  0.00    -0.341 C  
BRANCH   3   4
HETATM    4  N   UNL     1     -10.918   9.484  71.123  1.00  0.00    -0.344 N  
HETATM    5  O   UNL     1      -9.785   8.491  72.902  1.00  0.00    -0.235 OA 
HETATM    6  C   UNL     1     -10.542  10.019  69.839  1.00  0.00    -0.282 C  
HETATM    7  C   UNL     1      -9.848   8.848  71.735  1.00  0.00    -0.315 C  
HETATM    8  C   UNL     1      -8.716   8.778  70.739  1.00  0.00    -0.224 C  
HETATM    9  C   UNL     1      -9.403   9.114  69.422  1.00  0.00    -0.160 C  
ENDBRANCH   3   4
BRANCH   3  10
HETATM   10  C   UNL     1     -13.113   8.688  71.962  1.00  0.00    -0.381 C  
HETATM   11  H2  UNL     1     -14.275   9.718  73.360  1.00  0.00     0.000 HD 
HETATM   12  N   UNL     1     -14.141   8.848  72.845  1.00  0.00    -0.845 N  
HETATM   13  O   UNL     1     -12.951   7.621  71.376  1.00  0.00    -0.339 OA 
HETATM   14  H1  UNL     1     -14.767   8.052  72.964  1.00  0.00     0.000 HD 
ENDBRANCH   3  10
ENDBRANCH   2   3
TORSDOF 3
ENDMDL
MODEL       42
REMARK 921   NORMALIZED FREE ENERGY PREDICTED BY IDOCK:   -3.67 KCAL/MOL
REMARK 922        TOTAL FREE ENERGY PREDICTED BY IDOCK:   -4.67 KCAL/MOL
REMARK 923 INTER-LIGAND FREE ENERGY PREDICTED BY IDOCK:   -4.39 KCAL/MOL
REMARK 924 INTRA-LIGAND FREE ENERGY PREDICTED BY IDOCK:   -0.28 KCAL/MOL
REMARK 927      BINDING AFFINITY PREDICTED BY RF-SCORE:    0.00 PKD
ROOT
HETATM    1  C   UNL     1     -10.440  19.747  66.006  1.00  0.00    -0.609 C  
HETATM    2  C   UNL     1     -10.490  18.562  66.964  1.00  0.00    -0.440 C  
ENDROOT
BRANCH   2   3
HETATM    3  C   UNL     1      -9.929  17.281  66.329  1.00  0.00    -0.300 C  
BRANCH   3   4
HETATM    4  N   UNL     1     -10.579  16.056  66.814  1.00  0.00    -0.315 N  
HETATM    5  O   UNL     1     -10.422  14.698  64.926  1.00  0.00    -0.414 OA 
HETATM    6  C   UNL     1     -11.383  16.060  68.009  1.00  0.00    -0.266 C  
HETATM    7  C   UNL     1     -10.781  14.899  66.077  1.00  0.00    -0.323 C  
HETATM    8  C   UNL     1     -11.636  13.965  66.899  1.00  0.00    -0.400 C  
HETATM    9  C   UNL     1     -11.571  14.584  68.289  1.00  0.00    -0.358 C  
ENDBRANCH   3   4
BRANCH   3  10
HETATM   10  C   UNL     1      -8.398  17.190  66.478  1.00  0.00    -0.274 C  
HETATM   11  H2  UNL     1      -8.560  16.328  68.375  1.00  0.00     0.000 HD 
HETATM   12  N   UNL     1      -7.929  16.653  67.642  1.00  0.00    -0.171 N  
HETATM   13  O   UNL     1      -7.620  17.603  65.622  1.00  0.00    -0.521 OA 
HETATM   14  H1  UNL     1      -6.916  16.593  67.741  1.00  0.00     0.000 HD 
ENDBRANCH   3  10
ENDBRANCH   2   3
TORSDOF 3
ENDMDL
MODEL       43
REMARK 921   NORMALIZED FREE ENERGY PREDICTED BY IDOCK:   -3.67 KCAL/MOL
REMARK 922        TOTAL FREE ENERGY PREDICTED BY IDOCK:   -4.67 KCAL/MOL
REMARK 923 INTER-LIGAND FREE ENERGY PREDICTED BY IDOCK:   -4.51 KCAL/MOL
REMARK 924 INTRA-LIGAND FREE ENERGY PREDICTED BY IDOCK:   -0.17 KCAL/MOL
REMARK 927      BINDING AFFINITY PREDICTED BY RF-SCORE:    0.00 PKD
ROOT
HETATM    1  C   UNL     1     -11.793  11.948  69.475  1.00  0.00    -0.395 C  
HETATM    2  C   UNL     1     -11.352  11.679  68.041  1.00  0.00    -0.366 C  
ENDROOT
BRANCH   2   3
HETATM    3  C   UNL     1     -11.745  12.821  67.091  1.00  0.00    -0.380 C  
BRANCH   3   4
HETATM    4  N   UNL     1     -11.661  12.454  65.672  1.00  0.00    -0.400 N  
HETATM    5  O   UNL     1      -9.489  11.618  65.560  1.00  0.00    -0.229 OA 
HETATM    6  C   UNL     1     -12.620  12.945  64.715  1.00  0.00    -0.425 C  
HETATM    7  C   UNL     1     -10.553  11.911  65.038  1.00  0.00    -0.289 C  
HETATM    8  C   UNL     1     -10.842  11.857  63.557  1.00  0.00    -0.502 C  
HETATM    9  C   UNL     1     -12.347  12.087  63.498  1.00  0.00    -0.661 C  
ENDBRANCH   3   4
BRANCH   3  10
HETATM   10  C   UNL     1     -10.944  14.106  67.377  1.00  0.00    -0.299 C  
HETATM   11  H2  UNL     1      -9.146  13.048  67.495  1.00  0.00     0.000 HD 
HETATM   12  N   UNL     1      -9.599  13.961  67.551  1.00  0.00    -0.223 N  
HETATM   13  O   UNL     1     -11.473  15.210  67.481  1.00  0.00    -0.337 OA 
HETATM   14  H1  UNL     1      -9.069  14.811  67.741  1.00  0.00     0.000 HD 
ENDBRANCH   3  10
ENDBRANCH   2   3
TORSDOF 3
ENDMDL
MODEL       44
REMARK 921   NORMALIZED FREE ENERGY PREDICTED BY IDOCK:   -3.64 KCAL/MOL
REMARK 922        TOTAL FREE ENERGY PREDICTED BY IDOCK:   -4.64 KCAL/MOL
REMARK 923 INTER-LIGAND FREE ENERGY PREDICTED BY IDOCK:   -4.41 KCAL/MOL
REMARK 924 INTRA-LIGAND FREE ENERGY PREDICTED BY IDOCK:   -0.23 KCAL/MOL
REMARK 927      BINDING AFFINITY PREDICTED BY RF-SCORE:    0.00 PKD
ROOT
HETATM    1  C   UNL     1     -11.659  15.790  69.085  1.00  0.00    -0.399 C  
HETATM    2  C   UNL     1     -12.175  14.358  69.171  1.00  0.00    -0.255 C  
ENDROOT
BRANCH   2   3
HETATM    3  C   UNL     1     -11.289  13.376  68.389  1.00  0.00    -0.294 C  
BRANCH   3   4
HETATM    4  N   UNL     1     -11.355  13.561  66.934  1.00  0.00    -0.315 N  
HETATM    5  O   UNL     1      -9.140  14.110  66.459  1.00  0.00    -0.246 OA 
HETATM    6  C   UNL     1     -12.617  13.719  66.257  1.00  0.00    -0.321 C  
HETATM    7  C   UNL     1     -10.297  13.924  66.114  1.00  0.00    -0.301 C  
HETATM    8  C   UNL     1     -10.845  14.173  64.729  1.00  0.00    -0.426 C  
HETATM    9  C   UNL     1     -12.237  13.560  64.801  1.00  0.00    -0.450 C  
ENDBRANCH   3   4
BRANCH   3  10
HETATM   10  C   UNL     1     -11.578  11.912  68.773  1.00  0.00    -0.309 C  
HETATM   11  H2  UNL     1     -11.277  12.307  70.803  1.00  0.00     0.000 HD 
HETATM   12  N   UNL     1     -11.508  11.604  70.101  1.00  0.00    -0.499 N  
HETATM   13  O   UNL     1     -11.827  11.043  67.942  1.00  0.00    -0.600 OA 
HETATM   14  H1  UNL     1     -11.700  10.635  70.355  1.00  0.00     0.000 HD 
ENDBRANCH   3  10
ENDBRANCH   2   3
TORSDOF 3
ENDMDL
MODEL       45
REMARK 921   NORMALIZED FREE ENERGY PREDICTED BY IDOCK:   -3.63 KCAL/MOL
REMARK 922        TOTAL FREE ENERGY PREDICTED BY IDOCK:   -4.63 KCAL/MOL
REMARK 923 INTER-LIGAND FREE ENERGY PREDICTED BY IDOCK:   -4.46 KCAL/MOL
REMARK 924 INTRA-LIGAND FREE ENERGY PREDICTED BY IDOCK:   -0.17 KCAL/MOL
REMARK 927      BINDING AFFINITY PREDICTED BY RF-SCORE:    0.00 PKD
ROOT
HETATM    1  C   UNL     1     -11.832  15.591  69.365  1.00  0.00    -0.392 C  
HETATM    2  C   UNL     1     -11.218  16.001  68.032  1.00  0.00    -0.303 C  
ENDROOT
BRANCH   2   3
HETATM    3  C   UNL     1      -9.935  16.825  68.215  1.00  0.00    -0.273 C  
BRANCH   3   4
HETATM    4  N   UNL     1     -10.007  18.159  67.604  1.00  0.00    -0.322 N  
HETATM    5  O   UNL     1     -10.652  17.615  65.432  1.00  0.00    -0.657 OA 
HETATM    6  C   UNL     1      -9.404  19.305  68.238  1.00  0.00    -0.351 C  
HETATM    7  C   UNL     1     -10.335  18.431  66.285  1.00  0.00    -0.415 C  
HETATM    8  C   UNL     1     -10.116  19.904  66.042  1.00  0.00    -0.589 C  
HETATM    9  C   UNL     1      -9.983  20.463  67.454  1.00  0.00    -0.556 C  
ENDBRANCH   3   4
BRANCH   3  10
HETATM   10  C   UNL     1      -8.688  16.062  67.728  1.00  0.00    -0.167 C  
HETATM   11  H2  UNL     1      -9.675  15.395  66.012  1.00  0.00     0.000 HD 
HETATM   12  N   UNL     1      -8.806  15.391  66.546  1.00  0.00    -0.296 N  
HETATM   13  O   UNL     1      -7.642  16.019  68.370  1.00  0.00    -0.136 OA 
HETATM   14  H1  UNL     1      -7.981  14.886  66.224  1.00  0.00     0.000 HD 
ENDBRANCH   3  10
ENDBRANCH   2   3
TORSDOF 3
ENDMDL
MODEL       46
REMARK 921   NORMALIZED FREE ENERGY PREDICTED BY IDOCK:   -3.63 KCAL/MOL
REMARK 922        TOTAL FREE ENERGY PREDICTED BY IDOCK:   -4.63 KCAL/MOL
REMARK 923 INTER-LIGAND FREE ENERGY PREDICTED BY IDOCK:   -4.34 KCAL/MOL
REMARK 924 INTRA-LIGAND FREE ENERGY PREDICTED BY IDOCK:   -0.29 KCAL/MOL
REMARK 927      BINDING AFFINITY PREDICTED BY RF-SCORE:    0.00 PKD
ROOT
HETATM    1  C   UNL     1     -10.520  17.463  68.209  1.00  0.00    -0.385 C  
HETATM    2  C   UNL     1     -10.449  15.959  68.448  1.00  0.00    -0.254 C  
ENDROOT
BRANCH   2   3
HETATM    3  C   UNL     1      -9.822  15.213  67.261  1.00  0.00    -0.228 C  
BRANCH   3   4
HETATM    4  N   UNL     1     -10.812  14.708  66.301  1.00  0.00    -0.315 N  
HETATM    5  O   UNL     1     -10.694  16.344  64.646  1.00  0.00    -0.693 OA 
HETATM    6  C   UNL     1     -11.766  13.695  66.675  1.00  0.00    -0.388 C  
HETATM    7  C   UNL     1     -11.168  15.317  65.107  1.00  0.00    -0.370 C  
HETATM    8  C   UNL     1     -12.337  14.558  64.527  1.00  0.00    -0.434 C  
HETATM    9  C   UNL     1     -12.342  13.270  65.341  1.00  0.00    -0.528 C  
ENDBRANCH   3   4
BRANCH   3  10
HETATM   10  C   UNL     1      -8.878  14.087  67.725  1.00  0.00    -0.187 C  
HETATM   11  H2  UNL     1      -8.768  14.875  69.657  1.00  0.00     0.000 HD 
HETATM   12  N   UNL     1      -8.466  14.134  69.025  1.00  0.00    -0.361 N  
HETATM   13  O   UNL     1      -8.477  13.203  66.973  1.00  0.00    -0.194 OA 
HETATM   14  H1  UNL     1      -7.841  13.389  69.332  1.00  0.00     0.000 HD 
ENDBRANCH   3  10
ENDBRANCH   2   3
TORSDOF 3
ENDMDL
MODEL       47
REMARK 921   NORMALIZED FREE ENERGY PREDICTED BY IDOCK:   -3.60 KCAL/MOL
REMARK 922        TOTAL FREE ENERGY PREDICTED BY IDOCK:   -4.59 KCAL/MOL
REMARK 923 INTER-LIGAND FREE ENERGY PREDICTED BY IDOCK:   -4.38 KCAL/MOL
REMARK 924 INTRA-LIGAND FREE ENERGY PREDICTED BY IDOCK:   -0.21 KCAL/MOL
REMARK 927      BINDING AFFINITY PREDICTED BY RF-SCORE:    0.00 PKD
ROOT
HETATM    1  C   UNL     1     -11.812  11.411  68.625  1.00  0.00    -0.377 C  
HETATM    2  C   UNL     1     -11.194  12.532  67.798  1.00  0.00    -0.318 C  
ENDROOT
BRANCH   2   3
HETATM    3  C   UNL     1     -11.729  12.552  66.358  1.00  0.00    -0.397 C  
BRANCH   3   4
HETATM    4  N   UNL     1     -10.842  11.882  65.398  1.00  0.00    -0.287 N  
HETATM    5  O   UNL     1     -12.127  12.000  63.457  1.00  0.00    -0.504 OA 
HETATM    6  C   UNL     1      -9.725  11.086  65.841  1.00  0.00    -0.224 C  
HETATM    7  C   UNL     1     -11.122  11.652  64.059  1.00  0.00    -0.384 C  
HETATM    8  C   UNL     1     -10.023  10.786  63.494  1.00  0.00    -0.403 C  
HETATM    9  C   UNL     1      -8.941  10.872  64.564  1.00  0.00    -0.130 C  
ENDBRANCH   3   4
BRANCH   3  10
HETATM   10  C   UNL     1     -12.069  13.981  65.892  1.00  0.00    -0.428 C  
HETATM   11  H2  UNL     1     -14.047  13.452  65.472  1.00  0.00     0.000 HD 
HETATM   12  N   UNL     1     -13.350  14.197  65.475  1.00  0.00    -0.592 N  
HETATM   13  O   UNL     1     -11.238  14.885  65.858  1.00  0.00    -0.335 OA 
HETATM   14  H1  UNL     1     -13.575  15.143  65.166  1.00  0.00     0.000 HD 
ENDBRANCH   3  10
ENDBRANCH   2   3
TORSDOF 3
ENDMDL
MODEL       48
REMARK 921   NORMALIZED FREE ENERGY PREDICTED BY IDOCK:   -3.60 KCAL/MOL
REMARK 922        TOTAL FREE ENERGY PREDICTED BY IDOCK:   -4.59 KCAL/MOL
REMARK 923 INTER-LIGAND FREE ENERGY PREDICTED BY IDOCK:   -4.40 KCAL/MOL
REMARK 924 INTRA-LIGAND FREE ENERGY PREDICTED BY IDOCK:   -0.19 KCAL/MOL
REMARK 927      BINDING AFFINITY PREDICTED BY RF-SCORE:    0.00 PKD
ROOT
HETATM    1  C   UNL     1     -14.242   7.319  71.624  1.00  0.00    -0.558 C  
HETATM    2  C   UNL     1     -12.743   7.219  71.368  1.00  0.00    -0.427 C  
ENDROOT
BRANCH   2   3
HETATM    3  C   UNL     1     -11.974   8.413  71.955  1.00  0.00    -0.357 C  
BRANCH   3   4
HETATM    4  N   UNL     1     -11.775   9.507  70.996  1.00  0.00    -0.318 N  
HETATM    5  O   UNL     1     -13.211  11.123  71.866  1.00  0.00    -0.470 OA 
HETATM    6  C   UNL     1     -11.143   9.277  69.721  1.00  0.00    -0.150 C  
HETATM    7  C   UNL     1     -12.414  10.737  71.025  1.00  0.00    -0.420 C  
HETATM    8  C   UNL     1     -12.049  11.482  69.763  1.00  0.00    -0.374 C  
HETATM    9  C   UNL     1     -10.869  10.682  69.227  1.00  0.00    -0.282 C  
ENDBRANCH   3   4
BRANCH   3  10
HETATM   10  C   UNL     1     -10.636   7.980  72.586  1.00  0.00    -0.350 C  
HETATM   11  H2  UNL     1     -11.532   6.359  73.554  1.00  0.00     0.000 HD 
HETATM   12  N   UNL     1     -10.667   6.874  73.384  1.00  0.00    -0.406 N  
HETATM   13  O   UNL     1      -9.591   8.603  72.419  1.00  0.00    -0.288 OA 
HETATM   14  H1  UNL     1      -9.782   6.588  73.801  1.00  0.00     0.000 HD 
ENDBRANCH   3  10
ENDBRANCH   2   3
TORSDOF 3
ENDMDL
MODEL       49
REMARK 921   NORMALIZED FREE ENERGY PREDICTED BY IDOCK:   -3.59 KCAL/MOL
REMARK 922        TOTAL FREE ENERGY PREDICTED BY IDOCK:   -4.58 KCAL/MOL
REMARK 923 INTER-LIGAND FREE ENERGY PREDICTED BY IDOCK:   -4.21 KCAL/MOL
REMARK 924 INTRA-LIGAND FREE ENERGY PREDICTED BY IDOCK:   -0.37 KCAL/MOL
REMARK 927      BINDING AFFINITY PREDICTED BY RF-SCORE:    0.00 PKD
ROOT
HETATM    1  C   UNL     1     -10.504   6.339  69.426  1.00  0.00    -0.298 C  
HETATM    2  C   UNL     1     -11.770   6.489  70.261  1.00  0.00    -0.430 C  
ENDROOT
BRANCH   2   3
HETATM    3  C   UNL     1     -11.685   7.675  71.234  1.00  0.00    -0.284 C  
BRANCH   3   4
HETATM    4  N   UNL     1     -10.850   7.404  72.412  1.00  0.00    -0.244 N  
HETATM    5  O   UNL     1      -9.180   9.008  72.146  1.00  0.00    -0.365 OA 
HETATM    6  C   UNL     1     -10.983   6.177  73.156  1.00  0.00    -0.231 C  
HETATM    7  C   UNL     1      -9.681   8.070  72.748  1.00  0.00    -0.280 C  
HETATM    8  C   UNL     1      -9.060   7.358  73.924  1.00  0.00    -0.298 C  
HETATM    9  C   UNL     1     -10.191   6.463  74.414  1.00  0.00    -0.343 C  
ENDBRANCH   3   4
BRANCH   3  10
HETATM   10  C   UNL     1     -13.081   8.177  71.651  1.00  0.00    -0.335 C  
HETATM   11  H2  UNL     1     -14.027   6.890  70.303  1.00  0.00     0.000 HD 
HETATM   12  N   UNL     1     -14.147   7.610  71.016  1.00  0.00    -0.659 N  
HETATM   13  O   UNL     1     -13.248   9.063  72.484  1.00  0.00    -0.445 OA 
HETATM   14  H1  UNL     1     -15.071   7.942  71.292  1.00  0.00     0.000 HD 
ENDBRANCH   3  10
ENDBRANCH   2   3
TORSDOF 3
ENDMDL
MODEL       50
REMARK 921   NORMALIZED FREE ENERGY PREDICTED BY IDOCK:   -3.59 KCAL/MOL
REMARK 922        TOTAL FREE ENERGY PREDICTED BY IDOCK:   -4.57 KCAL/MOL
REMARK 923 INTER-LIGAND FREE ENERGY PREDICTED BY IDOCK:   -4.40 KCAL/MOL
REMARK 924 INTRA-LIGAND FREE ENERGY PREDICTED BY IDOCK:   -0.18 KCAL/MOL
REMARK 927      BINDING AFFINITY PREDICTED BY RF-SCORE:    0.00 PKD
ROOT
HETATM    1  C   UNL     1     -14.037   8.562  71.807  1.00  0.00    -0.515 C  
HETATM    2  C   UNL     1     -12.946   9.582  72.114  1.00  0.00    -0.497 C  
ENDROOT
BRANCH   2   3
HETATM    3  C   UNL     1     -12.789  10.618  70.990  1.00  0.00    -0.402 C  
BRANCH   3   4
HETATM    4  N   UNL     1     -11.581  10.421  70.179  1.00  0.00    -0.289 N  
HETATM    5  O   UNL     1     -12.255  11.352  68.152  1.00  0.00    -0.602 OA 
HETATM    6  C   UNL     1     -10.541   9.514  70.595  1.00  0.00    -0.308 C  
HETATM    7  C   UNL     1     -11.429  10.783  68.849  1.00  0.00    -0.293 C  
HETATM    8  C   UNL     1     -10.106  10.239  68.366  1.00  0.00    -0.178 C  
HETATM    9  C   UNL     1      -9.401   9.864  69.663  1.00  0.00    -0.247 C  
ENDBRANCH   3   4
BRANCH   3  10
HETATM   10  C   UNL     1     -12.867  12.061  71.525  1.00  0.00    -0.297 C  
HETATM   11  H2  UNL     1     -14.332  11.543  72.922  1.00  0.00     0.000 HD 
HETATM   12  N   UNL     1     -13.751  12.289  72.538  1.00  0.00    -0.451 N  
HETATM   13  O   UNL     1     -12.200  12.980  71.057  1.00  0.00    -0.319 OA 
HETATM   14  H1  UNL     1     -13.803  13.244  72.892  1.00  0.00     0.000 HD 
ENDBRANCH   3  10
ENDBRANCH   2   3
TORSDOF 3
ENDMDL
MODEL       51
REMARK 921   NORMALIZED FREE ENERGY PREDICTED BY IDOCK:   -3.56 KCAL/MOL
REMARK 922        TOTAL FREE ENERGY PREDICTED BY IDOCK:   -4.55 KCAL/MOL
REMARK 923 INTER-LIGAND FREE ENERGY PREDICTED BY IDOCK:   -4.22 KCAL/MOL
REMARK 924 INTRA-LIGAND FREE ENERGY PREDICTED BY IDOCK:   -0.33 KCAL/MOL
REMARK 927      BINDING AFFINITY PREDICTED BY RF-SCORE:    0.00 PKD
ROOT
HETATM    1  C   UNL     1     -10.587  19.820  65.796  1.00  0.00    -0.522 C  
HETATM    2  C   UNL     1     -10.205  19.476  67.231  1.00  0.00    -0.547 C  
ENDROOT
BRANCH   2   3
HETATM    3  C   UNL     1      -9.322  18.221  67.310  1.00  0.00    -0.256 C  
BRANCH   3   4
HETATM    4  N   UNL     1     -10.088  16.977  67.460  1.00  0.00    -0.285 N  
HETATM    5  O   UNL     1      -9.936  16.103  65.306  1.00  0.00    -0.487 OA 
HETATM    6  C   UNL     1     -10.952  16.764  68.594  1.00  0.00    -0.298 C  
HETATM    7  C   UNL     1     -10.339  16.053  66.458  1.00  0.00    -0.299 C  
HETATM    8  C   UNL     1     -11.305  15.027  67.000  1.00  0.00    -0.319 C  
HETATM    9  C   UNL     1     -11.267  15.287  68.500  1.00  0.00    -0.308 C  
ENDBRANCH   3   4
BRANCH   3  10
HETATM   10  C   UNL     1      -8.247  18.344  68.406  1.00  0.00    -0.312 C  
HETATM   11  H2  UNL     1      -7.620  16.372  68.116  1.00  0.00     0.000 HD 
HETATM   12  N   UNL     1      -7.485  17.236  68.641  1.00  0.00    -0.241 N  
HETATM   13  O   UNL     1      -8.088  19.365  69.071  1.00  0.00    -0.347 OA 
HETATM   14  H1  UNL     1      -6.774  17.318  69.367  1.00  0.00     0.000 HD 
ENDBRANCH   3  10
ENDBRANCH   2   3
TORSDOF 3
ENDMDL
MODEL       52
REMARK 921   NORMALIZED FREE ENERGY PREDICTED BY IDOCK:   -3.56 KCAL/MOL
REMARK 922        TOTAL FREE ENERGY PREDICTED BY IDOCK:   -4.55 KCAL/MOL
REMARK 923 INTER-LIGAND FREE ENERGY PREDICTED BY IDOCK:   -4.63 KCAL/MOL
REMARK 924 INTRA-LIGAND FREE ENERGY PREDICTED BY IDOCK:    0.08 KCAL/MOL
REMARK 927      BINDING AFFINITY PREDICTED BY RF-SCORE:    0.00 PKD
ROOT
HETATM    1  C   UNL     1     -11.693  12.809  68.031  1.00  0.00    -0.405 C  
HETATM    2  C   UNL     1     -12.269  13.227  66.683  1.00  0.00    -0.359 C  
ENDROOT
BRANCH   2   3
HETATM    3  C   UNL     1     -11.179  13.383  65.612  1.00  0.00    -0.292 C  
BRANCH   3   4
HETATM    4  N   UNL     1     -10.172  14.398  65.948  1.00  0.00    -0.310 N  
HETATM    5  O   UNL     1      -8.529  13.076  66.939  1.00  0.00    -0.173 OA 
HETATM    6  C   UNL     1     -10.498  15.802  65.950  1.00  0.00    -0.352 C  
HETATM    7  C   UNL     1      -8.965  14.162  66.588  1.00  0.00    -0.169 C  
HETATM    8  C   UNL     1      -8.328  15.497  66.890  1.00  0.00    -0.290 C  
HETATM    9  C   UNL     1      -9.137  16.460  66.031  1.00  0.00    -0.317 C  
ENDBRANCH   3   4
BRANCH   3  10
HETATM   10  C   UNL     1     -11.779  13.641  64.216  1.00  0.00    -0.403 C  
HETATM   11  H2  UNL     1     -10.690  12.068  63.376  1.00  0.00     0.000 HD 
HETATM   12  N   UNL     1     -11.363  12.817  63.211  1.00  0.00    -0.761 N  
HETATM   13  O   UNL     1     -12.566  14.556  63.989  1.00  0.00    -0.797 OA 
HETATM   14  H1  UNL     1     -11.760  12.987  62.288  1.00  0.00     0.000 HD 
ENDBRANCH   3  10
ENDBRANCH   2   3
TORSDOF 3
ENDMDL
MODEL       53
REMARK 921   NORMALIZED FREE ENERGY PREDICTED BY IDOCK:   -3.56 KCAL/MOL
REMARK 922        TOTAL FREE ENERGY PREDICTED BY IDOCK:   -4.55 KCAL/MOL
REMARK 923 INTER-LIGAND FREE ENERGY PREDICTED BY IDOCK:   -4.44 KCAL/MOL
REMARK 924 INTRA-LIGAND FREE ENERGY PREDICTED BY IDOCK:   -0.10 KCAL/MOL
REMARK 927      BINDING AFFINITY PREDICTED BY RF-SCORE:    0.00 PKD
ROOT
HETATM    1  C   UNL     1      -9.228   9.377  70.569  1.00  0.00    -0.314 C  
HETATM    2  C   UNL     1     -10.727   9.654  70.554  1.00  0.00    -0.374 C  
ENDROOT
BRANCH   2   3
HETATM    3  C   UNL     1     -11.412   9.202  71.853  1.00  0.00    -0.353 C  
BRANCH   3   4
HETATM    4  N   UNL     1     -11.125   7.806  72.207  1.00  0.00    -0.277 N  
HETATM    5  O   UNL     1     -12.264   6.679  70.514  1.00  0.00    -0.364 OA 
HETATM    6  C   UNL     1     -10.615   7.454  73.508  1.00  0.00    -0.338 C  
HETATM    7  C   UNL     1     -11.584   6.686  71.529  1.00  0.00    -0.309 C  
HETATM    8  C   UNL     1     -11.203   5.466  72.332  1.00  0.00    -0.272 C  
HETATM    9  C   UNL     1     -10.182   6.016  73.320  1.00  0.00    -0.218 C  
ENDBRANCH   3   4
BRANCH   3  10
HETATM   10  C   UNL     1     -12.930   9.463  71.822  1.00  0.00    -0.402 C  
HETATM   11  H2  UNL     1     -13.193   8.595  73.704  1.00  0.00     0.000 HD 
HETATM   12  N   UNL     1     -13.642   9.052  72.910  1.00  0.00    -0.870 N  
HETATM   13  O   UNL     1     -13.496   9.983  70.863  1.00  0.00    -0.352 OA 
HETATM   14  H1  UNL     1     -14.647   9.225  72.889  1.00  0.00     0.000 HD 
ENDBRANCH   3  10
ENDBRANCH   2   3
TORSDOF 3
ENDMDL
MODEL       54
REMARK 921   NORMALIZED FREE ENERGY PREDICTED BY IDOCK:   -3.55 KCAL/MOL
REMARK 922        TOTAL FREE ENERGY PREDICTED BY IDOCK:   -4.54 KCAL/MOL
REMARK 923 INTER-LIGAND FREE ENERGY PREDICTED BY IDOCK:   -4.25 KCAL/MOL
REMARK 924 INTRA-LIGAND FREE ENERGY PREDICTED BY IDOCK:   -0.28 KCAL/MOL
REMARK 927      BINDING AFFINITY PREDICTED BY RF-SCORE:    0.00 PKD
ROOT
HETATM    1  C   UNL     1     -13.248  11.071  71.827  1.00  0.00    -0.505 C  
HETATM    2  C   UNL     1     -12.437  10.069  71.015  1.00  0.00    -0.460 C  
ENDROOT
BRANCH   2   3
HETATM    3  C   UNL     1     -12.117   8.797  71.816  1.00  0.00    -0.350 C  
BRANCH   3   4
HETATM    4  N   UNL     1     -10.685   8.476  71.853  1.00  0.00    -0.297 N  
HETATM    5  O   UNL     1     -10.568   7.213  73.809  1.00  0.00    -0.377 OA 
HETATM    6  C   UNL     1      -9.737   9.191  71.037  1.00  0.00    -0.289 C  
HETATM    7  C   UNL     1     -10.044   7.740  72.839  1.00  0.00    -0.301 C  
HETATM    8  C   UNL     1      -8.559   7.804  72.577  1.00  0.00    -0.184 C  
HETATM    9  C   UNL     1      -8.489   8.342  71.153  1.00  0.00    -0.164 C  
ENDBRANCH   3   4
BRANCH   3  10
HETATM   10  C   UNL     1     -12.943   7.590  71.331  1.00  0.00    -0.335 C  
HETATM   11  H2  UNL     1     -11.497   7.080  69.910  1.00  0.00     0.000 HD 
HETATM   12  N   UNL     1     -12.402   6.848  70.322  1.00  0.00    -0.598 N  
HETATM   13  O   UNL     1     -14.047   7.312  71.790  1.00  0.00    -0.394 OA 
HETATM   14  H1  UNL     1     -12.948   6.049  70.000  1.00  0.00     0.000 HD 
ENDBRANCH   3  10
ENDBRANCH   2   3
TORSDOF 3
ENDMDL
MODEL       55
REMARK 921   NORMALIZED FREE ENERGY PREDICTED BY IDOCK:   -3.55 KCAL/MOL
REMARK 922        TOTAL FREE ENERGY PREDICTED BY IDOCK:   -4.54 KCAL/MOL
REMARK 923 INTER-LIGAND FREE ENERGY PREDICTED BY IDOCK:   -4.38 KCAL/MOL
REMARK 924 INTRA-LIGAND FREE ENERGY PREDICTED BY IDOCK:   -0.15 KCAL/MOL
REMARK 927      BINDING AFFINITY PREDICTED BY RF-SCORE:    0.00 PKD
ROOT
HETATM    1  C   UNL     1     -12.723  13.865  65.504  1.00  0.00    -0.536 C  
HETATM    2  C   UNL     1     -11.650  13.246  66.392  1.00  0.00    -0.387 C  
ENDROOT
BRANCH   2   3
HETATM    3  C   UNL     1     -12.002  13.348  67.884  1.00  0.00    -0.323 C  
BRANCH   3   4
HETATM    4  N   UNL     1     -11.335  14.465  68.566  1.00  0.00    -0.267 N  
HETATM    5  O   UNL     1     -12.871  14.930  70.256  1.00  0.00    -0.305 OA 
HETATM    6  C   UNL     1     -10.249  15.179  67.943  1.00  0.00    -0.232 C  
HETATM    7  C   UNL     1     -11.829  15.158  69.661  1.00  0.00    -0.334 C  
HETATM    8  C   UNL     1     -10.914  16.330  69.923  1.00  0.00    -0.365 C  
HETATM    9  C   UNL     1      -9.685  15.992  69.089  1.00  0.00    -0.251 C  
ENDBRANCH   3   4
BRANCH   3  10
HETATM   10  C   UNL     1     -11.753  12.021  68.625  1.00  0.00    -0.326 C  
HETATM   11  H2  UNL     1     -11.542  12.999  70.460  1.00  0.00     0.000 HD 
HETATM   12  N   UNL     1     -11.538  12.104  69.970  1.00  0.00    -0.515 N  
HETATM   13  O   UNL     1     -11.712  10.936  68.051  1.00  0.00    -0.540 OA 
HETATM   14  H1  UNL     1     -11.372  11.225  70.460  1.00  0.00     0.000 HD 
ENDBRANCH   3  10
ENDBRANCH   2   3
TORSDOF 3
ENDMDL
MODEL       56
REMARK 921   NORMALIZED FREE ENERGY PREDICTED BY IDOCK:   -3.55 KCAL/MOL
REMARK 922        TOTAL FREE ENERGY PREDICTED BY IDOCK:   -4.53 KCAL/MOL
REMARK 923 INTER-LIGAND FREE ENERGY PREDICTED BY IDOCK:   -4.99 KCAL/MOL
REMARK 924 INTRA-LIGAND FREE ENERGY PREDICTED BY IDOCK:    0.45 KCAL/MOL
REMARK 927      BINDING AFFINITY PREDICTED BY RF-SCORE:    0.00 PKD
ROOT
HETATM    1  C   UNL     1     -11.928  14.419  69.131  1.00  0.00    -0.357 C  
HETATM    2  C   UNL     1     -11.992  14.130  67.636  1.00  0.00    -0.405 C  
ENDROOT
BRANCH   2   3
HETATM    3  C   UNL     1     -11.142  12.911  67.245  1.00  0.00    -0.274 C  
BRANCH   3   4
HETATM    4  N   UNL     1     -11.313  12.506  65.844  1.00  0.00    -0.323 N  
HETATM    5  O   UNL     1     -13.260  13.659  65.287  1.00  0.00    -0.724 OA 
HETATM    6  C   UNL     1     -10.597  11.381  65.299  1.00  0.00    -0.277 C  
HETATM    7  C   UNL     1     -12.349  12.894  65.008  1.00  0.00    -0.485 C  
HETATM    8  C   UNL     1     -12.231  12.110  63.724  1.00  0.00    -0.630 C  
HETATM    9  C   UNL     1     -10.825  11.530  63.810  1.00  0.00    -0.486 C  
ENDBRANCH   3   4
BRANCH   3  10
HETATM   10  C   UNL     1     -11.375  11.721  68.196  1.00  0.00    -0.284 C  
HETATM   11  H2  UNL     1      -9.482  11.940  69.053  1.00  0.00     0.000 HD 
HETATM   12  N   UNL     1     -10.354  11.411  69.047  1.00  0.00    -0.337 N  
HETATM   13  O   UNL     1     -12.404  11.051  68.184  1.00  0.00    -0.402 OA 
HETATM   14  H1  UNL     1     -10.508  10.624  69.676  1.00  0.00     0.000 HD 
ENDBRANCH   3  10
ENDBRANCH   2   3
TORSDOF 3
ENDMDL
MODEL       57
REMARK 921   NORMALIZED FREE ENERGY PREDICTED BY IDOCK:   -3.53 KCAL/MOL
REMARK 922        TOTAL FREE ENERGY PREDICTED BY IDOCK:   -4.51 KCAL/MOL
REMARK 923 INTER-LIGAND FREE ENERGY PREDICTED BY IDOCK:   -4.23 KCAL/MOL
REMARK 924 INTRA-LIGAND FREE ENERGY PREDICTED BY IDOCK:   -0.28 KCAL/MOL
REMARK 927      BINDING AFFINITY PREDICTED BY RF-SCORE:    0.00 PKD
ROOT
HETATM    1  C   UNL     1      -8.271  12.967  67.640  1.00  0.00    -0.177 C  
HETATM    2  C   UNL     1      -9.613  12.589  68.256  1.00  0.00    -0.209 C  
ENDROOT
BRANCH   2   3
HETATM    3  C   UNL     1     -10.422  11.649  67.350  1.00  0.00    -0.210 C  
BRANCH   3   4
HETATM    4  N   UNL     1     -11.261  12.358  66.375  1.00  0.00    -0.301 N  
HETATM    5  O   UNL     1     -10.695  11.239  64.411  1.00  0.00    -0.338 OA 
HETATM    6  C   UNL     1     -11.869  13.625  66.694  1.00  0.00    -0.409 C  
HETATM    7  C   UNL     1     -11.309  12.107  65.012  1.00  0.00    -0.328 C  
HETATM    8  C   UNL     1     -12.161  13.176  64.371  1.00  0.00    -0.471 C  
HETATM    9  C   UNL     1     -12.859  13.813  65.565  1.00  0.00    -0.464 C  
ENDBRANCH   3   4
BRANCH   3  10
HETATM   10  C   UNL     1     -11.254  10.641  68.166  1.00  0.00    -0.302 C  
HETATM   11  H2  UNL     1     -10.172   9.022  67.409  1.00  0.00     0.000 HD 
HETATM   12  N   UNL     1     -10.928   9.324  68.024  1.00  0.00    -0.499 N  
HETATM   13  O   UNL     1     -12.189  10.980  68.886  1.00  0.00    -0.519 OA 
HETATM   14  H1  UNL     1     -11.479   8.657  68.563  1.00  0.00     0.000 HD 
ENDBRANCH   3  10
ENDBRANCH   2   3
TORSDOF 3
ENDMDL
MODEL       58
REMARK 921   NORMALIZED FREE ENERGY PREDICTED BY IDOCK:   -3.53 KCAL/MOL
REMARK 922        TOTAL FREE ENERGY PREDICTED BY IDOCK:   -4.51 KCAL/MOL
REMARK 923 INTER-LIGAND FREE ENERGY PREDICTED BY IDOCK:   -4.20 KCAL/MOL
REMARK 924 INTRA-LIGAND FREE ENERGY PREDICTED BY IDOCK:   -0.31 KCAL/MOL
REMARK 927      BINDING AFFINITY PREDICTED BY RF-SCORE:    0.00 PKD
ROOT
HETATM    1  C   UNL     1      -7.031  17.087  67.563  1.00  0.00    -0.168 C  
HETATM    2  C   UNL     1      -8.090  16.616  66.572  1.00  0.00    -0.337 C  
ENDROOT
BRANCH   2   3
HETATM    3  C   UNL     1      -9.516  16.865  67.086  1.00  0.00    -0.237 C  
BRANCH   3   4
HETATM    4  N   UNL     1     -10.417  15.724  66.879  1.00  0.00    -0.311 N  
HETATM    5  O   UNL     1     -11.773  15.886  68.768  1.00  0.00    -0.387 OA 
HETATM    6  C   UNL     1     -10.105  14.687  65.928  1.00  0.00    -0.320 C  
HETATM    7  C   UNL     1     -11.437  15.331  67.733  1.00  0.00    -0.303 C  
HETATM    8  C   UNL     1     -11.988  14.019  67.229  1.00  0.00    -0.448 C  
HETATM    9  C   UNL     1     -11.410  13.928  65.823  1.00  0.00    -0.308 C  
ENDBRANCH   3   4
BRANCH   3  10
HETATM   10  C   UNL     1     -10.119  18.158  66.504  1.00  0.00    -0.386 C  
HETATM   11  H2  UNL     1      -9.707  19.225  68.253  1.00  0.00     0.000 HD 
HETATM   12  N   UNL     1     -10.100  19.257  67.312  1.00  0.00    -0.359 N  
HETATM   13  O   UNL     1     -10.625  18.211  65.386  1.00  0.00    -0.636 OA 
HETATM   14  H1  UNL     1     -10.499  20.112  66.927  1.00  0.00     0.000 HD 
ENDBRANCH   3  10
ENDBRANCH   2   3
TORSDOF 3
ENDMDL
MODEL       59
REMARK 921   NORMALIZED FREE ENERGY PREDICTED BY IDOCK:   -3.52 KCAL/MOL
REMARK 922        TOTAL FREE ENERGY PREDICTED BY IDOCK:   -4.50 KCAL/MOL
REMARK 923 INTER-LIGAND FREE ENERGY PREDICTED BY IDOCK:   -4.20 KCAL/MOL
REMARK 924 INTRA-LIGAND FREE ENERGY PREDICTED BY IDOCK:   -0.30 KCAL/MOL
REMARK 927      BINDING AFFINITY PREDICTED BY RF-SCORE:    0.00 PKD
ROOT
HETATM    1  C   UNL     1      -8.144   8.870  71.064  1.00  0.00    -0.205 C  
HETATM    2  C   UNL     1      -9.373   8.257  71.726  1.00  0.00    -0.266 C  
ENDROOT
BRANCH   2   3
HETATM    3  C   UNL     1     -10.571   8.183  70.767  1.00  0.00    -0.214 C  
BRANCH   3   4
HETATM    4  N   UNL     1     -11.723   8.978  71.211  1.00  0.00    -0.293 N  
HETATM    5  O   UNL     1     -11.262  11.026  70.198  1.00  0.00    -0.270 OA 
HETATM    6  C   UNL     1     -12.560   8.539  72.299  1.00  0.00    -0.381 C  
HETATM    7  C   UNL     1     -11.954  10.312  70.908  1.00  0.00    -0.375 C  
HETATM    8  C   UNL     1     -13.147  10.773  71.709  1.00  0.00    -0.573 C  
HETATM    9  C   UNL     1     -13.754   9.463  72.196  1.00  0.00    -0.490 C  
ENDBRANCH   3   4
BRANCH   3  10
HETATM   10  C   UNL     1     -10.984   6.728  70.475  1.00  0.00    -0.280 C  
HETATM   11  H2  UNL     1     -11.933   7.275  68.696  1.00  0.00     0.000 HD 
HETATM   12  N   UNL     1     -11.691   6.512  69.328  1.00  0.00    -0.606 N  
HETATM   13  O   UNL     1     -10.730   5.799  71.238  1.00  0.00    -0.246 OA 
HETATM   14  H1  UNL     1     -11.964   5.549  69.135  1.00  0.00     0.000 HD 
ENDBRANCH   3  10
ENDBRANCH   2   3
TORSDOF 3
ENDMDL
MODEL       60
REMARK 921   NORMALIZED FREE ENERGY PREDICTED BY IDOCK:   -3.51 KCAL/MOL
REMARK 922        TOTAL FREE ENERGY PREDICTED BY IDOCK:   -4.48 KCAL/MOL
REMARK 923 INTER-LIGAND FREE ENERGY PREDICTED BY IDOCK:   -4.47 KCAL/MOL
REMARK 924 INTRA-LIGAND FREE ENERGY PREDICTED BY IDOCK:   -0.01 KCAL/MOL
REMARK 927      BINDING AFFINITY PREDICTED BY RF-SCORE:    0.00 PKD
ROOT
HETATM    1  C   UNL     1      -9.965   6.124  70.415  1.00  0.00    -0.223 C  
HETATM    2  C   UNL     1     -11.461   6.397  70.299  1.00  0.00    -0.468 C  
ENDROOT
BRANCH   2   3
HETATM    3  C   UNL     1     -12.029   7.058  71.564  1.00  0.00    -0.334 C  
BRANCH   3   4
HETATM    4  N   UNL     1     -12.208   8.509  71.433  1.00  0.00    -0.301 N  
HETATM    5  O   UNL     1     -14.051   8.852  72.818  1.00  0.00    -0.500 OA 
HETATM    6  C   UNL     1     -11.573   9.248  70.371  1.00  0.00    -0.173 C  
HETATM    7  C   UNL     1     -13.197   9.263  72.046  1.00  0.00    -0.447 C  
HETATM    8  C   UNL     1     -13.120  10.668  71.500  1.00  0.00    -0.527 C  
HETATM    9  C   UNL     1     -11.765  10.686  70.804  1.00  0.00    -0.435 C  
ENDBRANCH   3   4
BRANCH   3  10
HETATM   10  C   UNL     1     -11.197   6.714  72.814  1.00  0.00    -0.227 C  
HETATM   11  H2  UNL     1     -11.892   4.744  72.826  1.00  0.00     0.000 HD 
HETATM   12  N   UNL     1     -11.297   5.436  73.281  1.00  0.00    -0.486 N  
HETATM   13  O   UNL     1     -10.499   7.541  73.396  1.00  0.00    -0.349 OA 
HETATM   14  H1  UNL     1     -10.746   5.209  74.109  1.00  0.00     0.000 HD 
ENDBRANCH   3  10
ENDBRANCH   2   3
TORSDOF 3
ENDMDL
MODEL       61
REMARK 921   NORMALIZED FREE ENERGY PREDICTED BY IDOCK:   -3.50 KCAL/MOL
REMARK 922        TOTAL FREE ENERGY PREDICTED BY IDOCK:   -4.47 KCAL/MOL
REMARK 923 INTER-LIGAND FREE ENERGY PREDICTED BY IDOCK:   -4.40 KCAL/MOL
REMARK 924 INTRA-LIGAND FREE ENERGY PREDICTED BY IDOCK:   -0.07 KCAL/MOL
REMARK 927      BINDING AFFINITY PREDICTED BY RF-SCORE:    0.00 PKD
ROOT
HETATM    1  C   UNL     1     -11.032  10.896  67.179  1.00  0.00    -0.334 C  
HETATM    2  C   UNL     1     -10.688  11.277  68.614  1.00  0.00    -0.241 C  
ENDROOT
BRANCH   2   3
HETATM    3  C   UNL     1     -11.747  10.785  69.613  1.00  0.00    -0.323 C  
BRANCH   3   4
HETATM    4  N   UNL     1     -12.240  11.841  70.507  1.00  0.00    -0.365 N  
HETATM    5  O   UNL     1     -13.413  10.578  72.075  1.00  0.00    -0.379 OA 
HETATM    6  C   UNL     1     -12.233  13.225  70.105  1.00  0.00    -0.306 C  
HETATM    7  C   UNL     1     -13.031  11.649  71.629  1.00  0.00    -0.378 C  
HETATM    8  C   UNL     1     -13.449  13.006  72.143  1.00  0.00    -0.638 C  
HETATM    9  C   UNL     1     -12.512  13.951  71.403  1.00  0.00    -0.424 C  
ENDBRANCH   3   4
BRANCH   3  10
HETATM   10  C   UNL     1     -11.256   9.566  70.416  1.00  0.00    -0.270 C  
HETATM   11  H2  UNL     1     -12.982   8.479  69.964  1.00  0.00     0.000 HD 
HETATM   12  N   UNL     1     -12.084   8.482  70.448  1.00  0.00    -0.449 N  
HETATM   13  O   UNL     1     -10.193   9.560  71.032  1.00  0.00    -0.297 OA 
HETATM   14  H1  UNL     1     -11.759   7.676  70.980  1.00  0.00     0.000 HD 
ENDBRANCH   3  10
ENDBRANCH   2   3
TORSDOF 3
ENDMDL
MODEL       62
REMARK 921   NORMALIZED FREE ENERGY PREDICTED BY IDOCK:   -3.49 KCAL/MOL
REMARK 922        TOTAL FREE ENERGY PREDICTED BY IDOCK:   -4.47 KCAL/MOL
REMARK 923 INTER-LIGAND FREE ENERGY PREDICTED BY IDOCK:   -4.19 KCAL/MOL
REMARK 924 INTRA-LIGAND FREE ENERGY PREDICTED BY IDOCK:   -0.28 KCAL/MOL
REMARK 927      BINDING AFFINITY PREDICTED BY RF-SCORE:    0.00 PKD
ROOT
HETATM    1  C   UNL     1      -8.905   7.986  73.266  1.00  0.00    -0.330 C  
HETATM    2  C   UNL     1     -10.416   7.957  73.071  1.00  0.00    -0.410 C  
ENDROOT
BRANCH   2   3
HETATM    3  C   UNL     1     -10.809   7.987  71.586  1.00  0.00    -0.237 C  
BRANCH   3   4
HETATM    4  N   UNL     1     -11.389   9.268  71.162  1.00  0.00    -0.311 N  
HETATM    5  O   UNL     1      -9.800   9.978  69.612  1.00  0.00    -0.214 OA 
HETATM    6  C   UNL     1     -12.433   9.905  71.924  1.00  0.00    -0.347 C  
HETATM    7  C   UNL     1     -10.833  10.144  70.242  1.00  0.00    -0.310 C  
HETATM    8  C   UNL     1     -11.663  11.406  70.240  1.00  0.00    -0.397 C  
HETATM    9  C   UNL     1     -12.924  10.983  70.982  1.00  0.00    -0.369 C  
ENDBRANCH   3   4
BRANCH   3  10
HETATM   10  C   UNL     1     -11.734   6.812  71.214  1.00  0.00    -0.336 C  
HETATM   11  H2  UNL     1     -12.472   6.678  73.165  1.00  0.00     0.000 HD 
HETATM   12  N   UNL     1     -12.505   6.301  72.217  1.00  0.00    -0.528 N  
HETATM   13  O   UNL     1     -11.767   6.323  70.088  1.00  0.00    -0.398 OA 
HETATM   14  H1  UNL     1     -13.117   5.523  71.970  1.00  0.00     0.000 HD 
ENDBRANCH   3  10
ENDBRANCH   2   3
TORSDOF 3
ENDMDL
MODEL       63
REMARK 921   NORMALIZED FREE ENERGY PREDICTED BY IDOCK:   -3.49 KCAL/MOL
REMARK 922        TOTAL FREE ENERGY PREDICTED BY IDOCK:   -4.46 KCAL/MOL
REMARK 923 INTER-LIGAND FREE ENERGY PREDICTED BY IDOCK:   -4.11 KCAL/MOL
REMARK 924 INTRA-LIGAND FREE ENERGY PREDICTED BY IDOCK:   -0.35 KCAL/MOL
REMARK 927      BINDING AFFINITY PREDICTED BY RF-SCORE:    0.00 PKD
ROOT
HETATM    1  C   UNL     1     -11.272  10.667  67.931  1.00  0.00    -0.376 C  
HETATM    2  C   UNL     1     -10.879  11.949  68.656  1.00  0.00    -0.273 C  
ENDROOT
BRANCH   2   3
HETATM    3  C   UNL     1     -11.631  13.174  68.113  1.00  0.00    -0.339 C  
BRANCH   3   4
HETATM    4  N   UNL     1     -11.511  13.335  66.658  1.00  0.00    -0.332 N  
HETATM    5  O   UNL     1      -9.207  13.606  66.434  1.00  0.00    -0.222 OA 
HETATM    6  C   UNL     1     -12.661  13.626  65.841  1.00  0.00    -0.372 C  
HETATM    7  C   UNL     1     -10.332  13.551  65.960  1.00  0.00    -0.303 C  
HETATM    8  C   UNL     1     -10.687  13.833  64.521  1.00  0.00    -0.405 C  
HETATM    9  C   UNL     1     -12.142  13.391  64.438  1.00  0.00    -0.468 C  
ENDBRANCH   3   4
BRANCH   3  10
HETATM   10  C   UNL     1     -11.225  14.467  68.846  1.00  0.00    -0.262 C  
HETATM   11  H2  UNL     1      -9.312  13.728  69.246  1.00  0.00     0.000 HD 
HETATM   12  N   UNL     1      -9.958  14.511  69.350  1.00  0.00    -0.423 N  
HETATM   13  O   UNL     1     -11.997  15.409  69.010  1.00  0.00    -0.337 OA 
HETATM   14  H1  UNL     1      -9.690  15.367  69.835  1.00  0.00     0.000 HD 
ENDBRANCH   3  10
ENDBRANCH   2   3
TORSDOF 3
ENDMDL
MODEL       64
REMARK 921   NORMALIZED FREE ENERGY PREDICTED BY IDOCK:   -3.49 KCAL/MOL
REMARK 922        TOTAL FREE ENERGY PREDICTED BY IDOCK:   -4.46 KCAL/MOL
REMARK 923 INTER-LIGAND FREE ENERGY PREDICTED BY IDOCK:   -4.20 KCAL/MOL
REMARK 924 INTRA-LIGAND FREE ENERGY PREDICTED BY IDOCK:   -0.26 KCAL/MOL
REMARK 927      BINDING AFFINITY PREDICTED BY RF-SCORE:    0.00 PKD
ROOT
HETATM    1  C   UNL     1      -9.292   8.220  66.105  1.00  0.00    -0.254 C  
HETATM    2  C   UNL     1      -9.279   9.474  65.238  1.00  0.00    -0.307 C  
ENDROOT
BRANCH   2   3
HETATM    3  C   UNL     1      -9.716  10.722  66.019  1.00  0.00    -0.217 C  
BRANCH   3   4
HETATM    4  N   UNL     1     -10.724  11.526  65.317  1.00  0.00    -0.286 N  
HETATM    5  O   UNL     1     -11.992  12.306  67.110  1.00  0.00    -0.564 OA 
HETATM    6  C   UNL     1     -10.932  11.392  63.897  1.00  0.00    -0.366 C  
HETATM    7  C   UNL     1     -11.767  12.220  65.912  1.00  0.00    -0.389 C  
HETATM    8  C   UNL     1     -12.657  12.756  64.817  1.00  0.00    -0.518 C  
HETATM    9  C   UNL     1     -11.796  12.591  63.571  1.00  0.00    -0.616 C  
ENDBRANCH   3   4
BRANCH   3  10
HETATM   10  C   UNL     1      -8.512  11.588  66.436  1.00  0.00    -0.138 C  
HETATM   11  H2  UNL     1      -7.175  10.358  65.404  1.00  0.00     0.000 HD 
HETATM   12  N   UNL     1      -7.287  11.188  65.987  1.00  0.00    -0.356 N  
HETATM   13  O   UNL     1      -8.621  12.573  67.163  1.00  0.00    -0.188 OA 
HETATM   14  H1  UNL     1      -6.491  11.761  66.264  1.00  0.00     0.000 HD 
ENDBRANCH   3  10
ENDBRANCH   2   3
TORSDOF 3
ENDMDL
MODEL       65
REMARK 921   NORMALIZED FREE ENERGY PREDICTED BY IDOCK:   -3.48 KCAL/MOL
REMARK 922        TOTAL FREE ENERGY PREDICTED BY IDOCK:   -4.45 KCAL/MOL
REMARK 923 INTER-LIGAND FREE ENERGY PREDICTED BY IDOCK:   -4.09 KCAL/MOL
REMARK 924 INTRA-LIGAND FREE ENERGY PREDICTED BY IDOCK:   -0.36 KCAL/MOL
REMARK 927      BINDING AFFINITY PREDICTED BY RF-SCORE:    0.00 PKD
ROOT
HETATM    1  C   UNL     1     -12.260  14.159  64.328  1.00  0.00    -0.449 C  
HETATM    2  C   UNL     1     -12.334  13.279  65.571  1.00  0.00    -0.533 C  
ENDROOT
BRANCH   2   3
HETATM    3  C   UNL     1     -11.946  14.044  66.845  1.00  0.00    -0.447 C  
BRANCH   3   4
HETATM    4  N   UNL     1     -10.695  14.802  66.712  1.00  0.00    -0.302 N  
HETATM    5  O   UNL     1      -9.155  13.071  66.466  1.00  0.00    -0.214 OA 
HETATM    6  C   UNL     1     -10.622  16.194  67.079  1.00  0.00    -0.292 C  
HETATM    7  C   UNL     1      -9.429  14.258  66.556  1.00  0.00    -0.287 C  
HETATM    8  C   UNL     1      -8.425  15.381  66.639  1.00  0.00    -0.296 C  
HETATM    9  C   UNL     1      -9.294  16.624  66.494  1.00  0.00    -0.290 C  
ENDBRANCH   3   4
BRANCH   3  10
HETATM   10  C   UNL     1     -11.904  13.121  68.078  1.00  0.00    -0.358 C  
HETATM   11  H2  UNL     1     -11.570  11.432  66.893  1.00  0.00     0.000 HD 
HETATM   12  N   UNL     1     -11.693  11.794  67.839  1.00  0.00    -0.301 N  
HETATM   13  O   UNL     1     -12.081  13.530  69.222  1.00  0.00    -0.322 OA 
HETATM   14  H1  UNL     1     -11.666  11.183  68.655  1.00  0.00     0.000 HD 
ENDBRANCH   3  10
ENDBRANCH   2   3
TORSDOF 3
ENDMDL
MODEL       66
REMARK 921   NORMALIZED FREE ENERGY PREDICTED BY IDOCK:   -3.48 KCAL/MOL
REMARK 922        TOTAL FREE ENERGY PREDICTED BY IDOCK:   -4.45 KCAL/MOL
REMARK 923 INTER-LIGAND FREE ENERGY PREDICTED BY IDOCK:   -4.20 KCAL/MOL
REMARK 924 INTRA-LIGAND FREE ENERGY PREDICTED BY IDOCK:   -0.26 KCAL/MOL
REMARK 927      BINDING AFFINITY PREDICTED BY RF-SCORE:    0.00 PKD
ROOT
HETATM    1  C   UNL     1     -10.591   8.716  67.300  1.00  0.00    -0.308 C  
HETATM    2  C   UNL     1      -9.768   9.981  67.080  1.00  0.00    -0.227 C  
ENDROOT
BRANCH   2   3
HETATM    3  C   UNL     1     -10.654  11.213  66.841  1.00  0.00    -0.258 C  
BRANCH   3   4
HETATM    4  N   UNL     1     -10.762  11.588  65.425  1.00  0.00    -0.285 N  
HETATM    5  O   UNL     1     -12.767  12.776  65.436  1.00  0.00    -0.621 OA 
HETATM    6  C   UNL     1      -9.959  10.942  64.417  1.00  0.00    -0.322 C  
HETATM    7  C   UNL     1     -11.801  12.307  64.853  1.00  0.00    -0.358 C  
HETATM    8  C   UNL     1     -11.599  12.311  63.357  1.00  0.00    -0.530 C  
HETATM    9  C   UNL     1     -10.160  11.832  63.209  1.00  0.00    -0.448 C  
ENDBRANCH   3   4
BRANCH   3  10
HETATM   10  C   UNL     1     -10.208  12.414  67.697  1.00  0.00    -0.207 C  
HETATM   11  H2  UNL     1     -11.063  11.597  69.420  1.00  0.00     0.000 HD 
HETATM   12  N   UNL     1     -10.544  12.379  69.019  1.00  0.00    -0.410 N  
HETATM   13  O   UNL     1      -9.610  13.379  67.229  1.00  0.00    -0.221 OA 
HETATM   14  H1  UNL     1     -10.250  13.174  69.585  1.00  0.00     0.000 HD 
ENDBRANCH   3  10
ENDBRANCH   2   3
TORSDOF 3
ENDMDL
MODEL       67
REMARK 921   NORMALIZED FREE ENERGY PREDICTED BY IDOCK:   -3.47 KCAL/MOL
REMARK 922        TOTAL FREE ENERGY PREDICTED BY IDOCK:   -4.43 KCAL/MOL
REMARK 923 INTER-LIGAND FREE ENERGY PREDICTED BY IDOCK:   -4.16 KCAL/MOL
REMARK 924 INTRA-LIGAND FREE ENERGY PREDICTED BY IDOCK:   -0.27 KCAL/MOL
REMARK 927      BINDING AFFINITY PREDICTED BY RF-SCORE:    0.00 PKD
ROOT
HETATM    1  C   UNL     1      -9.770   9.538  65.609  1.00  0.00    -0.361 C  
HETATM    2  C   UNL     1      -9.654  10.684  66.608  1.00  0.00    -0.209 C  
ENDROOT
BRANCH   2   3
HETATM    3  C   UNL     1     -10.986  10.969  67.319  1.00  0.00    -0.297 C  
BRANCH   3   4
HETATM    4  N   UNL     1     -11.429  12.363  67.189  1.00  0.00    -0.335 N  
HETATM    5  O   UNL     1     -12.470  12.301  65.104  1.00  0.00    -0.563 OA 
HETATM    6  C   UNL     1     -10.899  13.399  68.038  1.00  0.00    -0.247 C  
HETATM    7  C   UNL     1     -12.105  12.902  66.103  1.00  0.00    -0.393 C  
HETATM    8  C   UNL     1     -12.205  14.394  66.309  1.00  0.00    -0.366 C  
HETATM    9  C   UNL     1     -11.838  14.557  67.779  1.00  0.00    -0.390 C  
ENDBRANCH   3   4
BRANCH   3  10
HETATM   10  C   UNL     1     -10.952  10.536  68.797  1.00  0.00    -0.251 C  
HETATM   11  H2  UNL     1     -13.023  10.743  68.982  1.00  0.00     0.000 HD 
HETATM   12  N   UNL     1     -12.149  10.498  69.449  1.00  0.00    -0.538 N  
HETATM   13  O   UNL     1      -9.909  10.268  69.387  1.00  0.00    -0.212 OA 
HETATM   14  H1  UNL     1     -12.127  10.212  70.428  1.00  0.00     0.000 HD 
ENDBRANCH   3  10
ENDBRANCH   2   3
TORSDOF 3
ENDMDL
MODEL       68
REMARK 921   NORMALIZED FREE ENERGY PREDICTED BY IDOCK:   -3.46 KCAL/MOL
REMARK 922        TOTAL FREE ENERGY PREDICTED BY IDOCK:   -4.43 KCAL/MOL
REMARK 923 INTER-LIGAND FREE ENERGY PREDICTED BY IDOCK:   -4.09 KCAL/MOL
REMARK 924 INTRA-LIGAND FREE ENERGY PREDICTED BY IDOCK:   -0.34 KCAL/MOL
REMARK 927      BINDING AFFINITY PREDICTED BY RF-SCORE:    0.00 PKD
ROOT
HETATM    1  C   UNL     1     -12.492  12.110  63.458  1.00  0.00    -0.666 C  
HETATM    2  C   UNL     1     -12.340  12.725  64.844  1.00  0.00    -0.551 C  
ENDROOT
BRANCH   2   3
HETATM    3  C   UNL     1     -10.887  12.680  65.342  1.00  0.00    -0.287 C  
BRANCH   3   4
HETATM    4  N   UNL     1     -10.591  11.505  66.171  1.00  0.00    -0.258 N  
HETATM    5  O   UNL     1      -9.567  10.111  64.609  1.00  0.00    -0.278 OA 
HETATM    6  C   UNL     1     -11.218  11.318  67.455  1.00  0.00    -0.303 C  
HETATM    7  C   UNL     1      -9.984  10.337  65.735  1.00  0.00    -0.271 C  
HETATM    8  C   UNL     1     -10.036   9.334  66.862  1.00  0.00    -0.324 C  
HETATM    9  C   UNL     1     -10.406  10.195  68.063  1.00  0.00    -0.227 C  
ENDBRANCH   3   4
BRANCH   3  10
HETATM   10  C   UNL     1     -10.488  13.981  66.065  1.00  0.00    -0.304 C  
HETATM   11  H2  UNL     1     -12.485  14.544  66.311  1.00  0.00     0.000 HD 
HETATM   12  N   UNL     1     -11.508  14.789  66.475  1.00  0.00    -0.349 N  
HETATM   13  O   UNL     1      -9.318  14.310  66.244  1.00  0.00    -0.272 OA 
HETATM   14  H1  UNL     1     -11.244  15.650  66.953  1.00  0.00     0.000 HD 
ENDBRANCH   3  10
ENDBRANCH   2   3
TORSDOF 3
ENDMDL
MODEL       69
REMARK 921   NORMALIZED FREE ENERGY PREDICTED BY IDOCK:   -3.41 KCAL/MOL
REMARK 922        TOTAL FREE ENERGY PREDICTED BY IDOCK:   -4.37 KCAL/MOL
REMARK 923 INTER-LIGAND FREE ENERGY PREDICTED BY IDOCK:   -4.56 KCAL/MOL
REMARK 924 INTRA-LIGAND FREE ENERGY PREDICTED BY IDOCK:    0.19 KCAL/MOL
REMARK 927      BINDING AFFINITY PREDICTED BY RF-SCORE:    0.00 PKD
ROOT
HETATM    1  C   UNL     1     -11.824  12.089  68.498  1.00  0.00    -0.369 C  
HETATM    2  C   UNL     1     -12.035  13.583  68.281  1.00  0.00    -0.377 C  
ENDROOT
BRANCH   2   3
HETATM    3  C   UNL     1     -11.420  14.068  66.959  1.00  0.00    -0.351 C  
BRANCH   3   4
HETATM    4  N   UNL     1     -11.006  15.477  66.991  1.00  0.00    -0.311 N  
HETATM    5  O   UNL     1     -10.464  15.828  64.752  1.00  0.00    -0.490 OA 
HETATM    6  C   UNL     1     -10.701  16.138  68.235  1.00  0.00    -0.307 C  
HETATM    7  C   UNL     1     -10.554  16.214  65.907  1.00  0.00    -0.312 C  
HETATM    8  C   UNL     1     -10.072  17.550  66.419  1.00  0.00    -0.346 C  
HETATM    9  C   UNL     1     -10.641  17.596  67.832  1.00  0.00    -0.390 C  
ENDBRANCH   3   4
BRANCH   3  10
HETATM   10  C   UNL     1     -12.348  13.793  65.760  1.00  0.00    -0.486 C  
HETATM   11  H2  UNL     1     -11.255  12.099  65.210  1.00  0.00     0.000 HD 
HETATM   12  N   UNL     1     -12.051  12.702  64.997  1.00  0.00    -0.420 N  
HETATM   13  O   UNL     1     -13.291  14.523  65.468  1.00  0.00    -0.404 OA 
HETATM   14  H1  UNL     1     -12.664  12.520  64.203  1.00  0.00     0.000 HD 
ENDBRANCH   3  10
ENDBRANCH   2   3
TORSDOF 3
ENDMDL
MODEL       70
REMARK 921   NORMALIZED FREE ENERGY PREDICTED BY IDOCK:   -3.40 KCAL/MOL
REMARK 922        TOTAL FREE ENERGY PREDICTED BY IDOCK:   -4.35 KCAL/MOL
REMARK 923 INTER-LIGAND FREE ENERGY PREDICTED BY IDOCK:   -4.44 KCAL/MOL
REMARK 924 INTRA-LIGAND FREE ENERGY PREDICTED BY IDOCK:    0.09 KCAL/MOL
REMARK 927      BINDING AFFINITY PREDICTED BY RF-SCORE:    0.00 PKD
ROOT
HETATM    1  C   UNL     1     -10.432  10.184  67.783  1.00  0.00    -0.277 C  
HETATM    2  C   UNL     1     -11.180  11.260  67.004  1.00  0.00    -0.324 C  
ENDROOT
BRANCH   2   3
HETATM    3  C   UNL     1     -10.244  12.075  66.099  1.00  0.00    -0.226 C  
BRANCH   3   4
HETATM    4  N   UNL     1     -10.864  13.297  65.570  1.00  0.00    -0.281 N  
HETATM    5  O   UNL     1     -12.955  12.489  64.932  1.00  0.00    -0.821 OA 
HETATM    6  C   UNL     1     -10.073  14.458  65.249  1.00  0.00    -0.356 C  
HETATM    7  C   UNL     1     -12.136  13.391  65.025  1.00  0.00    -0.401 C  
HETATM    8  C   UNL     1     -12.296  14.777  64.449  1.00  0.00    -0.389 C  
HETATM    9  C   UNL     1     -11.121  15.533  65.055  1.00  0.00    -0.411 C  
ENDBRANCH   3   4
BRANCH   3  10
HETATM   10  C   UNL     1      -9.654  11.218  64.963  1.00  0.00    -0.233 C  
HETATM   11  H2  UNL     1      -7.742  11.288  65.803  1.00  0.00     0.000 HD 
HETATM   12  N   UNL     1      -8.320  10.944  65.036  1.00  0.00    -0.369 N  
HETATM   13  O   UNL     1     -10.324  10.820  64.014  1.00  0.00    -0.354 OA 
HETATM   14  H1  UNL     1      -7.929  10.377  64.284  1.00  0.00     0.000 HD 
ENDBRANCH   3  10
ENDBRANCH   2   3
TORSDOF 3
ENDMDL
MODEL       71
REMARK 921   NORMALIZED FREE ENERGY PREDICTED BY IDOCK:   -3.39 KCAL/MOL
REMARK 922        TOTAL FREE ENERGY PREDICTED BY IDOCK:   -4.35 KCAL/MOL
REMARK 923 INTER-LIGAND FREE ENERGY PREDICTED BY IDOCK:   -4.01 KCAL/MOL
REMARK 924 INTRA-LIGAND FREE ENERGY PREDICTED BY IDOCK:   -0.33 KCAL/MOL
REMARK 927      BINDING AFFINITY PREDICTED BY RF-SCORE:    0.00 PKD
ROOT
HETATM    1  C   UNL     1      -8.939   9.263  70.714  1.00  0.00    -0.292 C  
HETATM    2  C   UNL     1     -10.447   9.167  70.514  1.00  0.00    -0.289 C  
ENDROOT
BRANCH   2   3
HETATM    3  C   UNL     1     -11.194   8.942  71.838  1.00  0.00    -0.377 C  
BRANCH   3   4
HETATM    4  N   UNL     1     -11.090   7.566  72.339  1.00  0.00    -0.278 N  
HETATM    5  O   UNL     1      -9.404   7.803  73.930  1.00  0.00    -0.277 OA 
HETATM    6  C   UNL     1     -11.670   6.462  71.617  1.00  0.00    -0.313 C  
HETATM    7  C   UNL     1     -10.207   7.121  73.311  1.00  0.00    -0.300 C  
HETATM    8  C   UNL     1     -10.318   5.618  73.390  1.00  0.00    -0.242 C  
HETATM    9  C   UNL     1     -11.603   5.333  72.623  1.00  0.00    -0.226 C  
ENDBRANCH   3   4
BRANCH   3  10
HETATM   10  C   UNL     1     -12.666   9.388  71.749  1.00  0.00    -0.390 C  
HETATM   11  H2  UNL     1     -12.416  10.080  69.793  1.00  0.00     0.000 HD 
HETATM   12  N   UNL     1     -13.062   9.957  70.573  1.00  0.00    -0.586 N  
HETATM   13  O   UNL     1     -13.452   9.278  72.686  1.00  0.00    -0.444 OA 
HETATM   14  H1  UNL     1     -14.036  10.252  70.515  1.00  0.00     0.000 HD 
ENDBRANCH   3  10
ENDBRANCH   2   3
TORSDOF 3
ENDMDL
MODEL       72
REMARK 921   NORMALIZED FREE ENERGY PREDICTED BY IDOCK:   -3.39 KCAL/MOL
REMARK 922        TOTAL FREE ENERGY PREDICTED BY IDOCK:   -4.34 KCAL/MOL
REMARK 923 INTER-LIGAND FREE ENERGY PREDICTED BY IDOCK:   -4.26 KCAL/MOL
REMARK 924 INTRA-LIGAND FREE ENERGY PREDICTED BY IDOCK:   -0.09 KCAL/MOL
REMARK 927      BINDING AFFINITY PREDICTED BY RF-SCORE:    0.00 PKD
ROOT
HETATM    1  C   UNL     1     -10.357  14.649  65.032  1.00  0.00    -0.432 C  
HETATM    2  C   UNL     1      -9.621  15.350  66.168  1.00  0.00    -0.362 C  
ENDROOT
BRANCH   2   3
HETATM    3  C   UNL     1     -10.577  16.129  67.084  1.00  0.00    -0.294 C  
BRANCH   3   4
HETATM    4  N   UNL     1     -10.067  17.451  67.471  1.00  0.00    -0.310 N  
HETATM    5  O   UNL     1      -8.193  16.850  68.720  1.00  0.00    -0.241 OA 
HETATM    6  C   UNL     1     -10.884  18.632  67.353  1.00  0.00    -0.324 C  
HETATM    7  C   UNL     1      -8.949  17.690  68.257  1.00  0.00    -0.276 C  
HETATM    8  C   UNL     1      -8.893  19.170  68.549  1.00  0.00    -0.406 C  
HETATM    9  C   UNL     1      -9.884  19.751  67.548  1.00  0.00    -0.516 C  
ENDBRANCH   3   4
BRANCH   3  10
HETATM   10  C   UNL     1     -10.981  15.308  68.324  1.00  0.00    -0.276 C  
HETATM   11  H2  UNL     1     -12.711  16.446  68.605  1.00  0.00     0.000 HD 
HETATM   12  N   UNL     1     -12.140  15.671  68.945  1.00  0.00    -0.584 N  
HETATM   13  O   UNL     1     -10.293  14.393  68.768  1.00  0.00    -0.234 OA 
HETATM   14  H1  UNL     1     -12.407  15.128  69.765  1.00  0.00     0.000 HD 
ENDBRANCH   3  10
ENDBRANCH   2   3
TORSDOF 3
ENDMDL
MODEL       73
REMARK 921   NORMALIZED FREE ENERGY PREDICTED BY IDOCK:   -3.37 KCAL/MOL
REMARK 922        TOTAL FREE ENERGY PREDICTED BY IDOCK:   -4.33 KCAL/MOL
REMARK 923 INTER-LIGAND FREE ENERGY PREDICTED BY IDOCK:   -3.97 KCAL/MOL
REMARK 924 INTRA-LIGAND FREE ENERGY PREDICTED BY IDOCK:   -0.36 KCAL/MOL
REMARK 927      BINDING AFFINITY PREDICTED BY RF-SCORE:    0.00 PKD
ROOT
HETATM    1  C   UNL     1     -11.099  16.337  69.803  1.00  0.00    -0.337 C  
HETATM    2  C   UNL     1     -10.896  16.112  68.309  1.00  0.00    -0.326 C  
ENDROOT
BRANCH   2   3
HETATM    3  C   UNL     1      -9.605  16.767  67.795  1.00  0.00    -0.241 C  
BRANCH   3   4
HETATM    4  N   UNL     1      -9.797  18.145  67.325  1.00  0.00    -0.303 N  
HETATM    5  O   UNL     1      -9.035  19.349  69.170  1.00  0.00    -0.305 OA 
HETATM    6  C   UNL     1     -10.625  18.436  66.182  1.00  0.00    -0.315 C  
HETATM    7  C   UNL     1      -9.518  19.295  68.049  1.00  0.00    -0.335 C  
HETATM    8  C   UNL     1     -10.029  20.477  67.261  1.00  0.00    -0.528 C  
HETATM    9  C   UNL     1     -10.284  19.880  65.883  1.00  0.00    -0.552 C  
ENDBRANCH   3   4
BRANCH   3  10
HETATM   10  C   UNL     1      -8.914  15.908  66.719  1.00  0.00    -0.251 C  
HETATM   11  H2  UNL     1      -7.151  17.021  66.856  1.00  0.00     0.000 HD 
HETATM   12  N   UNL     1      -7.630  16.242  66.402  1.00  0.00    -0.188 N  
HETATM   13  O   UNL     1      -9.482  14.987  66.138  1.00  0.00    -0.286 OA 
HETATM   14  H1  UNL     1      -7.173  15.674  65.690  1.00  0.00     0.000 HD 
ENDBRANCH   3  10
ENDBRANCH   2   3
TORSDOF 3
ENDMDL
MODEL       74
REMARK 921   NORMALIZED FREE ENERGY PREDICTED BY IDOCK:   -3.36 KCAL/MOL
REMARK 922        TOTAL FREE ENERGY PREDICTED BY IDOCK:   -4.31 KCAL/MOL
REMARK 923 INTER-LIGAND FREE ENERGY PREDICTED BY IDOCK:   -4.04 KCAL/MOL
REMARK 924 INTRA-LIGAND FREE ENERGY PREDICTED BY IDOCK:   -0.27 KCAL/MOL
REMARK 927      BINDING AFFINITY PREDICTED BY RF-SCORE:    0.00 PKD
ROOT
HETATM    1  C   UNL     1     -11.816  11.979  69.259  1.00  0.00    -0.377 C  
HETATM    2  C   UNL     1     -11.353  11.276  67.988  1.00  0.00    -0.372 C  
ENDROOT
BRANCH   2   3
HETATM    3  C   UNL     1     -10.495  12.191  67.101  1.00  0.00    -0.219 C  
BRANCH   3   4
HETATM    4  N   UNL     1     -11.064  12.407  65.764  1.00  0.00    -0.303 N  
HETATM    5  O   UNL     1     -12.613  14.089  66.212  1.00  0.00    -0.451 OA 
HETATM    6  C   UNL     1     -10.868  11.450  64.705  1.00  0.00    -0.292 C  
HETATM    7  C   UNL     1     -12.068  13.309  65.446  1.00  0.00    -0.422 C  
HETATM    8  C   UNL     1     -12.466  13.076  64.009  1.00  0.00    -0.369 C  
HETATM    9  C   UNL     1     -11.331  12.209  63.480  1.00  0.00    -0.535 C  
ENDBRANCH   3   4
BRANCH   3  10
HETATM   10  C   UNL     1      -9.038  11.699  67.009  1.00  0.00    -0.179 C  
HETATM   11  H2  UNL     1      -8.399  13.514  66.193  1.00  0.00     0.000 HD 
HETATM   12  N   UNL     1      -8.128  12.578  66.498  1.00  0.00    -0.389 N  
HETATM   13  O   UNL     1      -8.696  10.567  67.340  1.00  0.00    -0.126 OA 
HETATM   14  H1  UNL     1      -7.164  12.252  66.436  1.00  0.00     0.000 HD 
ENDBRANCH   3  10
ENDBRANCH   2   3
TORSDOF 3
ENDMDL
MODEL       75
REMARK 921   NORMALIZED FREE ENERGY PREDICTED BY IDOCK:   -3.36 KCAL/MOL
REMARK 922        TOTAL FREE ENERGY PREDICTED BY IDOCK:   -4.31 KCAL/MOL
REMARK 923 INTER-LIGAND FREE ENERGY PREDICTED BY IDOCK:   -3.92 KCAL/MOL
REMARK 924 INTRA-LIGAND FREE ENERGY PREDICTED BY IDOCK:   -0.39 KCAL/MOL
REMARK 927      BINDING AFFINITY PREDICTED BY RF-SCORE:    0.00 PKD
ROOT
HETATM    1  C   UNL     1     -12.129  13.876  64.210  1.00  0.00    -0.477 C  
HETATM    2  C   UNL     1     -10.793  14.111  64.906  1.00  0.00    -0.423 C  
ENDROOT
BRANCH   2   3
HETATM    3  C   UNL     1     -10.958  14.323  66.419  1.00  0.00    -0.311 C  
BRANCH   3   4
HETATM    4  N   UNL     1     -10.559  15.663  66.867  1.00  0.00    -0.309 N  
HETATM    5  O   UNL     1     -11.824  15.870  68.814  1.00  0.00    -0.393 OA 
HETATM    6  C   UNL     1      -9.885  16.578  65.981  1.00  0.00    -0.322 C  
HETATM    7  C   UNL     1     -11.033  16.315  67.996  1.00  0.00    -0.328 C  
HETATM    8  C   UNL     1     -10.498  17.726  67.978  1.00  0.00    -0.399 C  
HETATM    9  C   UNL     1      -9.401  17.659  66.923  1.00  0.00    -0.268 C  
ENDBRANCH   3   4
BRANCH   3  10
HETATM   10  C   UNL     1     -10.236  13.231  67.232  1.00  0.00    -0.240 C  
HETATM   11  H2  UNL     1     -11.891  12.963  68.480  1.00  0.00     0.000 HD 
HETATM   12  N   UNL     1     -10.938  12.673  68.261  1.00  0.00    -0.235 N  
HETATM   13  O   UNL     1      -9.079  12.888  67.006  1.00  0.00    -0.214 OA 
HETATM   14  H1  UNL     1     -10.461  11.951  68.800  1.00  0.00     0.000 HD 
ENDBRANCH   3  10
ENDBRANCH   2   3
TORSDOF 3
ENDMDL
MODEL       76
REMARK 921   NORMALIZED FREE ENERGY PREDICTED BY IDOCK:   -3.36 KCAL/MOL
REMARK 922        TOTAL FREE ENERGY PREDICTED BY IDOCK:   -4.30 KCAL/MOL
REMARK 923 INTER-LIGAND FREE ENERGY PREDICTED BY IDOCK:   -3.97 KCAL/MOL
REMARK 924 INTRA-LIGAND FREE ENERGY PREDICTED BY IDOCK:   -0.33 KCAL/MOL
REMARK 927      BINDING AFFINITY PREDICTED BY RF-SCORE:    0.00 PKD
ROOT
HETATM    1  C   UNL     1      -9.669  10.126  67.523  1.00  0.00    -0.190 C  
HETATM    2  C   UNL     1     -10.276  10.123  66.125  1.00  0.00    -0.285 C  
ENDROOT
BRANCH   2   3
HETATM    3  C   UNL     1      -9.844  11.347  65.303  1.00  0.00    -0.248 C  
BRANCH   3   4
HETATM    4  N   UNL     1     -10.645  12.547  65.579  1.00  0.00    -0.268 N  
HETATM    5  O   UNL     1      -9.075  13.883  66.667  1.00  0.00    -0.247 OA 
HETATM    6  C   UNL     1     -12.083  12.523  65.488  1.00  0.00    -0.419 C  
HETATM    7  C   UNL     1     -10.203  13.682  66.242  1.00  0.00    -0.296 C  
HETATM    8  C   UNL     1     -11.391  14.587  66.461  1.00  0.00    -0.354 C  
HETATM    9  C   UNL     1     -12.445  13.992  65.535  1.00  0.00    -0.533 C  
ENDBRANCH   3   4
BRANCH   3  10
HETATM   10  C   UNL     1      -9.808  11.042  63.794  1.00  0.00    -0.330 C  
HETATM   11  H2  UNL     1      -9.503   9.004  64.138  1.00  0.00     0.000 HD 
HETATM   12  N   UNL     1      -9.617   9.738  63.439  1.00  0.00    -0.504 N  
HETATM   13  O   UNL     1      -9.911  11.915  62.936  1.00  0.00    -0.300 OA 
HETATM   14  H1  UNL     1      -9.593   9.536  62.440  1.00  0.00     0.000 HD 
ENDBRANCH   3  10
ENDBRANCH   2   3
TORSDOF 3
ENDMDL
MODEL       77
REMARK 921   NORMALIZED FREE ENERGY PREDICTED BY IDOCK:   -3.35 KCAL/MOL
REMARK 922        TOTAL FREE ENERGY PREDICTED BY IDOCK:   -4.29 KCAL/MOL
REMARK 923 INTER-LIGAND FREE ENERGY PREDICTED BY IDOCK:   -3.94 KCAL/MOL
REMARK 924 INTRA-LIGAND FREE ENERGY PREDICTED BY IDOCK:   -0.35 KCAL/MOL
REMARK 927      BINDING AFFINITY PREDICTED BY RF-SCORE:    0.00 PKD
ROOT
HETATM    1  C   UNL     1     -10.618   6.391  73.367  1.00  0.00    -0.298 C  
HETATM    2  C   UNL     1     -11.254   7.712  72.951  1.00  0.00    -0.426 C  
ENDROOT
BRANCH   2   3
HETATM    3  C   UNL     1     -12.119   7.566  71.689  1.00  0.00    -0.311 C  
BRANCH   3   4
HETATM    4  N   UNL     1     -11.384   7.825  70.445  1.00  0.00    -0.248 N  
HETATM    5  O   UNL     1     -10.969   5.650  69.718  1.00  0.00    -0.345 OA 
HETATM    6  C   UNL     1     -10.827   9.124  70.162  1.00  0.00    -0.240 C  
HETATM    7  C   UNL     1     -10.866   6.861  69.593  1.00  0.00    -0.259 C  
HETATM    8  C   UNL     1     -10.041   7.562  68.541  1.00  0.00    -0.198 C  
HETATM    9  C   UNL     1     -10.461   9.019  68.697  1.00  0.00    -0.229 C  
ENDBRANCH   3   4
BRANCH   3  10
HETATM   10  C   UNL     1     -13.396   8.426  71.766  1.00  0.00    -0.357 C  
HETATM   11  H2  UNL     1     -14.323   7.316  70.258  1.00  0.00     0.000 HD 
HETATM   12  N   UNL     1     -14.407   8.094  70.913  1.00  0.00    -0.576 N  
HETATM   13  O   UNL     1     -13.506   9.386  72.524  1.00  0.00    -0.455 OA 
HETATM   14  H1  UNL     1     -15.251   8.663  70.963  1.00  0.00     0.000 HD 
ENDBRANCH   3  10
ENDBRANCH   2   3
TORSDOF 3
ENDMDL
MODEL       78
REMARK 921   NORMALIZED FREE ENERGY PREDICTED BY IDOCK:   -3.35 KCAL/MOL
REMARK 922        TOTAL FREE ENERGY PREDICTED BY IDOCK:   -4.29 KCAL/MOL
REMARK 923 INTER-LIGAND FREE ENERGY PREDICTED BY IDOCK:   -3.98 KCAL/MOL
REMARK 924 INTRA-LIGAND FREE ENERGY PREDICTED BY IDOCK:   -0.31 KCAL/MOL
REMARK 927      BINDING AFFINITY PREDICTED BY RF-SCORE:    0.00 PKD
ROOT
HETATM    1  C   UNL     1     -13.179  11.028  71.953  1.00  0.00    -0.503 C  
HETATM    2  C   UNL     1     -12.807  10.595  70.540  1.00  0.00    -0.356 C  
ENDROOT
BRANCH   2   3
HETATM    3  C   UNL     1     -11.444  11.153  70.103  1.00  0.00    -0.272 C  
BRANCH   3   4
HETATM    4  N   UNL     1     -11.538  12.139  69.019  1.00  0.00    -0.296 N  
HETATM    5  O   UNL     1     -12.007  14.077  70.226  1.00  0.00    -0.305 OA 
HETATM    6  C   UNL     1     -11.681  11.728  67.645  1.00  0.00    -0.250 C  
HETATM    7  C   UNL     1     -11.825  13.488  69.171  1.00  0.00    -0.340 C  
HETATM    8  C   UNL     1     -11.998  14.086  67.796  1.00  0.00    -0.392 C  
HETATM    9  C   UNL     1     -11.421  13.011  66.884  1.00  0.00    -0.387 C  
ENDBRANCH   3   4
BRANCH   3  10
HETATM   10  C   UNL     1     -10.452  10.031  69.744  1.00  0.00    -0.256 C  
HETATM   11  H2  UNL     1     -11.986   8.619  69.605  1.00  0.00     0.000 HD 
HETATM   12  N   UNL     1     -10.983   8.792  69.531  1.00  0.00    -0.412 N  
HETATM   13  O   UNL     1      -9.239  10.210  69.680  1.00  0.00    -0.214 OA 
HETATM   14  H1  UNL     1     -10.327   8.049  69.293  1.00  0.00     0.000 HD 
ENDBRANCH   3  10
ENDBRANCH   2   3
TORSDOF 3
ENDMDL
MODEL       79
REMARK 921   NORMALIZED FREE ENERGY PREDICTED BY IDOCK:   -3.34 KCAL/MOL
REMARK 922        TOTAL FREE ENERGY PREDICTED BY IDOCK:   -4.28 KCAL/MOL
REMARK 923 INTER-LIGAND FREE ENERGY PREDICTED BY IDOCK:   -3.99 KCAL/MOL
REMARK 924 INTRA-LIGAND FREE ENERGY PREDICTED BY IDOCK:   -0.29 KCAL/MOL
REMARK 927      BINDING AFFINITY PREDICTED BY RF-SCORE:    0.00 PKD
ROOT
HETATM    1  C   UNL     1      -8.701  15.764  67.862  1.00  0.00    -0.170 C  
HETATM    2  C   UNL     1      -7.474  16.561  68.290  1.00  0.00    -0.171 C  
ENDROOT
BRANCH   2   3
HETATM    3  C   UNL     1      -7.837  17.982  68.747  1.00  0.00    -0.258 C  
BRANCH   3   4
HETATM    4  N   UNL     1      -8.852  18.625  67.903  1.00  0.00    -0.282 N  
HETATM    5  O   UNL     1      -7.726  18.728  65.865  1.00  0.00    -0.439 OA 
HETATM    6  C   UNL     1      -9.990  19.295  68.479  1.00  0.00    -0.433 C  
HETATM    7  C   UNL     1      -8.702  18.953  66.563  1.00  0.00    -0.316 C  
HETATM    8  C   UNL     1      -9.912  19.751  66.141  1.00  0.00    -0.573 C  
HETATM    9  C   UNL     1     -10.891  19.512  67.283  1.00  0.00    -0.557 C  
ENDBRANCH   3   4
BRANCH   3  10
HETATM   10  C   UNL     1      -6.590  18.875  68.890  1.00  0.00    -0.276 C  
HETATM   11  H2  UNL     1      -5.483  17.663  67.597  1.00  0.00     0.000 HD 
HETATM   12  N   UNL     1      -5.484  18.496  68.187  1.00  0.00    -0.170 N  
HETATM   13  O   UNL     1      -6.560  19.863  69.619  1.00  0.00    -0.345 OA 
HETATM   14  H1  UNL     1      -4.659  19.087  68.282  1.00  0.00     0.000 HD 
ENDBRANCH   3  10
ENDBRANCH   2   3
TORSDOF 3
ENDMDL
MODEL       80
REMARK 921   NORMALIZED FREE ENERGY PREDICTED BY IDOCK:   -3.34 KCAL/MOL
REMARK 922        TOTAL FREE ENERGY PREDICTED BY IDOCK:   -4.28 KCAL/MOL
REMARK 923 INTER-LIGAND FREE ENERGY PREDICTED BY IDOCK:   -4.17 KCAL/MOL
REMARK 924 INTRA-LIGAND FREE ENERGY PREDICTED BY IDOCK:   -0.11 KCAL/MOL
REMARK 927      BINDING AFFINITY PREDICTED BY RF-SCORE:    0.00 PKD
ROOT
HETATM    1  C   UNL     1     -12.133  13.513  68.106  1.00  0.00    -0.290 C  
HETATM    2  C   UNL     1     -11.992  13.893  66.636  1.00  0.00    -0.474 C  
ENDROOT
BRANCH   2   3
HETATM    3  C   UNL     1     -10.602  13.546  66.079  1.00  0.00    -0.285 C  
BRANCH   3   4
HETATM    4  N   UNL     1      -9.592  14.577  66.348  1.00  0.00    -0.290 N  
HETATM    5  O   UNL     1     -10.401  16.333  65.046  1.00  0.00    -0.593 OA 
HETATM    6  C   UNL     1      -8.324  14.244  66.946  1.00  0.00    -0.054 C  
HETATM    7  C   UNL     1      -9.571  15.852  65.802  1.00  0.00    -0.304 C  
HETATM    8  C   UNL     1      -8.273  16.510  66.206  1.00  0.00    -0.360 C  
HETATM    9  C   UNL     1      -7.764  15.600  67.317  1.00  0.00    -0.239 C  
ENDBRANCH   3   4
BRANCH   3  10
HETATM   10  C   UNL     1     -10.655  13.201  64.579  1.00  0.00    -0.406 C  
HETATM   11  H2  UNL     1      -8.843  12.165  64.677  1.00  0.00     0.000 HD 
HETATM   12  N   UNL     1      -9.615  12.469  64.084  1.00  0.00    -0.500 N  
HETATM   13  O   UNL     1     -11.559  13.584  63.840  1.00  0.00    -0.376 OA 
HETATM   14  H1  UNL     1      -9.650  12.242  63.091  1.00  0.00     0.000 HD 
ENDBRANCH   3  10
ENDBRANCH   2   3
TORSDOF 3
ENDMDL
MODEL       81
REMARK 921   NORMALIZED FREE ENERGY PREDICTED BY IDOCK:   -3.30 KCAL/MOL
REMARK 922        TOTAL FREE ENERGY PREDICTED BY IDOCK:   -4.24 KCAL/MOL
REMARK 923 INTER-LIGAND FREE ENERGY PREDICTED BY IDOCK:   -3.96 KCAL/MOL
REMARK 924 INTRA-LIGAND FREE ENERGY PREDICTED BY IDOCK:   -0.28 KCAL/MOL
REMARK 927      BINDING AFFINITY PREDICTED BY RF-SCORE:    0.00 PKD
ROOT
HETATM    1  C   UNL     1      -9.150   9.295  68.638  1.00  0.00    -0.132 C  
HETATM    2  C   UNL     1     -10.625   9.681  68.670  1.00  0.00    -0.246 C  
ENDROOT
BRANCH   2   3
HETATM    3  C   UNL     1     -10.954  10.614  69.846  1.00  0.00    -0.274 C  
BRANCH   3   4
HETATM    4  N   UNL     1     -11.713   9.957  70.917  1.00  0.00    -0.334 N  
HETATM    5  O   UNL     1      -9.998   8.889  72.080  1.00  0.00    -0.329 OA 
HETATM    6  C   UNL     1     -13.144   9.807  70.836  1.00  0.00    -0.218 C  
HETATM    7  C   UNL     1     -11.180   9.151  71.912  1.00  0.00    -0.329 C  
HETATM    8  C   UNL     1     -12.325   8.546  72.687  1.00  0.00    -0.289 C  
HETATM    9  C   UNL     1     -13.515   9.387  72.242  1.00  0.00    -0.539 C  
ENDBRANCH   3   4
BRANCH   3  10
HETATM   10  C   UNL     1     -11.660  11.900  69.377  1.00  0.00    -0.325 C  
HETATM   11  H2  UNL     1     -11.304  12.850  71.204  1.00  0.00     0.000 HD 
HETATM   12  N   UNL     1     -11.712  12.929  70.272  1.00  0.00    -0.544 N  
HETATM   13  O   UNL     1     -12.186  12.005  68.272  1.00  0.00    -0.398 OA 
HETATM   14  H1  UNL     1     -12.180  13.780  69.962  1.00  0.00     0.000 HD 
ENDBRANCH   3  10
ENDBRANCH   2   3
TORSDOF 3
ENDMDL
MODEL       82
REMARK 921   NORMALIZED FREE ENERGY PREDICTED BY IDOCK:   -3.30 KCAL/MOL
REMARK 922        TOTAL FREE ENERGY PREDICTED BY IDOCK:   -4.24 KCAL/MOL
REMARK 923 INTER-LIGAND FREE ENERGY PREDICTED BY IDOCK:   -4.09 KCAL/MOL
REMARK 924 INTRA-LIGAND FREE ENERGY PREDICTED BY IDOCK:   -0.15 KCAL/MOL
REMARK 927      BINDING AFFINITY PREDICTED BY RF-SCORE:    0.00 PKD
ROOT
HETATM    1  C   UNL     1      -9.283   8.209  72.797  1.00  0.00    -0.341 C  
HETATM    2  C   UNL     1      -9.536   7.100  71.782  1.00  0.00    -0.160 C  
ENDROOT
BRANCH   2   3
HETATM    3  C   UNL     1     -10.420   7.571  70.617  1.00  0.00    -0.216 C  
BRANCH   3   4
HETATM    4  N   UNL     1     -11.606   8.321  71.052  1.00  0.00    -0.276 N  
HETATM    5  O   UNL     1     -12.915   6.604  71.930  1.00  0.00    -0.306 OA 
HETATM    6  C   UNL     1     -11.852   9.664  70.589  1.00  0.00    -0.256 C  
HETATM    7  C   UNL     1     -12.737   7.779  71.643  1.00  0.00    -0.335 C  
HETATM    8  C   UNL     1     -13.772   8.872  71.761  1.00  0.00    -0.471 C  
HETATM    9  C   UNL     1     -12.959  10.135  71.508  1.00  0.00    -0.547 C  
ENDBRANCH   3   4
BRANCH   3  10
HETATM   10  C   UNL     1     -10.813   6.407  69.688  1.00  0.00    -0.320 C  
HETATM   11  H2  UNL     1     -11.577   7.716  68.249  1.00  0.00     0.000 HD 
HETATM   12  N   UNL     1     -11.405   6.743  68.505  1.00  0.00    -0.560 N  
HETATM   13  O   UNL     1     -10.643   5.229  69.989  1.00  0.00    -0.302 OA 
HETATM   14  H1  UNL     1     -11.665   5.973  67.890  1.00  0.00     0.000 HD 
ENDBRANCH   3  10
ENDBRANCH   2   3
TORSDOF 3
ENDMDL
MODEL       83
REMARK 921   NORMALIZED FREE ENERGY PREDICTED BY IDOCK:   -3.30 KCAL/MOL
REMARK 922        TOTAL FREE ENERGY PREDICTED BY IDOCK:   -4.24 KCAL/MOL
REMARK 923 INTER-LIGAND FREE ENERGY PREDICTED BY IDOCK:   -4.24 KCAL/MOL
REMARK 924 INTRA-LIGAND FREE ENERGY PREDICTED BY IDOCK:    0.00 KCAL/MOL
REMARK 927      BINDING AFFINITY PREDICTED BY RF-SCORE:    0.00 PKD
ROOT
HETATM    1  C   UNL     1     -10.661   6.491  73.219  1.00  0.00    -0.300 C  
HETATM    2  C   UNL     1     -10.800   7.930  72.735  1.00  0.00    -0.451 C  
ENDROOT
BRANCH   2   3
HETATM    3  C   UNL     1     -10.892   8.019  71.204  1.00  0.00    -0.238 C  
BRANCH   3   4
HETATM    4  N   UNL     1     -11.136   9.381  70.713  1.00  0.00    -0.274 N  
HETATM    5  O   UNL     1     -12.943  10.011  72.043  1.00  0.00    -0.419 OA 
HETATM    6  C   UNL     1     -10.569   9.841  69.470  1.00  0.00    -0.233 C  
HETATM    7  C   UNL     1     -12.135  10.236  71.155  1.00  0.00    -0.395 C  
HETATM    8  C   UNL     1     -12.135  11.454  70.263  1.00  0.00    -0.459 C  
HETATM    9  C   UNL     1     -10.807  11.335  69.527  1.00  0.00    -0.207 C  
ENDBRANCH   3   4
BRANCH   3  10
HETATM   10  C   UNL     1     -11.928   7.032  70.633  1.00  0.00    -0.313 C  
HETATM   11  H2  UNL     1     -13.481   7.925  71.709  1.00  0.00     0.000 HD 
HETATM   12  N   UNL     1     -13.217   7.190  71.052  1.00  0.00    -0.548 N  
HETATM   13  O   UNL     1     -11.627   6.121  69.866  1.00  0.00    -0.404 OA 
HETATM   14  H1  UNL     1     -13.903   6.537  70.674  1.00  0.00     0.000 HD 
ENDBRANCH   3  10
ENDBRANCH   2   3
TORSDOF 3
ENDMDL
MODEL       84
REMARK 921   NORMALIZED FREE ENERGY PREDICTED BY IDOCK:   -3.29 KCAL/MOL
REMARK 922        TOTAL FREE ENERGY PREDICTED BY IDOCK:   -4.22 KCAL/MOL
REMARK 923 INTER-LIGAND FREE ENERGY PREDICTED BY IDOCK:   -4.30 KCAL/MOL
REMARK 924 INTRA-LIGAND FREE ENERGY PREDICTED BY IDOCK:    0.07 KCAL/MOL
REMARK 927      BINDING AFFINITY PREDICTED BY RF-SCORE:    0.00 PKD
ROOT
HETATM    1  C   UNL     1      -8.749  15.057  68.127  1.00  0.00    -0.165 C  
HETATM    2  C   UNL     1      -8.220  15.832  66.926  1.00  0.00    -0.288 C  
ENDROOT
BRANCH   2   3
HETATM    3  C   UNL     1      -7.746  17.242  67.309  1.00  0.00    -0.188 C  
BRANCH   3   4
HETATM    4  N   UNL     1      -8.847  18.195  67.501  1.00  0.00    -0.255 N  
HETATM    5  O   UNL     1     -10.203  17.675  65.679  1.00  0.00    -0.593 OA 
HETATM    6  C   UNL     1      -8.715  19.320  68.392  1.00  0.00    -0.357 C  
HETATM    7  C   UNL     1      -9.951  18.338  66.673  1.00  0.00    -0.364 C  
HETATM    8  C   UNL     1     -10.732  19.542  67.141  1.00  0.00    -0.599 C  
HETATM    9  C   UNL     1     -10.140  19.816  68.517  1.00  0.00    -0.555 C  
ENDBRANCH   3   4
BRANCH   3  10
HETATM   10  C   UNL     1      -6.710  17.791  66.309  1.00  0.00    -0.268 C  
HETATM   11  H2  UNL     1      -5.123  17.324  67.585  1.00  0.00     0.000 HD 
HETATM   12  N   UNL     1      -5.401  17.720  66.687  1.00  0.00    -0.148 N  
HETATM   13  O   UNL     1      -7.025  18.300  65.237  1.00  0.00    -0.516 OA 
HETATM   14  H1  UNL     1      -4.715  18.083  66.025  1.00  0.00     0.000 HD 
ENDBRANCH   3  10
ENDBRANCH   2   3
TORSDOF 3
ENDMDL
MODEL       85
REMARK 921   NORMALIZED FREE ENERGY PREDICTED BY IDOCK:   -3.29 KCAL/MOL
REMARK 922        TOTAL FREE ENERGY PREDICTED BY IDOCK:   -4.22 KCAL/MOL
REMARK 923 INTER-LIGAND FREE ENERGY PREDICTED BY IDOCK:   -4.03 KCAL/MOL
REMARK 924 INTRA-LIGAND FREE ENERGY PREDICTED BY IDOCK:   -0.19 KCAL/MOL
REMARK 927      BINDING AFFINITY PREDICTED BY RF-SCORE:    0.00 PKD
ROOT
HETATM    1  C   UNL     1     -10.158   9.445  66.916  1.00  0.00    -0.314 C  
HETATM    2  C   UNL     1     -10.274   9.860  65.454  1.00  0.00    -0.149 C  
ENDROOT
BRANCH   2   3
HETATM    3  C   UNL     1      -9.798  11.302  65.222  1.00  0.00    -0.246 C  
BRANCH   3   4
HETATM    4  N   UNL     1     -10.321  12.255  66.209  1.00  0.00    -0.228 N  
HETATM    5  O   UNL     1     -12.554  12.385  65.554  1.00  0.00    -0.616 OA 
HETATM    6  C   UNL     1      -9.437  13.071  67.003  1.00  0.00    -0.237 C  
HETATM    7  C   UNL     1     -11.627  12.719  66.276  1.00  0.00    -0.379 C  
HETATM    8  C   UNL     1     -11.682  13.808  67.320  1.00  0.00    -0.416 C  
HETATM    9  C   UNL     1     -10.362  13.634  68.060  1.00  0.00    -0.250 C  
ENDBRANCH   3   4
BRANCH   3  10
HETATM   10  C   UNL     1     -10.089  11.779  63.786  1.00  0.00    -0.391 C  
HETATM   11  H2  UNL     1     -11.923  10.779  63.747  1.00  0.00     0.000 HD 
HETATM   12  N   UNL     1     -11.268  11.370  63.235  1.00  0.00    -0.838 N  
HETATM   13  O   UNL     1      -9.301  12.464  63.140  1.00  0.00     0.037 OA 
HETATM   14  H1  UNL     1     -11.461  11.685  62.284  1.00  0.00     0.000 HD 
ENDBRANCH   3  10
ENDBRANCH   2   3
TORSDOF 3
ENDMDL
MODEL       86
REMARK 921   NORMALIZED FREE ENERGY PREDICTED BY IDOCK:   -3.28 KCAL/MOL
REMARK 922        TOTAL FREE ENERGY PREDICTED BY IDOCK:   -4.22 KCAL/MOL
REMARK 923 INTER-LIGAND FREE ENERGY PREDICTED BY IDOCK:   -3.91 KCAL/MOL
REMARK 924 INTRA-LIGAND FREE ENERGY PREDICTED BY IDOCK:   -0.30 KCAL/MOL
REMARK 927      BINDING AFFINITY PREDICTED BY RF-SCORE:    0.00 PKD
ROOT
HETATM    1  C   UNL     1     -13.856   8.658  71.749  1.00  0.00    -0.472 C  
HETATM    2  C   UNL     1     -12.432   8.485  71.234  1.00  0.00    -0.275 C  
ENDROOT
BRANCH   2   3
HETATM    3  C   UNL     1     -11.948   7.031  71.348  1.00  0.00    -0.340 C  
BRANCH   3   4
HETATM    4  N   UNL     1     -11.054   6.802  72.490  1.00  0.00    -0.255 N  
HETATM    5  O   UNL     1     -11.808   4.725  73.231  1.00  0.00    -0.261 OA 
HETATM    6  C   UNL     1     -10.284   7.877  73.064  1.00  0.00    -0.327 C  
HETATM    7  C   UNL     1     -11.075   5.697  73.328  1.00  0.00    -0.242 C  
HETATM    8  C   UNL     1     -10.114   5.954  74.464  1.00  0.00    -0.312 C  
HETATM    9  C   UNL     1      -9.309   7.147  73.962  1.00  0.00    -0.291 C  
ENDBRANCH   3   4
BRANCH   3  10
HETATM   10  C   UNL     1     -11.308   6.534  70.038  1.00  0.00    -0.410 C  
HETATM   11  H2  UNL     1     -11.604   8.382  69.107  1.00  0.00     0.000 HD 
HETATM   12  N   UNL     1     -11.245   7.431  69.011  1.00  0.00    -0.431 N  
HETATM   13  O   UNL     1     -10.900   5.385  69.891  1.00  0.00    -0.298 OA 
HETATM   14  H1  UNL     1     -10.822   7.102  68.144  1.00  0.00     0.000 HD 
ENDBRANCH   3  10
ENDBRANCH   2   3
TORSDOF 3
ENDMDL
MODEL       87
REMARK 921   NORMALIZED FREE ENERGY PREDICTED BY IDOCK:   -3.28 KCAL/MOL
REMARK 922        TOTAL FREE ENERGY PREDICTED BY IDOCK:   -4.22 KCAL/MOL
REMARK 923 INTER-LIGAND FREE ENERGY PREDICTED BY IDOCK:   -3.94 KCAL/MOL
REMARK 924 INTRA-LIGAND FREE ENERGY PREDICTED BY IDOCK:   -0.27 KCAL/MOL
REMARK 927      BINDING AFFINITY PREDICTED BY RF-SCORE:    0.00 PKD
ROOT
HETATM    1  C   UNL     1     -10.681   7.041  68.343  1.00  0.00    -0.224 C  
HETATM    2  C   UNL     1     -10.415   8.455  68.846  1.00  0.00    -0.208 C  
ENDROOT
BRANCH   2   3
HETATM    3  C   UNL     1     -10.297   8.513  70.376  1.00  0.00    -0.202 C  
BRANCH   3   4
HETATM    4  N   UNL     1     -11.460   9.129  71.028  1.00  0.00    -0.286 N  
HETATM    5  O   UNL     1     -11.318  11.308  70.212  1.00  0.00    -0.248 OA 
HETATM    6  C   UNL     1     -12.118   8.492  72.140  1.00  0.00    -0.383 C  
HETATM    7  C   UNL     1     -11.851  10.454  70.905  1.00  0.00    -0.377 C  
HETATM    8  C   UNL     1     -12.981  10.699  71.875  1.00  0.00    -0.542 C  
HETATM    9  C   UNL     1     -13.399   9.289  72.270  1.00  0.00    -0.547 C  
ENDBRANCH   3   4
BRANCH   3  10
HETATM   10  C   UNL     1      -8.989   9.190  70.826  1.00  0.00    -0.242 C  
HETATM   11  H2  UNL     1      -8.872  10.304  69.062  1.00  0.00     0.000 HD 
HETATM   12  N   UNL     1      -8.439  10.090  69.961  1.00  0.00    -0.336 N  
HETATM   13  O   UNL     1      -8.434   8.925  71.889  1.00  0.00    -0.348 OA 
HETATM   14  H1  UNL     1      -7.573  10.538  70.258  1.00  0.00     0.000 HD 
ENDBRANCH   3  10
ENDBRANCH   2   3
TORSDOF 3
ENDMDL
MODEL       88
REMARK 921   NORMALIZED FREE ENERGY PREDICTED BY IDOCK:   -3.28 KCAL/MOL
REMARK 922        TOTAL FREE ENERGY PREDICTED BY IDOCK:   -4.21 KCAL/MOL
REMARK 923 INTER-LIGAND FREE ENERGY PREDICTED BY IDOCK:   -3.94 KCAL/MOL
REMARK 924 INTRA-LIGAND FREE ENERGY PREDICTED BY IDOCK:   -0.27 KCAL/MOL
REMARK 927      BINDING AFFINITY PREDICTED BY RF-SCORE:    0.00 PKD
ROOT
HETATM    1  C   UNL     1      -9.857   8.560  70.883  1.00  0.00    -0.234 C  
HETATM    2  C   UNL     1     -10.850   9.312  71.762  1.00  0.00    -0.358 C  
ENDROOT
BRANCH   2   3
HETATM    3  C   UNL     1     -12.149   9.646  71.013  1.00  0.00    -0.337 C  
BRANCH   3   4
HETATM    4  N   UNL     1     -12.373  11.088  70.847  1.00  0.00    -0.381 N  
HETATM    5  O   UNL     1     -11.108  11.512  68.936  1.00  0.00    -0.201 OA 
HETATM    6  C   UNL     1     -12.913  11.888  71.917  1.00  0.00    -0.329 C  
HETATM    7  C   UNL     1     -11.827  11.884  69.851  1.00  0.00    -0.343 C  
HETATM    8  C   UNL     1     -12.172  13.320  70.161  1.00  0.00    -0.376 C  
HETATM    9  C   UNL     1     -13.259  13.186  71.219  1.00  0.00    -0.202 C  
ENDBRANCH   3   4
BRANCH   3  10
HETATM   10  C   UNL     1     -13.373   8.967  71.657  1.00  0.00    -0.377 C  
HETATM   11  H2  UNL     1     -12.409   8.813  73.504  1.00  0.00     0.000 HD 
HETATM   12  N   UNL     1     -13.260   8.627  72.973  1.00  0.00    -0.613 N  
HETATM   13  O   UNL     1     -14.396   8.706  71.029  1.00  0.00    -0.194 OA 
HETATM   14  H1  UNL     1     -14.070   8.178  73.399  1.00  0.00     0.000 HD 
ENDBRANCH   3  10
ENDBRANCH   2   3
TORSDOF 3
ENDMDL
MODEL       89
REMARK 921   NORMALIZED FREE ENERGY PREDICTED BY IDOCK:   -3.25 KCAL/MOL
REMARK 922        TOTAL FREE ENERGY PREDICTED BY IDOCK:   -4.18 KCAL/MOL
REMARK 923 INTER-LIGAND FREE ENERGY PREDICTED BY IDOCK:   -4.13 KCAL/MOL
REMARK 924 INTRA-LIGAND FREE ENERGY PREDICTED BY IDOCK:   -0.06 KCAL/MOL
REMARK 927      BINDING AFFINITY PREDICTED BY RF-SCORE:    0.00 PKD
ROOT
HETATM    1  C   UNL     1      -8.416  13.759  67.318  1.00  0.00    -0.204 C  
HETATM    2  C   UNL     1      -9.473  14.709  67.870  1.00  0.00    -0.210 C  
ENDROOT
BRANCH   2   3
HETATM    3  C   UNL     1     -10.290  15.378  66.754  1.00  0.00    -0.279 C  
BRANCH   3   4
HETATM    4  N   UNL     1     -10.325  16.842  66.854  1.00  0.00    -0.311 N  
HETATM    5  O   UNL     1     -10.655  17.119  69.144  1.00  0.00    -0.324 OA 
HETATM    6  C   UNL     1     -10.502  17.668  65.686  1.00  0.00    -0.144 C  
HETATM    7  C   UNL     1     -10.519  17.571  68.018  1.00  0.00    -0.387 C  
HETATM    8  C   UNL     1     -10.660  19.026  67.639  1.00  0.00    -0.526 C  
HETATM    9  C   UNL     1     -10.162  19.050  66.200  1.00  0.00    -0.508 C  
ENDBRANCH   3   4
BRANCH   3  10
HETATM   10  C   UNL     1     -11.713  14.796  66.657  1.00  0.00    -0.283 C  
HETATM   11  H2  UNL     1     -11.898  14.710  68.737  1.00  0.00     0.000 HD 
HETATM   12  N   UNL     1     -12.345  14.532  67.837  1.00  0.00    -0.599 N  
HETATM   13  O   UNL     1     -12.258  14.545  65.586  1.00  0.00    -0.351 OA 
HETATM   14  H1  UNL     1     -13.287  14.147  67.774  1.00  0.00     0.000 HD 
ENDBRANCH   3  10
ENDBRANCH   2   3
TORSDOF 3
ENDMDL
MODEL       90
REMARK 921   NORMALIZED FREE ENERGY PREDICTED BY IDOCK:   -3.25 KCAL/MOL
REMARK 922        TOTAL FREE ENERGY PREDICTED BY IDOCK:   -4.18 KCAL/MOL
REMARK 923 INTER-LIGAND FREE ENERGY PREDICTED BY IDOCK:   -3.87 KCAL/MOL
REMARK 924 INTRA-LIGAND FREE ENERGY PREDICTED BY IDOCK:   -0.30 KCAL/MOL
REMARK 927      BINDING AFFINITY PREDICTED BY RF-SCORE:    0.00 PKD
ROOT
HETATM    1  C   UNL     1     -10.355   8.534  67.554  1.00  0.00    -0.334 C  
HETATM    2  C   UNL     1     -10.344   9.401  68.808  1.00  0.00    -0.230 C  
ENDROOT
BRANCH   2   3
HETATM    3  C   UNL     1     -10.582   8.578  70.083  1.00  0.00    -0.232 C  
BRANCH   3   4
HETATM    4  N   UNL     1     -11.666   9.104  70.922  1.00  0.00    -0.284 N  
HETATM    5  O   UNL     1     -12.424   7.148  71.938  1.00  0.00    -0.321 OA 
HETATM    6  C   UNL     1     -12.208  10.422  70.706  1.00  0.00    -0.359 C  
HETATM    7  C   UNL     1     -12.490   8.353  71.748  1.00  0.00    -0.335 C  
HETATM    8  C   UNL     1     -13.570   9.262  72.282  1.00  0.00    -0.544 C  
HETATM    9  C   UNL     1     -13.037  10.650  71.952  1.00  0.00    -0.563 C  
ENDBRANCH   3   4
BRANCH   3  10
HETATM   10  C   UNL     1      -9.288   8.400  70.900  1.00  0.00    -0.166 C  
HETATM   11  H2  UNL     1      -8.615   6.875  69.640  1.00  0.00     0.000 HD 
HETATM   12  N   UNL     1      -8.419   7.443  70.465  1.00  0.00    -0.135 N  
HETATM   13  O   UNL     1      -9.046   9.050  71.914  1.00  0.00    -0.365 OA 
HETATM   14  H1  UNL     1      -7.563   7.324  71.006  1.00  0.00     0.000 HD 
ENDBRANCH   3  10
ENDBRANCH   2   3
TORSDOF 3
ENDMDL
MODEL       91
REMARK 921   NORMALIZED FREE ENERGY PREDICTED BY IDOCK:   -3.25 KCAL/MOL
REMARK 922        TOTAL FREE ENERGY PREDICTED BY IDOCK:   -4.17 KCAL/MOL
REMARK 923 INTER-LIGAND FREE ENERGY PREDICTED BY IDOCK:   -3.86 KCAL/MOL
REMARK 924 INTRA-LIGAND FREE ENERGY PREDICTED BY IDOCK:   -0.31 KCAL/MOL
REMARK 927      BINDING AFFINITY PREDICTED BY RF-SCORE:    0.00 PKD
ROOT
HETATM    1  C   UNL     1     -10.522   8.251  67.307  1.00  0.00    -0.373 C  
HETATM    2  C   UNL     1     -10.209   9.526  68.082  1.00  0.00    -0.231 C  
ENDROOT
BRANCH   2   3
HETATM    3  C   UNL     1     -10.313   9.320  69.601  1.00  0.00    -0.217 C  
BRANCH   3   4
HETATM    4  N   UNL     1     -11.256  10.238  70.251  1.00  0.00    -0.303 N  
HETATM    5  O   UNL     1     -12.092   8.879  71.950  1.00  0.00    -0.325 OA 
HETATM    6  C   UNL     1     -11.690  11.449  69.602  1.00  0.00    -0.345 C  
HETATM    7  C   UNL     1     -12.063   9.936  71.339  1.00  0.00    -0.413 C  
HETATM    8  C   UNL     1     -12.996  11.101  71.566  1.00  0.00    -0.542 C  
HETATM    9  C   UNL     1     -12.369  12.205  70.723  1.00  0.00    -0.391 C  
ENDBRANCH   3   4
BRANCH   3  10
HETATM   10  C   UNL     1      -8.932   9.373  70.282  1.00  0.00    -0.240 C  
HETATM   11  H2  UNL     1      -8.424  11.136  69.281  1.00  0.00     0.000 HD 
HETATM   12  N   UNL     1      -8.126  10.423  69.948  1.00  0.00    -0.356 N  
HETATM   13  O   UNL     1      -8.542   8.509  71.063  1.00  0.00    -0.129 OA 
HETATM   14  H1  UNL     1      -7.213  10.458  70.398  1.00  0.00     0.000 HD 
ENDBRANCH   3  10
ENDBRANCH   2   3
TORSDOF 3
ENDMDL
MODEL       92
REMARK 921   NORMALIZED FREE ENERGY PREDICTED BY IDOCK:   -3.24 KCAL/MOL
REMARK 922        TOTAL FREE ENERGY PREDICTED BY IDOCK:   -4.17 KCAL/MOL
REMARK 923 INTER-LIGAND FREE ENERGY PREDICTED BY IDOCK:   -4.37 KCAL/MOL
REMARK 924 INTRA-LIGAND FREE ENERGY PREDICTED BY IDOCK:    0.20 KCAL/MOL
REMARK 927      BINDING AFFINITY PREDICTED BY RF-SCORE:    0.00 PKD
ROOT
HETATM    1  C   UNL     1     -13.029  11.226  71.862  1.00  0.00    -0.471 C  
HETATM    2  C   UNL     1     -12.812   9.939  71.074  1.00  0.00    -0.417 C  
ENDROOT
BRANCH   2   3
HETATM    3  C   UNL     1     -12.427   8.762  71.982  1.00  0.00    -0.386 C  
BRANCH   3   4
HETATM    4  N   UNL     1     -10.978   8.625  72.178  1.00  0.00    -0.364 N  
HETATM    5  O   UNL     1     -10.179   9.494  70.168  1.00  0.00    -0.212 OA 
HETATM    6  C   UNL     1     -10.439   7.783  73.216  1.00  0.00    -0.294 C  
HETATM    7  C   UNL     1      -9.999   8.980  71.262  1.00  0.00    -0.311 C  
HETATM    8  C   UNL     1      -8.668   8.509  71.795  1.00  0.00    -0.266 C  
HETATM    9  C   UNL     1      -8.981   8.188  73.251  1.00  0.00    -0.332 C  
ENDBRANCH   3   4
BRANCH   3  10
HETATM   10  C   UNL     1     -13.046   7.437  71.497  1.00  0.00    -0.374 C  
HETATM   11  H2  UNL     1     -14.638   7.604  72.840  1.00  0.00     0.000 HD 
HETATM   12  N   UNL     1     -14.204   7.046  72.103  1.00  0.00    -0.622 N  
HETATM   13  O   UNL     1     -12.524   6.735  70.635  1.00  0.00    -0.320 OA 
HETATM   14  H1  UNL     1     -14.614   6.170  71.783  1.00  0.00     0.000 HD 
ENDBRANCH   3  10
ENDBRANCH   2   3
TORSDOF 3
ENDMDL
MODEL       93
REMARK 921   NORMALIZED FREE ENERGY PREDICTED BY IDOCK:   -3.24 KCAL/MOL
REMARK 922        TOTAL FREE ENERGY PREDICTED BY IDOCK:   -4.16 KCAL/MOL
REMARK 923 INTER-LIGAND FREE ENERGY PREDICTED BY IDOCK:   -3.86 KCAL/MOL
REMARK 924 INTRA-LIGAND FREE ENERGY PREDICTED BY IDOCK:   -0.30 KCAL/MOL
REMARK 927      BINDING AFFINITY PREDICTED BY RF-SCORE:    0.00 PKD
ROOT
HETATM    1  C   UNL     1     -10.521  19.904  66.350  1.00  0.00    -0.589 C  
HETATM    2  C   UNL     1      -9.201  19.874  67.112  1.00  0.00    -0.463 C  
ENDROOT
BRANCH   2   3
HETATM    3  C   UNL     1      -8.240  18.809  66.562  1.00  0.00    -0.291 C  
BRANCH   3   4
HETATM    4  N   UNL     1      -7.658  17.954  67.605  1.00  0.00    -0.209 N  
HETATM    5  O   UNL     1      -9.211  16.217  67.666  1.00  0.00    -0.203 OA 
HETATM    6  C   UNL     1      -6.639  18.449  68.495  1.00  0.00    -0.236 C  
HETATM    7  C   UNL     1      -8.195  16.763  68.070  1.00  0.00    -0.192 C  
HETATM    8  C   UNL     1      -7.375  16.312  69.255  1.00  0.00    -0.221 C  
HETATM    9  C   UNL     1      -6.131  17.185  69.156  1.00  0.00    -0.204 C  
ENDBRANCH   3   4
BRANCH   3  10
HETATM   10  C   UNL     1      -7.140  19.430  65.680  1.00  0.00    -0.267 C  
HETATM   11  H2  UNL     1      -7.542  21.350  66.401  1.00  0.00     0.000 HD 
HETATM   12  N   UNL     1      -6.970  20.780  65.776  1.00  0.00    -0.498 N  
HETATM   13  O   UNL     1      -6.462  18.768  64.898  1.00  0.00    -0.492 OA 
HETATM   14  H1  UNL     1      -6.242  21.191  65.193  1.00  0.00     0.000 HD 
ENDBRANCH   3  10
ENDBRANCH   2   3
TORSDOF 3
ENDMDL
MODEL       94
REMARK 921   NORMALIZED FREE ENERGY PREDICTED BY IDOCK:   -3.22 KCAL/MOL
REMARK 922        TOTAL FREE ENERGY PREDICTED BY IDOCK:   -4.15 KCAL/MOL
REMARK 923 INTER-LIGAND FREE ENERGY PREDICTED BY IDOCK:   -3.85 KCAL/MOL
REMARK 924 INTRA-LIGAND FREE ENERGY PREDICTED BY IDOCK:   -0.30 KCAL/MOL
REMARK 927      BINDING AFFINITY PREDICTED BY RF-SCORE:    0.00 PKD
ROOT
HETATM    1  C   UNL     1     -10.859  19.460  67.341  1.00  0.00    -0.555 C  
HETATM    2  C   UNL     1      -9.486  19.892  67.843  1.00  0.00    -0.469 C  
ENDROOT
BRANCH   2   3
HETATM    3  C   UNL     1      -8.355  19.409  66.922  1.00  0.00    -0.287 C  
BRANCH   3   4
HETATM    4  N   UNL     1      -7.605  18.269  67.467  1.00  0.00    -0.214 N  
HETATM    5  O   UNL     1      -6.291  17.689  65.632  1.00  0.00    -0.160 OA 
HETATM    6  C   UNL     1      -8.025  17.608  68.677  1.00  0.00    -0.275 C  
HETATM    7  C   UNL     1      -6.669  17.511  66.780  1.00  0.00    -0.202 C  
HETATM    8  C   UNL     1      -6.282  16.344  67.655  1.00  0.00    -0.165 C  
HETATM    9  C   UNL     1      -6.829  16.746  69.018  1.00  0.00    -0.218 C  
ENDBRANCH   3   4
BRANCH   3  10
HETATM   10  C   UNL     1      -7.406  20.557  66.529  1.00  0.00    -0.203 C  
HETATM   11  H2  UNL     1      -7.422  19.980  64.520  1.00  0.00     0.000 HD 
HETATM   12  N   UNL     1      -7.065  20.642  65.210  1.00  0.00    -0.530 N  
HETATM   13  O   UNL     1      -6.941  21.345  67.347  1.00  0.00    -0.572 OA 
HETATM   14  H1  UNL     1      -6.437  21.402  64.950  1.00  0.00     0.000 HD 
ENDBRANCH   3  10
ENDBRANCH   2   3
TORSDOF 3
ENDMDL
MODEL       95
REMARK 921   NORMALIZED FREE ENERGY PREDICTED BY IDOCK:   -3.22 KCAL/MOL
REMARK 922        TOTAL FREE ENERGY PREDICTED BY IDOCK:   -4.15 KCAL/MOL
REMARK 923 INTER-LIGAND FREE ENERGY PREDICTED BY IDOCK:   -3.80 KCAL/MOL
REMARK 924 INTRA-LIGAND FREE ENERGY PREDICTED BY IDOCK:   -0.35 KCAL/MOL
REMARK 927      BINDING AFFINITY PREDICTED BY RF-SCORE:    0.00 PKD
ROOT
HETATM    1  C   UNL     1      -8.857   7.961  73.472  1.00  0.00    -0.333 C  
HETATM    2  C   UNL     1      -9.886   8.588  72.538  1.00  0.00    -0.324 C  
ENDROOT
BRANCH   2   3
HETATM    3  C   UNL     1     -11.068   7.646  72.263  1.00  0.00    -0.286 C  
BRANCH   3   4
HETATM    4  N   UNL     1     -10.850   6.759  71.113  1.00  0.00    -0.232 N  
HETATM    5  O   UNL     1     -10.186   4.800  72.187  1.00  0.00    -0.185 OA 
HETATM    6  C   UNL     1     -10.736   7.283  69.775  1.00  0.00    -0.239 C  
HETATM    7  C   UNL     1     -10.418   5.442  71.174  1.00  0.00    -0.225 C  
HETATM    8  C   UNL     1     -10.162   4.969  69.763  1.00  0.00    -0.336 C  
HETATM    9  C   UNL     1     -10.842   6.039  68.919  1.00  0.00    -0.400 C  
ENDBRANCH   3   4
BRANCH   3  10
HETATM   10  C   UNL     1     -12.395   8.415  72.124  1.00  0.00    -0.370 C  
HETATM   11  H2  UNL     1     -13.493   6.643  71.976  1.00  0.00     0.000 HD 
HETATM   12  N   UNL     1     -13.525   7.663  71.986  1.00  0.00    -0.515 N  
HETATM   13  O   UNL     1     -12.453   9.642  72.102  1.00  0.00    -0.350 OA 
HETATM   14  H1  UNL     1     -14.403   8.172  71.894  1.00  0.00     0.000 HD 
ENDBRANCH   3  10
ENDBRANCH   2   3
TORSDOF 3
ENDMDL
MODEL       96
REMARK 921   NORMALIZED FREE ENERGY PREDICTED BY IDOCK:   -3.20 KCAL/MOL
REMARK 922        TOTAL FREE ENERGY PREDICTED BY IDOCK:   -4.12 KCAL/MOL
REMARK 923 INTER-LIGAND FREE ENERGY PREDICTED BY IDOCK:   -3.74 KCAL/MOL
REMARK 924 INTRA-LIGAND FREE ENERGY PREDICTED BY IDOCK:   -0.38 KCAL/MOL
REMARK 927      BINDING AFFINITY PREDICTED BY RF-SCORE:    0.00 PKD
ROOT
HETATM    1  C   UNL     1     -14.408   8.430  71.899  1.00  0.00    -0.561 C  
HETATM    2  C   UNL     1     -13.004   8.809  72.358  1.00  0.00    -0.442 C  
ENDROOT
BRANCH   2   3
HETATM    3  C   UNL     1     -12.022   8.923  71.182  1.00  0.00    -0.293 C  
BRANCH   3   4
HETATM    4  N   UNL     1     -10.644   8.557  71.536  1.00  0.00    -0.242 N  
HETATM    5  O   UNL     1      -9.708   8.272  69.421  1.00  0.00    -0.173 OA 
HETATM    6  C   UNL     1     -10.300   8.144  72.873  1.00  0.00    -0.263 C  
HETATM    7  C   UNL     1      -9.631   8.251  70.640  1.00  0.00    -0.171 C  
HETATM    8  C   UNL     1      -8.441   7.763  71.430  1.00  0.00    -0.125 C  
HETATM    9  C   UNL     1      -8.787   8.179  72.854  1.00  0.00    -0.307 C  
ENDBRANCH   3   4
BRANCH   3  10
HETATM   10  C   UNL     1     -12.072  10.316  70.526  1.00  0.00    -0.310 C  
HETATM   11  H2  UNL     1     -11.845   9.504  68.613  1.00  0.00     0.000 HD 
HETATM   12  N   UNL     1     -11.958  10.355  69.166  1.00  0.00    -0.534 N  
HETATM   13  O   UNL     1     -12.174  11.354  71.174  1.00  0.00    -0.319 OA 
HETATM   14  H1  UNL     1     -11.990  11.276  68.732  1.00  0.00     0.000 HD 
ENDBRANCH   3  10
ENDBRANCH   2   3
TORSDOF 3
ENDMDL
MODEL       97
REMARK 921   NORMALIZED FREE ENERGY PREDICTED BY IDOCK:   -3.19 KCAL/MOL
REMARK 922        TOTAL FREE ENERGY PREDICTED BY IDOCK:   -4.11 KCAL/MOL
REMARK 923 INTER-LIGAND FREE ENERGY PREDICTED BY IDOCK:   -3.84 KCAL/MOL
REMARK 924 INTRA-LIGAND FREE ENERGY PREDICTED BY IDOCK:   -0.27 KCAL/MOL
REMARK 927      BINDING AFFINITY PREDICTED BY RF-SCORE:    0.00 PKD
ROOT
HETATM    1  C   UNL     1      -6.575  18.191  69.060  1.00  0.00    -0.253 C  
HETATM    2  C   UNL     1      -7.463  17.944  67.846  1.00  0.00    -0.216 C  
ENDROOT
BRANCH   2   3
HETATM    3  C   UNL     1      -8.946  18.200  68.152  1.00  0.00    -0.290 C  
BRANCH   3   4
HETATM    4  N   UNL     1      -9.788  17.006  68.003  1.00  0.00    -0.266 N  
HETATM    5  O   UNL     1      -9.668  16.667  65.700  1.00  0.00    -0.530 OA 
HETATM    6  C   UNL     1     -10.674  16.579  69.057  1.00  0.00    -0.332 C  
HETATM    7  C   UNL     1     -10.084  16.366  66.809  1.00  0.00    -0.285 C  
HETATM    8  C   UNL     1     -11.115  15.301  67.093  1.00  0.00    -0.323 C  
HETATM    9  C   UNL     1     -11.076  15.190  68.612  1.00  0.00    -0.276 C  
ENDBRANCH   3   4
BRANCH   3  10
HETATM   10  C   UNL     1      -9.507  19.376  67.329  1.00  0.00    -0.318 C  
HETATM   11  H2  UNL     1      -8.063  19.120  65.841  1.00  0.00     0.000 HD 
HETATM   12  N   UNL     1      -8.869  19.659  66.157  1.00  0.00    -0.364 N  
HETATM   13  O   UNL     1     -10.456  20.059  67.706  1.00  0.00    -0.383 OA 
HETATM   14  H1  UNL     1      -9.240  20.438  65.613  1.00  0.00     0.000 HD 
ENDBRANCH   3  10
ENDBRANCH   2   3
TORSDOF 3
ENDMDL
MODEL       98
REMARK 921   NORMALIZED FREE ENERGY PREDICTED BY IDOCK:   -3.18 KCAL/MOL
REMARK 922        TOTAL FREE ENERGY PREDICTED BY IDOCK:   -4.10 KCAL/MOL
REMARK 923 INTER-LIGAND FREE ENERGY PREDICTED BY IDOCK:   -3.83 KCAL/MOL
REMARK 924 INTRA-LIGAND FREE ENERGY PREDICTED BY IDOCK:   -0.27 KCAL/MOL
REMARK 927      BINDING AFFINITY PREDICTED BY RF-SCORE:    0.00 PKD
ROOT
HETATM    1  C   UNL     1     -11.906  12.174  69.360  1.00  0.00    -0.370 C  
HETATM    2  C   UNL     1     -11.545  11.688  67.961  1.00  0.00    -0.383 C  
ENDROOT
BRANCH   2   3
HETATM    3  C   UNL     1     -10.947  12.808  67.096  1.00  0.00    -0.263 C  
BRANCH   3   4
HETATM    4  N   UNL     1     -11.347  12.732  65.685  1.00  0.00    -0.307 N  
HETATM    5  O   UNL     1     -10.401  10.693  65.069  1.00  0.00    -0.310 OA 
HETATM    6  C   UNL     1     -11.827  13.894  64.980  1.00  0.00    -0.373 C  
HETATM    7  C   UNL     1     -11.029  11.708  64.806  1.00  0.00    -0.289 C  
HETATM    8  C   UNL     1     -11.486  12.117  63.426  1.00  0.00    -0.501 C  
HETATM    9  C   UNL     1     -12.402  13.300  63.711  1.00  0.00    -0.440 C  
ENDBRANCH   3   4
BRANCH   3  10
HETATM   10  C   UNL     1      -9.414  12.882  67.231  1.00  0.00    -0.216 C  
HETATM   11  H2  UNL     1      -9.298  10.886  67.840  1.00  0.00     0.000 HD 
HETATM   12  N   UNL     1      -8.782  11.743  67.637  1.00  0.00    -0.153 N  
HETATM   13  O   UNL     1      -8.777  13.911  67.023  1.00  0.00    -0.221 OA 
HETATM   14  H1  UNL     1      -7.768  11.792  67.727  1.00  0.00     0.000 HD 
ENDBRANCH   3  10
ENDBRANCH   2   3
TORSDOF 3
ENDMDL
MODEL       99
REMARK 921   NORMALIZED FREE ENERGY PREDICTED BY IDOCK:   -3.18 KCAL/MOL
REMARK 922        TOTAL FREE ENERGY PREDICTED BY IDOCK:   -4.10 KCAL/MOL
REMARK 923 INTER-LIGAND FREE ENERGY PREDICTED BY IDOCK:   -4.09 KCAL/MOL
REMARK 924 INTRA-LIGAND FREE ENERGY PREDICTED BY IDOCK:   -0.01 KCAL/MOL
REMARK 927      BINDING AFFINITY PREDICTED BY RF-SCORE:    0.00 PKD
ROOT
HETATM    1  C   UNL     1     -10.722  18.950  67.040  1.00  0.00    -0.477 C  
HETATM    2  C   UNL     1     -10.539  17.609  67.741  1.00  0.00    -0.380 C  
ENDROOT
BRANCH   2   3
HETATM    3  C   UNL     1      -9.883  16.563  66.827  1.00  0.00    -0.266 C  
BRANCH   3   4
HETATM    4  N   UNL     1     -10.817  15.531  66.359  1.00  0.00    -0.302 N  
HETATM    5  O   UNL     1     -11.306  14.440  68.359  1.00  0.00    -0.261 OA 
HETATM    6  C   UNL     1     -10.931  15.205  64.960  1.00  0.00    -0.430 C  
HETATM    7  C   UNL     1     -11.422  14.565  67.150  1.00  0.00    -0.368 C  
HETATM    8  C   UNL     1     -12.156  13.610  66.240  1.00  0.00    -0.477 C  
HETATM    9  C   UNL     1     -12.187  14.361  64.915  1.00  0.00    -0.440 C  
ENDBRANCH   3   4
BRANCH   3  10
HETATM   10  C   UNL     1      -8.641  15.928  67.481  1.00  0.00    -0.168 C  
HETATM   11  H2  UNL     1      -8.370  14.622  65.872  1.00  0.00     0.000 HD 
HETATM   12  N   UNL     1      -8.025  14.931  66.781  1.00  0.00    -0.331 N  
HETATM   13  O   UNL     1      -8.227  16.263  68.588  1.00  0.00    -0.190 OA 
HETATM   14  H1  UNL     1      -7.203  14.511  67.214  1.00  0.00     0.000 HD 
ENDBRANCH   3  10
ENDBRANCH   2   3
TORSDOF 3
ENDMDL
MODEL      100
REMARK 921   NORMALIZED FREE ENERGY PREDICTED BY IDOCK:   -3.16 KCAL/MOL
REMARK 922        TOTAL FREE ENERGY PREDICTED BY IDOCK:   -4.07 KCAL/MOL
REMARK 923 INTER-LIGAND FREE ENERGY PREDICTED BY IDOCK:   -3.76 KCAL/MOL
REMARK 924 INTRA-LIGAND FREE ENERGY PREDICTED BY IDOCK:   -0.31 KCAL/MOL
REMARK 927      BINDING AFFINITY PREDICTED BY RF-SCORE:    0.00 PKD
ROOT
HETATM    1  C   UNL     1     -13.225   9.301  71.472  1.00  0.00    -0.433 C  
HETATM    2  C   UNL     1     -12.184   8.660  72.382  1.00  0.00    -0.419 C  
ENDROOT
BRANCH   2   3
HETATM    3  C   UNL     1     -10.791   8.626  71.735  1.00  0.00    -0.325 C  
BRANCH   3   4
HETATM    4  N   UNL     1     -10.674   7.639  70.654  1.00  0.00    -0.227 N  
HETATM    5  O   UNL     1     -10.299   9.033  68.824  1.00  0.00    -0.207 OA 
HETATM    6  C   UNL     1     -11.115   6.279  70.832  1.00  0.00    -0.306 C  
HETATM    7  C   UNL     1     -10.460   7.925  69.314  1.00  0.00    -0.216 C  
HETATM    8  C   UNL     1     -10.584   6.638  68.536  1.00  0.00    -0.276 C  
HETATM    9  C   UNL     1     -10.527   5.576  69.627  1.00  0.00    -0.379 C  
ENDBRANCH   3   4
BRANCH   3  10
HETATM   10  C   UNL     1      -9.676   8.434  72.781  1.00  0.00    -0.228 C  
HETATM   11  H2  UNL     1     -10.902   7.235  73.975  1.00  0.00     0.000 HD 
HETATM   12  N   UNL     1      -9.983   7.663  73.864  1.00  0.00    -0.357 N  
HETATM   13  O   UNL     1      -8.573   8.965  72.683  1.00  0.00    -0.384 OA 
HETATM   14  H1  UNL     1      -9.245   7.536  74.557  1.00  0.00     0.000 HD 
ENDBRANCH   3  10
ENDBRANCH   2   3
TORSDOF 3
ENDMDL
MODEL      101
REMARK 921   NORMALIZED FREE ENERGY PREDICTED BY IDOCK:   -3.15 KCAL/MOL
REMARK 922        TOTAL FREE ENERGY PREDICTED BY IDOCK:   -4.06 KCAL/MOL
REMARK 923 INTER-LIGAND FREE ENERGY PREDICTED BY IDOCK:   -3.90 KCAL/MOL
REMARK 924 INTRA-LIGAND FREE ENERGY PREDICTED BY IDOCK:   -0.16 KCAL/MOL
REMARK 927      BINDING AFFINITY PREDICTED BY RF-SCORE:    0.00 PKD
ROOT
HETATM    1  C   UNL     1     -11.516  13.070  63.923  1.00  0.00    -0.490 C  
HETATM    2  C   UNL     1     -10.618  13.549  65.058  1.00  0.00    -0.382 C  
ENDROOT
BRANCH   2   3
HETATM    3  C   UNL     1     -11.306  13.440  66.427  1.00  0.00    -0.313 C  
BRANCH   3   4
HETATM    4  N   UNL     1     -10.872  14.468  67.381  1.00  0.00    -0.285 N  
HETATM    5  O   UNL     1      -8.555  14.303  67.181  1.00  0.00    -0.206 OA 
HETATM    6  C   UNL     1     -11.779  15.011  68.360  1.00  0.00    -0.317 C  
HETATM    7  C   UNL     1      -9.557  14.790  67.683  1.00  0.00    -0.208 C  
HETATM    8  C   UNL     1      -9.568  15.766  68.835  1.00  0.00    -0.229 C  
HETATM    9  C   UNL     1     -11.024  16.213  68.885  1.00  0.00    -0.324 C  
ENDBRANCH   3   4
BRANCH   3  10
HETATM   10  C   UNL     1     -11.164  12.030  67.030  1.00  0.00    -0.320 C  
HETATM   11  H2  UNL     1      -9.291  11.759  66.144  1.00  0.00     0.000 HD 
HETATM   12  N   UNL     1     -10.017  11.352  66.735  1.00  0.00    -0.205 N  
HETATM   13  O   UNL     1     -12.038  11.509  67.717  1.00  0.00    -0.626 OA 
HETATM   14  H1  UNL     1      -9.922  10.419  67.134  1.00  0.00     0.000 HD 
ENDBRANCH   3  10
ENDBRANCH   2   3
TORSDOF 3
ENDMDL
MODEL      102
REMARK 921   NORMALIZED FREE ENERGY PREDICTED BY IDOCK:   -3.15 KCAL/MOL
REMARK 922        TOTAL FREE ENERGY PREDICTED BY IDOCK:   -4.06 KCAL/MOL
REMARK 923 INTER-LIGAND FREE ENERGY PREDICTED BY IDOCK:   -4.07 KCAL/MOL
REMARK 924 INTRA-LIGAND FREE ENERGY PREDICTED BY IDOCK:    0.01 KCAL/MOL
REMARK 927      BINDING AFFINITY PREDICTED BY RF-SCORE:    0.00 PKD
ROOT
HETATM    1  C   UNL     1      -8.768  14.611  66.598  1.00  0.00    -0.197 C  
HETATM    2  C   UNL     1      -9.668  13.440  66.220  1.00  0.00    -0.280 C  
ENDROOT
BRANCH   2   3
HETATM    3  C   UNL     1     -11.139  13.702  66.577  1.00  0.00    -0.305 C  
BRANCH   3   4
HETATM    4  N   UNL     1     -11.493  13.278  67.938  1.00  0.00    -0.287 N  
HETATM    5  O   UNL     1     -11.244  10.968  67.758  1.00  0.00    -0.274 OA 
HETATM    6  C   UNL     1     -12.173  14.168  68.845  1.00  0.00    -0.222 C  
HETATM    7  C   UNL     1     -11.532  11.969  68.396  1.00  0.00    -0.301 C  
HETATM    8  C   UNL     1     -12.112  11.979  69.789  1.00  0.00    -0.317 C  
HETATM    9  C   UNL     1     -12.045  13.452  70.173  1.00  0.00    -0.415 C  
ENDBRANCH   3   4
BRANCH   3  10
HETATM   10  C   UNL     1     -12.100  13.088  65.541  1.00  0.00    -0.452 C  
HETATM   11  H2  UNL     1     -13.484  14.632  65.798  1.00  0.00     0.000 HD 
HETATM   12  N   UNL     1     -13.262  13.764  65.310  1.00  0.00    -0.702 N  
HETATM   13  O   UNL     1     -11.868  12.028  64.964  1.00  0.00    -0.318 OA 
HETATM   14  H1  UNL     1     -13.898  13.358  64.624  1.00  0.00     0.000 HD 
ENDBRANCH   3  10
ENDBRANCH   2   3
TORSDOF 3
ENDMDL
MODEL      103
REMARK 921   NORMALIZED FREE ENERGY PREDICTED BY IDOCK:   -3.13 KCAL/MOL
REMARK 922        TOTAL FREE ENERGY PREDICTED BY IDOCK:   -4.04 KCAL/MOL
REMARK 923 INTER-LIGAND FREE ENERGY PREDICTED BY IDOCK:   -4.14 KCAL/MOL
REMARK 924 INTRA-LIGAND FREE ENERGY PREDICTED BY IDOCK:    0.10 KCAL/MOL
REMARK 927      BINDING AFFINITY PREDICTED BY RF-SCORE:    0.00 PKD
ROOT
HETATM    1  C   UNL     1     -10.687  19.414  66.872  1.00  0.00    -0.570 C  
HETATM    2  C   UNL     1     -10.200  19.938  68.218  1.00  0.00    -0.562 C  
ENDROOT
BRANCH   2   3
HETATM    3  C   UNL     1      -8.938  19.208  68.701  1.00  0.00    -0.369 C  
BRANCH   3   4
HETATM    4  N   UNL     1      -7.691  19.878  68.309  1.00  0.00    -0.290 N  
HETATM    5  O   UNL     1      -6.359  19.455  70.174  1.00  0.00    -0.238 OA 
HETATM    6  C   UNL     1      -7.659  20.821  67.220  1.00  0.00    -0.305 C  
HETATM    7  C   UNL     1      -6.537  19.957  69.075  1.00  0.00    -0.328 C  
HETATM    8  C   UNL     1      -5.571  20.878  68.370  1.00  0.00    -0.382 C  
HETATM    9  C   UNL     1      -6.176  21.000  66.977  1.00  0.00    -0.379 C  
ENDBRANCH   3   4
BRANCH   3  10
HETATM   10  C   UNL     1      -8.930  17.729  68.269  1.00  0.00    -0.277 C  
HETATM   11  H2  UNL     1      -7.341  18.046  66.949  1.00  0.00     0.000 HD 
HETATM   12  N   UNL     1      -7.999  17.370  67.339  1.00  0.00    -0.195 N  
HETATM   13  O   UNL     1      -9.732  16.906  68.702  1.00  0.00    -0.246 OA 
HETATM   14  H1  UNL     1      -7.994  16.391  67.053  1.00  0.00     0.000 HD 
ENDBRANCH   3  10
ENDBRANCH   2   3
TORSDOF 3
ENDMDL
MODEL      104
REMARK 921   NORMALIZED FREE ENERGY PREDICTED BY IDOCK:   -3.12 KCAL/MOL
REMARK 922        TOTAL FREE ENERGY PREDICTED BY IDOCK:   -4.03 KCAL/MOL
REMARK 923 INTER-LIGAND FREE ENERGY PREDICTED BY IDOCK:   -3.69 KCAL/MOL
REMARK 924 INTRA-LIGAND FREE ENERGY PREDICTED BY IDOCK:   -0.34 KCAL/MOL
REMARK 927      BINDING AFFINITY PREDICTED BY RF-SCORE:    0.00 PKD
ROOT
HETATM    1  C   UNL     1      -7.572  17.022  66.482  1.00  0.00    -0.326 C  
HETATM    2  C   UNL     1      -8.876  16.392  66.004  1.00  0.00    -0.296 C  
ENDROOT
BRANCH   2   3
HETATM    3  C   UNL     1      -9.145  15.037  66.677  1.00  0.00    -0.280 C  
BRANCH   3   4
HETATM    4  N   UNL     1     -10.098  14.199  65.938  1.00  0.00    -0.309 N  
HETATM    5  O   UNL     1      -9.287  12.071  66.434  1.00  0.00    -0.220 OA 
HETATM    6  C   UNL     1     -10.956  14.758  64.925  1.00  0.00    -0.412 C  
HETATM    7  C   UNL     1     -10.074  12.814  65.868  1.00  0.00    -0.276 C  
HETATM    8  C   UNL     1     -11.118  12.380  64.867  1.00  0.00    -0.344 C  
HETATM    9  C   UNL     1     -11.949  13.642  64.676  1.00  0.00    -0.441 C  
ENDBRANCH   3   4
BRANCH   3  10
HETATM   10  C   UNL     1      -9.577  15.202  68.146  1.00  0.00    -0.205 C  
HETATM   11  H2  UNL     1      -7.837  14.275  68.839  1.00  0.00     0.000 HD 
HETATM   12  N   UNL     1      -8.720  14.721  69.092  1.00  0.00    -0.342 N  
HETATM   13  O   UNL     1     -10.649  15.706  68.472  1.00  0.00    -0.241 OA 
HETATM   14  H1  UNL     1      -9.006  14.829  70.064  1.00  0.00     0.000 HD 
ENDBRANCH   3  10
ENDBRANCH   2   3
TORSDOF 3
ENDMDL
MODEL      105
REMARK 921   NORMALIZED FREE ENERGY PREDICTED BY IDOCK:   -3.08 KCAL/MOL
REMARK 922        TOTAL FREE ENERGY PREDICTED BY IDOCK:   -3.98 KCAL/MOL
REMARK 923 INTER-LIGAND FREE ENERGY PREDICTED BY IDOCK:   -3.85 KCAL/MOL
REMARK 924 INTRA-LIGAND FREE ENERGY PREDICTED BY IDOCK:   -0.13 KCAL/MOL
REMARK 927      BINDING AFFINITY PREDICTED BY RF-SCORE:    0.00 PKD
ROOT
HETATM    1  C   UNL     1      -9.583   7.021  70.294  1.00  0.00    -0.168 C  
HETATM    2  C   UNL     1     -10.448   7.727  71.332  1.00  0.00    -0.237 C  
ENDROOT
BRANCH   2   3
HETATM    3  C   UNL     1     -11.841   8.074  70.785  1.00  0.00    -0.162 C  
BRANCH   3   4
HETATM    4  N   UNL     1     -12.115   9.517  70.759  1.00  0.00    -0.266 N  
HETATM    5  O   UNL     1     -11.017  10.137  68.798  1.00  0.00    -0.222 OA 
HETATM    6  C   UNL     1     -12.590  10.209  71.930  1.00  0.00    -0.343 C  
HETATM    7  C   UNL     1     -11.671  10.409  69.794  1.00  0.00    -0.237 C  
HETATM    8  C   UNL     1     -12.028  11.804  70.249  1.00  0.00    -0.429 C  
HETATM    9  C   UNL     1     -13.024  11.548  71.373  1.00  0.00    -0.450 C  
ENDBRANCH   3   4
BRANCH   3  10
HETATM   10  C   UNL     1     -12.956   7.314  71.529  1.00  0.00    -0.389 C  
HETATM   11  H2  UNL     1     -11.573   6.070  72.482  1.00  0.00     0.000 HD 
HETATM   12  N   UNL     1     -12.558   6.307  72.360  1.00  0.00    -0.533 N  
HETATM   13  O   UNL     1     -14.148   7.562  71.373  1.00  0.00    -0.415 OA 
HETATM   14  H1  UNL     1     -13.295   5.804  72.852  1.00  0.00     0.000 HD 
ENDBRANCH   3  10
ENDBRANCH   2   3
TORSDOF 3
ENDMDL
MODEL      106
REMARK 921   NORMALIZED FREE ENERGY PREDICTED BY IDOCK:   -3.08 KCAL/MOL
REMARK 922        TOTAL FREE ENERGY PREDICTED BY IDOCK:   -3.98 KCAL/MOL
REMARK 923 INTER-LIGAND FREE ENERGY PREDICTED BY IDOCK:   -4.23 KCAL/MOL
REMARK 924 INTRA-LIGAND FREE ENERGY PREDICTED BY IDOCK:    0.26 KCAL/MOL
REMARK 927      BINDING AFFINITY PREDICTED BY RF-SCORE:    0.00 PKD
ROOT
HETATM    1  C   UNL     1     -10.817  19.490  66.949  1.00  0.00    -0.523 C  
HETATM    2  C   UNL     1      -9.742  19.948  67.928  1.00  0.00    -0.510 C  
ENDROOT
BRANCH   2   3
HETATM    3  C   UNL     1      -8.638  18.895  68.110  1.00  0.00    -0.316 C  
BRANCH   3   4
HETATM    4  N   UNL     1      -7.365  19.459  68.574  1.00  0.00    -0.319 N  
HETATM    5  O   UNL     1      -7.164  21.307  67.167  1.00  0.00    -0.475 OA 
HETATM    6  C   UNL     1      -6.461  18.692  69.392  1.00  0.00    -0.250 C  
HETATM    7  C   UNL     1      -6.741  20.586  68.058  1.00  0.00    -0.295 C  
HETATM    8  C   UNL     1      -5.381  20.703  68.703  1.00  0.00    -0.333 C  
HETATM    9  C   UNL     1      -5.480  19.737  69.878  1.00  0.00    -0.261 C  
ENDBRANCH   3   4
BRANCH   3  10
HETATM   10  C   UNL     1      -8.437  18.050  66.838  1.00  0.00    -0.249 C  
HETATM   11  H2  UNL     1      -9.247  16.352  67.748  1.00  0.00     0.000 HD 
HETATM   12  N   UNL     1      -8.836  16.746  66.901  1.00  0.00    -0.207 N  
HETATM   13  O   UNL     1      -7.916  18.495  65.819  1.00  0.00    -0.498 OA 
HETATM   14  H1  UNL     1      -8.703  16.187  66.060  1.00  0.00     0.000 HD 
ENDBRANCH   3  10
ENDBRANCH   2   3
TORSDOF 3
ENDMDL
MODEL      107
REMARK 921   NORMALIZED FREE ENERGY PREDICTED BY IDOCK:   -3.08 KCAL/MOL
REMARK 922        TOTAL FREE ENERGY PREDICTED BY IDOCK:   -3.97 KCAL/MOL
REMARK 923 INTER-LIGAND FREE ENERGY PREDICTED BY IDOCK:   -3.65 KCAL/MOL
REMARK 924 INTRA-LIGAND FREE ENERGY PREDICTED BY IDOCK:   -0.32 KCAL/MOL
REMARK 927      BINDING AFFINITY PREDICTED BY RF-SCORE:    0.00 PKD
ROOT
HETATM    1  C   UNL     1     -13.246  10.271  71.839  1.00  0.00    -0.550 C  
HETATM    2  C   UNL     1     -11.979  10.573  71.046  1.00  0.00    -0.466 C  
ENDROOT
BRANCH   2   3
HETATM    3  C   UNL     1     -11.433   9.328  70.330  1.00  0.00    -0.213 C  
BRANCH   3   4
HETATM    4  N   UNL     1     -11.069   8.240  71.247  1.00  0.00    -0.244 N  
HETATM    5  O   UNL     1     -12.817   6.745  70.874  1.00  0.00    -0.259 OA 
HETATM    6  C   UNL     1     -10.094   8.437  72.290  1.00  0.00    -0.312 C  
HETATM    7  C   UNL     1     -11.790   7.073  71.449  1.00  0.00    -0.320 C  
HETATM    8  C   UNL     1     -11.156   6.324  72.596  1.00  0.00    -0.298 C  
HETATM    9  C   UNL     1      -9.812   7.024  72.754  1.00  0.00    -0.199 C  
ENDBRANCH   3   4
BRANCH   3  10
HETATM   10  C   UNL     1     -10.262   9.673  69.391  1.00  0.00    -0.209 C  
HETATM   11  H2  UNL     1     -10.260  11.670  70.007  1.00  0.00     0.000 HD 
HETATM   12  N   UNL     1      -9.830  10.967  69.405  1.00  0.00    -0.428 N  
HETATM   13  O   UNL     1      -9.751   8.851  68.635  1.00  0.00    -0.156 OA 
HETATM   14  H1  UNL     1      -9.055  11.196  68.783  1.00  0.00     0.000 HD 
ENDBRANCH   3  10
ENDBRANCH   2   3
TORSDOF 3
ENDMDL
MODEL      108
REMARK 921   NORMALIZED FREE ENERGY PREDICTED BY IDOCK:   -3.07 KCAL/MOL
REMARK 922        TOTAL FREE ENERGY PREDICTED BY IDOCK:   -3.97 KCAL/MOL
REMARK 923 INTER-LIGAND FREE ENERGY PREDICTED BY IDOCK:   -3.78 KCAL/MOL
REMARK 924 INTRA-LIGAND FREE ENERGY PREDICTED BY IDOCK:   -0.19 KCAL/MOL
REMARK 927      BINDING AFFINITY PREDICTED BY RF-SCORE:    0.00 PKD
ROOT
HETATM    1  C   UNL     1     -10.690  19.815  65.745  1.00  0.00    -0.474 C  
HETATM    2  C   UNL     1      -9.520  19.450  66.652  1.00  0.00    -0.416 C  
ENDROOT
BRANCH   2   3
HETATM    3  C   UNL     1      -9.077  17.990  66.466  1.00  0.00    -0.269 C  
BRANCH   3   4
HETATM    4  N   UNL     1     -10.004  17.020  67.062  1.00  0.00    -0.278 N  
HETATM    5  O   UNL     1     -10.381  17.994  69.146  1.00  0.00    -0.322 OA 
HETATM    6  C   UNL     1     -10.170  15.703  66.502  1.00  0.00    -0.283 C  
HETATM    7  C   UNL     1     -10.551  17.096  68.335  1.00  0.00    -0.371 C  
HETATM    8  C   UNL     1     -11.299  15.812  68.599  1.00  0.00    -0.369 C  
HETATM    9  C   UNL     1     -11.405  15.191  67.212  1.00  0.00    -0.305 C  
ENDBRANCH   3   4
BRANCH   3  10
HETATM   10  C   UNL     1      -7.639  17.759  66.966  1.00  0.00    -0.204 C  
HETATM   11  H2  UNL     1      -7.920  19.037  68.595  1.00  0.00     0.000 HD 
HETATM   12  N   UNL     1      -7.273  18.421  68.102  1.00  0.00    -0.253 N  
HETATM   13  O   UNL     1      -6.834  17.047  66.371  1.00  0.00    -0.237 OA 
HETATM   14  H1  UNL     1      -6.321  18.268  68.433  1.00  0.00     0.000 HD 
ENDBRANCH   3  10
ENDBRANCH   2   3
TORSDOF 3
ENDMDL
MODEL      109
REMARK 921   NORMALIZED FREE ENERGY PREDICTED BY IDOCK:   -3.07 KCAL/MOL
REMARK 922        TOTAL FREE ENERGY PREDICTED BY IDOCK:   -3.96 KCAL/MOL
REMARK 923 INTER-LIGAND FREE ENERGY PREDICTED BY IDOCK:   -3.71 KCAL/MOL
REMARK 924 INTRA-LIGAND FREE ENERGY PREDICTED BY IDOCK:   -0.25 KCAL/MOL
REMARK 927      BINDING AFFINITY PREDICTED BY RF-SCORE:    0.00 PKD
ROOT
HETATM    1  C   UNL     1     -13.115  10.942  71.631  1.00  0.00    -0.538 C  
HETATM    2  C   UNL     1     -12.731   9.628  70.961  1.00  0.00    -0.354 C  
ENDROOT
BRANCH   2   3
HETATM    3  C   UNL     1     -11.337   9.144  71.389  1.00  0.00    -0.344 C  
BRANCH   3   4
HETATM    4  N   UNL     1     -10.499   8.711  70.264  1.00  0.00    -0.205 N  
HETATM    5  O   UNL     1     -11.521   6.693  69.704  1.00  0.00    -0.338 OA 
HETATM    6  C   UNL     1      -9.213   9.312  70.015  1.00  0.00    -0.210 C  
HETATM    7  C   UNL     1     -10.651   7.535  69.545  1.00  0.00    -0.236 C  
HETATM    8  C   UNL     1      -9.477   7.408  68.604  1.00  0.00    -0.139 C  
HETATM    9  C   UNL     1      -8.870   8.805  68.631  1.00  0.00    -0.138 C  
ENDBRANCH   3   4
BRANCH   3  10
HETATM   10  C   UNL     1     -11.417   8.051  72.471  1.00  0.00    -0.409 C  
HETATM   11  H2  UNL     1     -13.334   7.484  71.862  1.00  0.00     0.000 HD 
HETATM   12  N   UNL     1     -12.566   7.317  72.514  1.00  0.00    -0.465 N  
HETATM   13  O   UNL     1     -10.518   7.854  73.285  1.00  0.00    -0.339 OA 
HETATM   14  H1  UNL     1     -12.619   6.594  73.230  1.00  0.00     0.000 HD 
ENDBRANCH   3  10
ENDBRANCH   2   3
TORSDOF 3
ENDMDL
MODEL      110
REMARK 921   NORMALIZED FREE ENERGY PREDICTED BY IDOCK:   -3.06 KCAL/MOL
REMARK 922        TOTAL FREE ENERGY PREDICTED BY IDOCK:   -3.95 KCAL/MOL
REMARK 923 INTER-LIGAND FREE ENERGY PREDICTED BY IDOCK:   -3.91 KCAL/MOL
REMARK 924 INTRA-LIGAND FREE ENERGY PREDICTED BY IDOCK:   -0.04 KCAL/MOL
REMARK 927      BINDING AFFINITY PREDICTED BY RF-SCORE:    0.00 PKD
ROOT
HETATM    1  C   UNL     1     -14.386   7.230  71.481  1.00  0.00    -0.558 C  
HETATM    2  C   UNL     1     -12.895   6.976  71.289  1.00  0.00    -0.376 C  
ENDROOT
BRANCH   2   3
HETATM    3  C   UNL     1     -12.040   8.165  71.756  1.00  0.00    -0.315 C  
BRANCH   3   4
HETATM    4  N   UNL     1     -11.525   8.983  70.650  1.00  0.00    -0.263 N  
HETATM    5  O   UNL     1     -10.196   7.427  69.534  1.00  0.00    -0.193 OA 
HETATM    6  C   UNL     1     -11.615  10.421  70.679  1.00  0.00    -0.349 C  
HETATM    7  C   UNL     1     -10.649   8.554  69.664  1.00  0.00    -0.220 C  
HETATM    8  C   UNL     1     -10.248   9.755  68.842  1.00  0.00    -0.213 C  
HETATM    9  C   UNL     1     -11.271  10.805  69.255  1.00  0.00    -0.333 C  
ENDBRANCH   3   4
BRANCH   3  10
HETATM   10  C   UNL     1     -10.900   7.720  72.691  1.00  0.00    -0.354 C  
HETATM   11  H2  UNL     1     -11.887   5.942  73.170  1.00  0.00     0.000 HD 
HETATM   12  N   UNL     1     -11.057   6.517  73.316  1.00  0.00    -0.475 N  
HETATM   13  O   UNL     1      -9.907   8.411  72.905  1.00  0.00    -0.261 OA 
HETATM   14  H1  UNL     1     -10.303   6.223  73.935  1.00  0.00     0.000 HD 
ENDBRANCH   3  10
ENDBRANCH   2   3
TORSDOF 3
ENDMDL
MODEL      111
REMARK 921   NORMALIZED FREE ENERGY PREDICTED BY IDOCK:   -3.05 KCAL/MOL
REMARK 922        TOTAL FREE ENERGY PREDICTED BY IDOCK:   -3.95 KCAL/MOL
REMARK 923 INTER-LIGAND FREE ENERGY PREDICTED BY IDOCK:   -3.81 KCAL/MOL
REMARK 924 INTRA-LIGAND FREE ENERGY PREDICTED BY IDOCK:   -0.14 KCAL/MOL
REMARK 927      BINDING AFFINITY PREDICTED BY RF-SCORE:    0.00 PKD
ROOT
HETATM    1  C   UNL     1     -11.378  15.887  70.790  1.00  0.00    -0.424 C  
HETATM    2  C   UNL     1     -11.848  15.862  69.340  1.00  0.00    -0.325 C  
ENDROOT
BRANCH   2   3
HETATM    3  C   UNL     1     -10.746  15.382  68.382  1.00  0.00    -0.256 C  
BRANCH   3   4
HETATM    4  N   UNL     1     -10.172  16.460  67.567  1.00  0.00    -0.267 N  
HETATM    5  O   UNL     1      -8.259  15.416  66.741  1.00  0.00    -0.232 OA 
HETATM    6  C   UNL     1     -10.612  17.825  67.714  1.00  0.00    -0.386 C  
HETATM    7  C   UNL     1      -8.990  16.390  66.846  1.00  0.00    -0.216 C  
HETATM    8  C   UNL     1      -8.689  17.767  66.306  1.00  0.00    -0.206 C  
HETATM    9  C   UNL     1     -10.009  18.502  66.503  1.00  0.00    -0.401 C  
ENDBRANCH   3   4
BRANCH   3  10
HETATM   10  C   UNL     1     -11.224  14.215  67.497  1.00  0.00    -0.306 C  
HETATM   11  H2  UNL     1     -13.138  15.035  67.320  1.00  0.00     0.000 HD 
HETATM   12  N   UNL     1     -12.518  14.264  67.068  1.00  0.00    -0.543 N  
HETATM   13  O   UNL     1     -10.504  13.262  67.208  1.00  0.00    -0.245 OA 
HETATM   14  H1  UNL     1     -12.834  13.492  66.483  1.00  0.00     0.000 HD 
ENDBRANCH   3  10
ENDBRANCH   2   3
TORSDOF 3
ENDMDL
MODEL      112
REMARK 921   NORMALIZED FREE ENERGY PREDICTED BY IDOCK:   -3.05 KCAL/MOL
REMARK 922        TOTAL FREE ENERGY PREDICTED BY IDOCK:   -3.95 KCAL/MOL
REMARK 923 INTER-LIGAND FREE ENERGY PREDICTED BY IDOCK:   -3.86 KCAL/MOL
REMARK 924 INTRA-LIGAND FREE ENERGY PREDICTED BY IDOCK:   -0.09 KCAL/MOL
REMARK 927      BINDING AFFINITY PREDICTED BY RF-SCORE:    0.00 PKD
ROOT
HETATM    1  C   UNL     1      -9.856   7.275  73.513  1.00  0.00    -0.347 C  
HETATM    2  C   UNL     1     -10.251   8.310  72.466  1.00  0.00    -0.386 C  
ENDROOT
BRANCH   2   3
HETATM    3  C   UNL     1     -11.354   7.793  71.529  1.00  0.00    -0.255 C  
BRANCH   3   4
HETATM    4  N   UNL     1     -10.915   7.650  70.135  1.00  0.00    -0.256 N  
HETATM    5  O   UNL     1     -10.407   9.861  69.604  1.00  0.00    -0.208 OA 
HETATM    6  C   UNL     1     -11.197   6.454  69.382  1.00  0.00    -0.394 C  
HETATM    7  C   UNL     1     -10.505   8.681  69.304  1.00  0.00    -0.217 C  
HETATM    8  C   UNL     1     -10.316   8.115  67.917  1.00  0.00    -0.280 C  
HETATM    9  C   UNL     1     -10.315   6.612  68.162  1.00  0.00    -0.223 C  
ENDBRANCH   3   4
BRANCH   3  10
HETATM   10  C   UNL     1     -12.632   8.649  71.621  1.00  0.00    -0.338 C  
HETATM   11  H2  UNL     1     -13.787   7.153  70.731  1.00  0.00     0.000 HD 
HETATM   12  N   UNL     1     -13.777   8.090  71.134  1.00  0.00    -0.577 N  
HETATM   13  O   UNL     1     -12.636   9.791  72.073  1.00  0.00    -0.380 OA 
HETATM   14  H1  UNL     1     -14.623   8.657  71.195  1.00  0.00     0.000 HD 
ENDBRANCH   3  10
ENDBRANCH   2   3
TORSDOF 3
ENDMDL
MODEL      113
REMARK 921   NORMALIZED FREE ENERGY PREDICTED BY IDOCK:   -3.04 KCAL/MOL
REMARK 922        TOTAL FREE ENERGY PREDICTED BY IDOCK:   -3.93 KCAL/MOL
REMARK 923 INTER-LIGAND FREE ENERGY PREDICTED BY IDOCK:   -3.60 KCAL/MOL
REMARK 924 INTRA-LIGAND FREE ENERGY PREDICTED BY IDOCK:   -0.33 KCAL/MOL
REMARK 927      BINDING AFFINITY PREDICTED BY RF-SCORE:    0.00 PKD
ROOT
HETATM    1  C   UNL     1      -7.465  12.306  68.199  1.00  0.00    -0.112 C  
HETATM    2  C   UNL     1      -8.175  12.430  66.856  1.00  0.00    -0.089 C  
ENDROOT
BRANCH   2   3
HETATM    3  C   UNL     1      -9.523  13.158  66.978  1.00  0.00    -0.242 C  
BRANCH   3   4
HETATM    4  N   UNL     1     -10.466  12.822  65.905  1.00  0.00    -0.271 N  
HETATM    5  O   UNL     1     -12.364  13.978  66.609  1.00  0.00    -0.451 OA 
HETATM    6  C   UNL     1     -10.208  11.734  64.995  1.00  0.00    -0.272 C  
HETATM    7  C   UNL     1     -11.787  13.239  65.826  1.00  0.00    -0.387 C  
HETATM    8  C   UNL     1     -12.434  12.523  64.665  1.00  0.00    -0.539 C  
HETATM    9  C   UNL     1     -11.239  11.956  63.909  1.00  0.00    -0.497 C  
ENDBRANCH   3   4
BRANCH   3  10
HETATM   10  C   UNL     1      -9.342  14.683  67.098  1.00  0.00    -0.223 C  
HETATM   11  H2  UNL     1     -10.492  14.757  68.842  1.00  0.00     0.000 HD 
HETATM   12  N   UNL     1      -9.948  15.288  68.161  1.00  0.00    -0.219 N  
HETATM   13  O   UNL     1      -8.718  15.346  66.274  1.00  0.00    -0.300 OA 
HETATM   14  H1  UNL     1      -9.829  16.297  68.240  1.00  0.00     0.000 HD 
ENDBRANCH   3  10
ENDBRANCH   2   3
TORSDOF 3
ENDMDL
MODEL      114
REMARK 921   NORMALIZED FREE ENERGY PREDICTED BY IDOCK:   -3.03 KCAL/MOL
REMARK 922        TOTAL FREE ENERGY PREDICTED BY IDOCK:   -3.92 KCAL/MOL
REMARK 923 INTER-LIGAND FREE ENERGY PREDICTED BY IDOCK:   -3.65 KCAL/MOL
REMARK 924 INTRA-LIGAND FREE ENERGY PREDICTED BY IDOCK:   -0.27 KCAL/MOL
REMARK 927      BINDING AFFINITY PREDICTED BY RF-SCORE:    0.00 PKD
ROOT
HETATM    1  C   UNL     1      -7.258  15.999  69.071  1.00  0.00    -0.182 C  
HETATM    2  C   UNL     1      -8.595  15.286  68.903  1.00  0.00    -0.207 C  
ENDROOT
BRANCH   2   3
HETATM    3  C   UNL     1      -9.782  16.185  69.281  1.00  0.00    -0.242 C  
BRANCH   3   4
HETATM    4  N   UNL     1     -10.846  15.474  70.001  1.00  0.00    -0.294 N  
HETATM    5  O   UNL     1     -11.539  13.955  68.374  1.00  0.00    -0.290 OA 
HETATM    6  C   UNL     1     -11.414  16.007  71.213  1.00  0.00    -0.417 C  
HETATM    7  C   UNL     1     -11.630  14.452  69.486  1.00  0.00    -0.304 C  
HETATM    8  C   UNL     1     -12.705  14.135  70.497  1.00  0.00    -0.374 C  
HETATM    9  C   UNL     1     -12.205  14.836  71.754  1.00  0.00    -0.416 C  
ENDBRANCH   3   4
BRANCH   3  10
HETATM   10  C   UNL     1     -10.347  16.933  68.058  1.00  0.00    -0.334 C  
HETATM   11  H2  UNL     1      -9.770  15.401  66.760  1.00  0.00     0.000 HD 
HETATM   12  N   UNL     1     -10.217  16.313  66.850  1.00  0.00    -0.282 N  
HETATM   13  O   UNL     1     -10.861  18.046  68.138  1.00  0.00    -0.303 OA 
HETATM   14  H1  UNL     1     -10.591  16.808  66.041  1.00  0.00     0.000 HD 
ENDBRANCH   3  10
ENDBRANCH   2   3
TORSDOF 3
ENDMDL
MODEL      115
REMARK 921   NORMALIZED FREE ENERGY PREDICTED BY IDOCK:   -3.03 KCAL/MOL
REMARK 922        TOTAL FREE ENERGY PREDICTED BY IDOCK:   -3.92 KCAL/MOL
REMARK 923 INTER-LIGAND FREE ENERGY PREDICTED BY IDOCK:   -3.65 KCAL/MOL
REMARK 924 INTRA-LIGAND FREE ENERGY PREDICTED BY IDOCK:   -0.26 KCAL/MOL
REMARK 927      BINDING AFFINITY PREDICTED BY RF-SCORE:    0.00 PKD
ROOT
HETATM    1  C   UNL     1      -7.668   7.161  68.127  1.00  0.00    -0.117 C  
HETATM    2  C   UNL     1      -8.607   7.730  69.184  1.00  0.00    -0.138 C  
ENDROOT
BRANCH   2   3
HETATM    3  C   UNL     1      -9.989   8.072  68.607  1.00  0.00    -0.189 C  
BRANCH   3   4
HETATM    4  N   UNL     1     -10.683   9.136  69.344  1.00  0.00    -0.221 N  
HETATM    5  O   UNL     1     -11.017  10.700  67.649  1.00  0.00    -0.270 OA 
HETATM    6  C   UNL     1     -10.680   9.171  70.785  1.00  0.00    -0.263 C  
HETATM    7  C   UNL     1     -11.112  10.343  68.814  1.00  0.00    -0.250 C  
HETATM    8  C   UNL     1     -11.609  11.202  69.951  1.00  0.00    -0.416 C  
HETATM    9  C   UNL     1     -11.741  10.205  71.095  1.00  0.00    -0.453 C  
ENDBRANCH   3   4
BRANCH   3  10
HETATM   10  C   UNL     1     -10.880   6.822  68.472  1.00  0.00    -0.222 C  
HETATM   11  H2  UNL     1     -11.325   7.263  66.479  1.00  0.00     0.000 HD 
HETATM   12  N   UNL     1     -11.468   6.620  67.258  1.00  0.00    -0.749 N  
HETATM   13  O   UNL     1     -11.091   6.052  69.405  1.00  0.00    -0.366 OA 
HETATM   14  H1  UNL     1     -12.058   5.793  67.169  1.00  0.00     0.000 HD 
ENDBRANCH   3  10
ENDBRANCH   2   3
TORSDOF 3
ENDMDL
MODEL      116
REMARK 921   NORMALIZED FREE ENERGY PREDICTED BY IDOCK:   -3.01 KCAL/MOL
REMARK 922        TOTAL FREE ENERGY PREDICTED BY IDOCK:   -3.90 KCAL/MOL
REMARK 923 INTER-LIGAND FREE ENERGY PREDICTED BY IDOCK:   -3.65 KCAL/MOL
REMARK 924 INTRA-LIGAND FREE ENERGY PREDICTED BY IDOCK:   -0.24 KCAL/MOL
REMARK 927      BINDING AFFINITY PREDICTED BY RF-SCORE:    0.00 PKD
ROOT
HETATM    1  C   UNL     1     -11.224  16.220  68.906  1.00  0.00    -0.337 C  
HETATM    2  C   UNL     1      -9.734  16.515  68.781  1.00  0.00    -0.251 C  
ENDROOT
BRANCH   2   3
HETATM    3  C   UNL     1      -9.453  17.686  67.827  1.00  0.00    -0.260 C  
BRANCH   3   4
HETATM    4  N   UNL     1      -8.030  18.037  67.738  1.00  0.00    -0.232 N  
HETATM    5  O   UNL     1      -7.898  18.779  65.532  1.00  0.00    -0.409 OA 
HETATM    6  C   UNL     1      -7.083  17.579  68.723  1.00  0.00    -0.248 C  
HETATM    7  C   UNL     1      -7.385  18.527  66.612  1.00  0.00    -0.224 C  
HETATM    8  C   UNL     1      -5.905  18.580  66.908  1.00  0.00    -0.163 C  
HETATM    9  C   UNL     1      -5.857  18.414  68.422  1.00  0.00    -0.180 C  
ENDBRANCH   3   4
BRANCH   3  10
HETATM   10  C   UNL     1     -10.306  18.922  68.171  1.00  0.00    -0.366 C  
HETATM   11  H2  UNL     1      -9.607  18.950  70.140  1.00  0.00     0.000 HD 
HETATM   12  N   UNL     1     -10.212  19.393  69.448  1.00  0.00    -0.541 N  
HETATM   13  O   UNL     1     -11.065  19.452  67.363  1.00  0.00    -0.445 OA 
HETATM   14  H1  UNL     1     -10.777  20.211  69.675  1.00  0.00     0.000 HD 
ENDBRANCH   3  10
ENDBRANCH   2   3
TORSDOF 3
ENDMDL
MODEL      117
REMARK 921   NORMALIZED FREE ENERGY PREDICTED BY IDOCK:   -2.99 KCAL/MOL
REMARK 922        TOTAL FREE ENERGY PREDICTED BY IDOCK:   -3.88 KCAL/MOL
REMARK 923 INTER-LIGAND FREE ENERGY PREDICTED BY IDOCK:   -3.52 KCAL/MOL
REMARK 924 INTRA-LIGAND FREE ENERGY PREDICTED BY IDOCK:   -0.36 KCAL/MOL
REMARK 927      BINDING AFFINITY PREDICTED BY RF-SCORE:    0.00 PKD
ROOT
HETATM    1  C   UNL     1      -9.012   9.562  70.170  1.00  0.00    -0.269 C  
HETATM    2  C   UNL     1     -10.183   9.141  71.050  1.00  0.00    -0.372 C  
ENDROOT
BRANCH   2   3
HETATM    3  C   UNL     1      -9.903   7.829  71.798  1.00  0.00    -0.167 C  
BRANCH   3   4
HETATM    4  N   UNL     1      -9.715   6.678  70.906  1.00  0.00    -0.179 N  
HETATM    5  O   UNL     1     -11.843   6.490  69.975  1.00  0.00    -0.404 OA 
HETATM    6  C   UNL     1      -8.574   5.807  71.039  1.00  0.00    -0.131 C  
HETATM    7  C   UNL     1     -10.690   6.108  70.101  1.00  0.00    -0.302 C  
HETATM    8  C   UNL     1     -10.117   4.851  69.493  1.00  0.00    -0.286 C  
HETATM    9  C   UNL     1      -8.624   4.994  69.763  1.00  0.00    -0.100 C  
ENDBRANCH   3   4
BRANCH   3  10
HETATM   10  C   UNL     1     -10.978   7.534  72.861  1.00  0.00    -0.383 C  
HETATM   11  H2  UNL     1     -12.357   8.793  71.924  1.00  0.00     0.000 HD 
HETATM   12  N   UNL     1     -12.179   8.161  72.705  1.00  0.00    -0.599 N  
HETATM   13  O   UNL     1     -10.776   6.801  73.826  1.00  0.00    -0.325 OA 
HETATM   14  H1  UNL     1     -12.891   7.966  73.409  1.00  0.00     0.000 HD 
ENDBRANCH   3  10
ENDBRANCH   2   3
TORSDOF 3
ENDMDL
MODEL      118
REMARK 921   NORMALIZED FREE ENERGY PREDICTED BY IDOCK:   -2.99 KCAL/MOL
REMARK 922        TOTAL FREE ENERGY PREDICTED BY IDOCK:   -3.87 KCAL/MOL
REMARK 923 INTER-LIGAND FREE ENERGY PREDICTED BY IDOCK:   -3.54 KCAL/MOL
REMARK 924 INTRA-LIGAND FREE ENERGY PREDICTED BY IDOCK:   -0.33 KCAL/MOL
REMARK 927      BINDING AFFINITY PREDICTED BY RF-SCORE:    0.00 PKD
ROOT
HETATM    1  C   UNL     1      -9.524  11.150  63.200  1.00  0.00    -0.371 C  
HETATM    2  C   UNL     1      -9.738  11.138  64.710  1.00  0.00    -0.303 C  
ENDROOT
BRANCH   2   3
HETATM    3  C   UNL     1     -10.306  12.469  65.225  1.00  0.00    -0.287 C  
BRANCH   3   4
HETATM    4  N   UNL     1      -9.438  13.133  66.206  1.00  0.00    -0.227 N  
HETATM    5  O   UNL     1     -10.116  15.349  65.965  1.00  0.00    -0.281 OA 
HETATM    6  C   UNL     1      -8.280  12.469  66.749  1.00  0.00     0.008 C  
HETATM    7  C   UNL     1      -9.406  14.493  66.472  1.00  0.00    -0.284 C  
HETATM    8  C   UNL     1      -8.254  14.759  67.410  1.00  0.00    -0.216 C  
HETATM    9  C   UNL     1      -7.894  13.365  67.906  1.00  0.00    -0.152 C  
ENDBRANCH   3   4
BRANCH   3  10
HETATM   10  C   UNL     1     -11.737  12.308  65.774  1.00  0.00    -0.385 C  
HETATM   11  H2  UNL     1     -12.458  13.839  64.548  1.00  0.00     0.000 HD 
HETATM   12  N   UNL     1     -12.685  13.144  65.260  1.00  0.00    -0.613 N  
HETATM   13  O   UNL     1     -12.025  11.500  66.653  1.00  0.00    -0.428 OA 
HETATM   14  H1  UNL     1     -13.632  13.038  65.623  1.00  0.00     0.000 HD 
ENDBRANCH   3  10
ENDBRANCH   2   3
TORSDOF 3
ENDMDL
MODEL      119
REMARK 921   NORMALIZED FREE ENERGY PREDICTED BY IDOCK:   -2.96 KCAL/MOL
REMARK 922        TOTAL FREE ENERGY PREDICTED BY IDOCK:   -3.84 KCAL/MOL
REMARK 923 INTER-LIGAND FREE ENERGY PREDICTED BY IDOCK:   -3.61 KCAL/MOL
REMARK 924 INTRA-LIGAND FREE ENERGY PREDICTED BY IDOCK:   -0.23 KCAL/MOL
REMARK 927      BINDING AFFINITY PREDICTED BY RF-SCORE:    0.00 PKD
ROOT
HETATM    1  C   UNL     1     -10.493  16.262  65.773  1.00  0.00    -0.379 C  
HETATM    2  C   UNL     1     -10.218  17.351  66.804  1.00  0.00    -0.318 C  
ENDROOT
BRANCH   2   3
HETATM    3  C   UNL     1      -8.917  18.113  66.510  1.00  0.00    -0.275 C  
BRANCH   3   4
HETATM    4  N   UNL     1      -7.868  17.884  67.511  1.00  0.00    -0.211 N  
HETATM    5  O   UNL     1      -6.911  15.917  66.705  1.00  0.00    -0.225 OA 
HETATM    6  C   UNL     1      -7.877  18.575  68.775  1.00  0.00    -0.275 C  
HETATM    7  C   UNL     1      -6.984  16.815  67.531  1.00  0.00    -0.143 C  
HETATM    8  C   UNL     1      -6.203  16.879  68.820  1.00  0.00    -0.157 C  
HETATM    9  C   UNL     1      -6.497  18.286  69.324  1.00  0.00    -0.261 C  
ENDBRANCH   3   4
BRANCH   3  10
HETATM   10  C   UNL     1      -9.168  19.619  66.306  1.00  0.00    -0.375 C  
HETATM   11  H2  UNL     1      -7.157  19.969  65.858  1.00  0.00     0.000 HD 
HETATM   12  N   UNL     1      -8.085  20.378  65.969  1.00  0.00    -0.541 N  
HETATM   13  O   UNL     1     -10.269  20.137  66.467  1.00  0.00    -0.448 OA 
HETATM   14  H1  UNL     1      -8.251  21.375  65.835  1.00  0.00     0.000 HD 
ENDBRANCH   3  10
ENDBRANCH   2   3
TORSDOF 3
ENDMDL
MODEL      120
REMARK 921   NORMALIZED FREE ENERGY PREDICTED BY IDOCK:   -2.95 KCAL/MOL
REMARK 922        TOTAL FREE ENERGY PREDICTED BY IDOCK:   -3.83 KCAL/MOL
REMARK 923 INTER-LIGAND FREE ENERGY PREDICTED BY IDOCK:   -3.89 KCAL/MOL
REMARK 924 INTRA-LIGAND FREE ENERGY PREDICTED BY IDOCK:    0.05 KCAL/MOL
REMARK 927      BINDING AFFINITY PREDICTED BY RF-SCORE:    0.00 PKD
ROOT
HETATM    1  C   UNL     1     -10.889  19.592  66.898  1.00  0.00    -0.523 C  
HETATM    2  C   UNL     1      -9.916  19.381  68.053  1.00  0.00    -0.488 C  
ENDROOT
BRANCH   2   3
HETATM    3  C   UNL     1      -9.492  17.911  68.191  1.00  0.00    -0.288 C  
BRANCH   3   4
HETATM    4  N   UNL     1      -8.092  17.744  68.604  1.00  0.00    -0.292 N  
HETATM    5  O   UNL     1      -8.077  15.495  69.213  1.00  0.00    -0.217 OA 
HETATM    6  C   UNL     1      -7.251  18.883  68.870  1.00  0.00    -0.316 C  
HETATM    7  C   UNL     1      -7.523  16.576  69.087  1.00  0.00    -0.218 C  
HETATM    8  C   UNL     1      -6.123  16.897  69.553  1.00  0.00    -0.224 C  
HETATM    9  C   UNL     1      -5.869  18.269  68.940  1.00  0.00    -0.207 C  
ENDBRANCH   3   4
BRANCH   3  10
HETATM   10  C   UNL     1      -9.790  17.105  66.912  1.00  0.00    -0.285 C  
HETATM   11  H2  UNL     1     -11.000  15.757  67.955  1.00  0.00     0.000 HD 
HETATM   12  N   UNL     1     -10.607  16.021  67.051  1.00  0.00    -0.312 N  
HETATM   13  O   UNL     1      -9.303  17.385  65.821  1.00  0.00    -0.518 OA 
HETATM   14  H1  UNL     1     -10.804  15.487  66.205  1.00  0.00     0.000 HD 
ENDBRANCH   3  10
ENDBRANCH   2   3
TORSDOF 3
ENDMDL
MODEL      121
REMARK 921   NORMALIZED FREE ENERGY PREDICTED BY IDOCK:   -2.95 KCAL/MOL
REMARK 922        TOTAL FREE ENERGY PREDICTED BY IDOCK:   -3.82 KCAL/MOL
REMARK 923 INTER-LIGAND FREE ENERGY PREDICTED BY IDOCK:   -3.50 KCAL/MOL
REMARK 924 INTRA-LIGAND FREE ENERGY PREDICTED BY IDOCK:   -0.33 KCAL/MOL
REMARK 927      BINDING AFFINITY PREDICTED BY RF-SCORE:    0.00 PKD
ROOT
HETATM    1  C   UNL     1      -8.679   6.538  70.512  1.00  0.00    -0.144 C  
HETATM    2  C   UNL     1      -9.420   7.698  71.167  1.00  0.00    -0.163 C  
ENDROOT
BRANCH   2   3
HETATM    3  C   UNL     1     -10.726   7.246  71.838  1.00  0.00    -0.215 C  
BRANCH   3   4
HETATM    4  N   UNL     1     -11.804   8.238  71.743  1.00  0.00    -0.287 N  
HETATM    5  O   UNL     1     -13.678   6.852  71.722  1.00  0.00    -0.303 OA 
HETATM    6  C   UNL     1     -11.534   9.602  71.363  1.00  0.00    -0.385 C  
HETATM    7  C   UNL     1     -13.161   7.958  71.676  1.00  0.00    -0.332 C  
HETATM    8  C   UNL     1     -13.892   9.251  71.410  1.00  0.00    -0.270 C  
HETATM    9  C   UNL     1     -12.831  10.305  71.700  1.00  0.00    -0.568 C  
ENDBRANCH   3   4
BRANCH   3  10
HETATM   10  C   UNL     1     -10.501   6.813  73.300  1.00  0.00    -0.296 C  
HETATM   11  H2  UNL     1      -9.138   8.363  73.626  1.00  0.00     0.000 HD 
HETATM   12  N   UNL     1      -9.621   7.560  74.028  1.00  0.00    -0.404 N  
HETATM   13  O   UNL     1     -11.047   5.831  73.794  1.00  0.00    -0.129 OA 
HETATM   14  H1  UNL     1      -9.472   7.273  74.995  1.00  0.00     0.000 HD 
ENDBRANCH   3  10
ENDBRANCH   2   3
TORSDOF 3
ENDMDL
MODEL      122
REMARK 921   NORMALIZED FREE ENERGY PREDICTED BY IDOCK:   -2.93 KCAL/MOL
REMARK 922        TOTAL FREE ENERGY PREDICTED BY IDOCK:   -3.81 KCAL/MOL
REMARK 923 INTER-LIGAND FREE ENERGY PREDICTED BY IDOCK:   -3.85 KCAL/MOL
REMARK 924 INTRA-LIGAND FREE ENERGY PREDICTED BY IDOCK:    0.04 KCAL/MOL
REMARK 927      BINDING AFFINITY PREDICTED BY RF-SCORE:    0.00 PKD
ROOT
HETATM    1  C   UNL     1      -9.610  15.982  68.845  1.00  0.00    -0.236 C  
HETATM    2  C   UNL     1      -9.378  17.488  68.870  1.00  0.00    -0.169 C  
ENDROOT
BRANCH   2   3
HETATM    3  C   UNL     1      -8.908  18.024  67.509  1.00  0.00    -0.252 C  
BRANCH   3   4
HETATM    4  N   UNL     1      -7.972  19.150  67.618  1.00  0.00    -0.257 N  
HETATM    5  O   UNL     1      -7.770  19.772  65.380  1.00  0.00    -0.372 OA 
HETATM    6  C   UNL     1      -7.200  19.368  68.815  1.00  0.00    -0.355 C  
HETATM    7  C   UNL     1      -7.479  19.900  66.560  1.00  0.00    -0.275 C  
HETATM    8  C   UNL     1      -6.420  20.830  67.101  1.00  0.00    -0.353 C  
HETATM    9  C   UNL     1      -6.646  20.761  68.606  1.00  0.00    -0.110 C  
ENDBRANCH   3   4
BRANCH   3  10
HETATM   10  C   UNL     1     -10.094  18.379  66.591  1.00  0.00    -0.380 C  
HETATM   11  H2  UNL     1     -10.637  19.998  67.795  1.00  0.00     0.000 HD 
HETATM   12  N   UNL     1     -10.848  19.455  66.957  1.00  0.00    -0.473 N  
HETATM   13  O   UNL     1     -10.385  17.721  65.596  1.00  0.00    -0.612 OA 
HETATM   14  H1  UNL     1     -11.633  19.690  66.350  1.00  0.00     0.000 HD 
ENDBRANCH   3  10
ENDBRANCH   2   3
TORSDOF 3
ENDMDL
MODEL      123
REMARK 921   NORMALIZED FREE ENERGY PREDICTED BY IDOCK:   -2.93 KCAL/MOL
REMARK 922        TOTAL FREE ENERGY PREDICTED BY IDOCK:   -3.81 KCAL/MOL
REMARK 923 INTER-LIGAND FREE ENERGY PREDICTED BY IDOCK:   -3.65 KCAL/MOL
REMARK 924 INTRA-LIGAND FREE ENERGY PREDICTED BY IDOCK:   -0.15 KCAL/MOL
REMARK 927      BINDING AFFINITY PREDICTED BY RF-SCORE:    0.00 PKD
ROOT
HETATM    1  C   UNL     1     -10.218   6.050  69.503  1.00  0.00    -0.267 C  
HETATM    2  C   UNL     1     -11.505   6.584  70.122  1.00  0.00    -0.477 C  
ENDROOT
BRANCH   2   3
HETATM    3  C   UNL     1     -11.233   7.642  71.202  1.00  0.00    -0.261 C  
BRANCH   3   4
HETATM    4  N   UNL     1     -10.560   7.103  72.390  1.00  0.00    -0.216 N  
HETATM    5  O   UNL     1     -11.782   5.150  72.740  1.00  0.00    -0.239 OA 
HETATM    6  C   UNL     1      -9.687   7.924  73.192  1.00  0.00    -0.286 C  
HETATM    7  C   UNL     1     -10.900   5.934  73.055  1.00  0.00    -0.267 C  
HETATM    8  C   UNL     1     -10.070   5.855  74.313  1.00  0.00    -0.292 C  
HETATM    9  C   UNL     1      -8.996   6.909  74.078  1.00  0.00    -0.211 C  
ENDBRANCH   3   4
BRANCH   3  10
HETATM   10  C   UNL     1     -12.512   8.407  71.590  1.00  0.00    -0.328 C  
HETATM   11  H2  UNL     1     -13.651   6.655  71.582  1.00  0.00     0.000 HD 
HETATM   12  N   UNL     1     -13.649   7.665  71.729  1.00  0.00    -0.446 N  
HETATM   13  O   UNL     1     -12.539   9.626  71.740  1.00  0.00    -0.361 OA 
HETATM   14  H1  UNL     1     -14.495   8.172  71.986  1.00  0.00     0.000 HD 
ENDBRANCH   3  10
ENDBRANCH   2   3
TORSDOF 3
ENDMDL
MODEL      124
REMARK 921   NORMALIZED FREE ENERGY PREDICTED BY IDOCK:   -2.93 KCAL/MOL
REMARK 922        TOTAL FREE ENERGY PREDICTED BY IDOCK:   -3.81 KCAL/MOL
REMARK 923 INTER-LIGAND FREE ENERGY PREDICTED BY IDOCK:   -3.93 KCAL/MOL
REMARK 924 INTRA-LIGAND FREE ENERGY PREDICTED BY IDOCK:    0.12 KCAL/MOL
REMARK 927      BINDING AFFINITY PREDICTED BY RF-SCORE:    0.00 PKD
ROOT
HETATM    1  C   UNL     1     -10.436  19.809  67.383  1.00  0.00    -0.577 C  
HETATM    2  C   UNL     1     -10.053  18.693  68.347  1.00  0.00    -0.426 C  
ENDROOT
BRANCH   2   3
HETATM    3  C   UNL     1      -8.537  18.634  68.591  1.00  0.00    -0.307 C  
BRANCH   3   4
HETATM    4  N   UNL     1      -7.751  19.294  67.541  1.00  0.00    -0.246 N  
HETATM    5  O   UNL     1      -7.913  17.728  65.821  1.00  0.00    -0.544 OA 
HETATM    6  C   UNL     1      -6.872  20.395  67.844  1.00  0.00    -0.301 C  
HETATM    7  C   UNL     1      -7.497  18.783  66.276  1.00  0.00    -0.262 C  
HETATM    8  C   UNL     1      -6.511  19.699  65.593  1.00  0.00    -0.268 C  
HETATM    9  C   UNL     1      -6.537  20.942  66.474  1.00  0.00    -0.327 C  
ENDBRANCH   3   4
BRANCH   3  10
HETATM   10  C   UNL     1      -8.049  17.191  68.822  1.00  0.00    -0.252 C  
HETATM   11  H2  UNL     1      -6.046  17.764  68.664  1.00  0.00     0.000 HD 
HETATM   12  N   UNL     1      -6.699  16.995  68.814  1.00  0.00    -0.182 N  
HETATM   13  O   UNL     1      -8.818  16.245  68.974  1.00  0.00    -0.238 OA 
HETATM   14  H1  UNL     1      -6.376  16.040  68.967  1.00  0.00     0.000 HD 
ENDBRANCH   3  10
ENDBRANCH   2   3
TORSDOF 3
ENDMDL
MODEL      125
REMARK 921   NORMALIZED FREE ENERGY PREDICTED BY IDOCK:   -2.93 KCAL/MOL
REMARK 922        TOTAL FREE ENERGY PREDICTED BY IDOCK:   -3.80 KCAL/MOL
REMARK 923 INTER-LIGAND FREE ENERGY PREDICTED BY IDOCK:   -3.50 KCAL/MOL
REMARK 924 INTRA-LIGAND FREE ENERGY PREDICTED BY IDOCK:   -0.30 KCAL/MOL
REMARK 927      BINDING AFFINITY PREDICTED BY RF-SCORE:    0.00 PKD
ROOT
HETATM    1  C   UNL     1      -9.169   4.575  70.819  1.00  0.00    -0.202 C  
HETATM    2  C   UNL     1     -10.378   5.234  70.163  1.00  0.00    -0.354 C  
ENDROOT
BRANCH   2   3
HETATM    3  C   UNL     1     -10.193   6.750  70.001  1.00  0.00    -0.191 C  
BRANCH   3   4
HETATM    4  N   UNL     1     -11.158   7.541  70.776  1.00  0.00    -0.260 N  
HETATM    5  O   UNL     1      -9.977   9.532  71.048  1.00  0.00    -0.278 OA 
HETATM    6  C   UNL     1     -12.281   6.919  71.430  1.00  0.00    -0.372 C  
HETATM    7  C   UNL     1     -10.961   8.833  71.239  1.00  0.00    -0.275 C  
HETATM    8  C   UNL     1     -12.124   9.192  72.132  1.00  0.00    -0.389 C  
HETATM    9  C   UNL     1     -13.141   8.103  71.815  1.00  0.00    -0.367 C  
ENDBRANCH   3   4
BRANCH   3  10
HETATM   10  C   UNL     1     -10.196   7.173  68.519  1.00  0.00    -0.175 C  
HETATM   11  H2  UNL     1     -12.219   6.691  68.309  1.00  0.00     0.000 HD 
HETATM   12  N   UNL     1     -11.379   7.047  67.851  1.00  0.00    -0.503 N  
HETATM   13  O   UNL     1      -9.190   7.575  67.940  1.00  0.00    -0.136 OA 
HETATM   14  H1  UNL     1     -11.381   7.327  66.871  1.00  0.00     0.000 HD 
ENDBRANCH   3  10
ENDBRANCH   2   3
TORSDOF 3
ENDMDL
MODEL      126
REMARK 921   NORMALIZED FREE ENERGY PREDICTED BY IDOCK:   -2.92 KCAL/MOL
REMARK 922        TOTAL FREE ENERGY PREDICTED BY IDOCK:   -3.79 KCAL/MOL
REMARK 923 INTER-LIGAND FREE ENERGY PREDICTED BY IDOCK:   -3.42 KCAL/MOL
REMARK 924 INTRA-LIGAND FREE ENERGY PREDICTED BY IDOCK:   -0.37 KCAL/MOL
REMARK 927      BINDING AFFINITY PREDICTED BY RF-SCORE:    0.00 PKD
ROOT
HETATM    1  C   UNL     1      -8.265   6.506  70.903  1.00  0.00    -0.125 C  
HETATM    2  C   UNL     1      -9.422   7.304  71.492  1.00  0.00    -0.160 C  
ENDROOT
BRANCH   2   3
HETATM    3  C   UNL     1     -10.724   7.108  70.699  1.00  0.00    -0.235 C  
BRANCH   3   4
HETATM    4  N   UNL     1     -10.675   7.680  69.348  1.00  0.00    -0.216 N  
HETATM    5  O   UNL     1     -10.830   5.752  68.048  1.00  0.00    -0.242 OA 
HETATM    6  C   UNL     1     -10.233   9.034  69.124  1.00  0.00    -0.205 C  
HETATM    7  C   UNL     1     -10.712   6.963  68.162  1.00  0.00    -0.205 C  
HETATM    8  C   UNL     1     -10.459   7.924  67.026  1.00  0.00    -0.419 C  
HETATM    9  C   UNL     1     -10.640   9.284  67.688  1.00  0.00    -0.324 C  
ENDBRANCH   3   4
BRANCH   3  10
HETATM   10  C   UNL     1     -11.951   7.626  71.474  1.00  0.00    -0.303 C  
HETATM   11  H2  UNL     1     -13.270   6.815  70.071  1.00  0.00     0.000 HD 
HETATM   12  N   UNL     1     -13.174   7.343  70.939  1.00  0.00    -0.603 N  
HETATM   13  O   UNL     1     -11.857   8.289  72.503  1.00  0.00    -0.387 OA 
HETATM   14  H1  UNL     1     -13.986   7.685  71.451  1.00  0.00     0.000 HD 
ENDBRANCH   3  10
ENDBRANCH   2   3
TORSDOF 3
ENDMDL
MODEL      127
REMARK 921   NORMALIZED FREE ENERGY PREDICTED BY IDOCK:   -2.92 KCAL/MOL
REMARK 922        TOTAL FREE ENERGY PREDICTED BY IDOCK:   -3.79 KCAL/MOL
REMARK 923 INTER-LIGAND FREE ENERGY PREDICTED BY IDOCK:   -3.54 KCAL/MOL
REMARK 924 INTRA-LIGAND FREE ENERGY PREDICTED BY IDOCK:   -0.25 KCAL/MOL
REMARK 927      BINDING AFFINITY PREDICTED BY RF-SCORE:    0.00 PKD
ROOT
HETATM    1  C   UNL     1      -7.804   9.631  70.194  1.00  0.00    -0.185 C  
HETATM    2  C   UNL     1      -9.183  10.056  69.703  1.00  0.00    -0.236 C  
ENDROOT
BRANCH   2   3
HETATM    3  C   UNL     1     -10.310   9.493  70.583  1.00  0.00    -0.302 C  
BRANCH   3   4
HETATM    4  N   UNL     1     -10.495   8.044  70.437  1.00  0.00    -0.214 N  
HETATM    5  O   UNL     1     -10.623   7.848  68.118  1.00  0.00    -0.194 OA 
HETATM    6  C   UNL     1     -10.879   7.223  71.558  1.00  0.00    -0.224 C  
HETATM    7  C   UNL     1     -10.651   7.363  69.239  1.00  0.00    -0.213 C  
HETATM    8  C   UNL     1     -10.989   5.927  69.560  1.00  0.00    -0.438 C  
HETATM    9  C   UNL     1     -10.643   5.820  71.040  1.00  0.00    -0.318 C  
ENDBRANCH   3   4
BRANCH   3  10
HETATM   10  C   UNL     1     -11.637  10.245  70.365  1.00  0.00    -0.328 C  
HETATM   11  H2  UNL     1     -11.331  10.338  68.300  1.00  0.00     0.000 HD 
HETATM   12  N   UNL     1     -11.947  10.576  69.078  1.00  0.00    -0.531 N  
HETATM   13  O   UNL     1     -12.377  10.569  71.290  1.00  0.00    -0.355 OA 
HETATM   14  H1  UNL     1     -12.825  11.074  68.934  1.00  0.00     0.000 HD 
ENDBRANCH   3  10
ENDBRANCH   2   3
TORSDOF 3
ENDMDL
MODEL      128
REMARK 921   NORMALIZED FREE ENERGY PREDICTED BY IDOCK:   -2.91 KCAL/MOL
REMARK 922        TOTAL FREE ENERGY PREDICTED BY IDOCK:   -3.78 KCAL/MOL
REMARK 923 INTER-LIGAND FREE ENERGY PREDICTED BY IDOCK:   -3.54 KCAL/MOL
REMARK 924 INTRA-LIGAND FREE ENERGY PREDICTED BY IDOCK:   -0.24 KCAL/MOL
REMARK 927      BINDING AFFINITY PREDICTED BY RF-SCORE:    0.00 PKD
ROOT
HETATM    1  C   UNL     1     -11.775  12.709  68.187  1.00  0.00    -0.396 C  
HETATM    2  C   UNL     1     -11.545  14.129  67.681  1.00  0.00    -0.394 C  
ENDROOT
BRANCH   2   3
HETATM    3  C   UNL     1     -10.065  14.399  67.368  1.00  0.00    -0.243 C  
BRANCH   3   4
HETATM    4  N   UNL     1      -9.732  15.828  67.315  1.00  0.00    -0.222 N  
HETATM    5  O   UNL     1      -7.432  15.730  66.950  1.00  0.00    -0.216 OA 
HETATM    6  C   UNL     1     -10.651  16.829  67.794  1.00  0.00    -0.341 C  
HETATM    7  C   UNL     1      -8.463  16.358  67.133  1.00  0.00    -0.183 C  
HETATM    8  C   UNL     1      -8.551  17.854  67.321  1.00  0.00    -0.241 C  
HETATM    9  C   UNL     1     -10.051  18.114  67.265  1.00  0.00    -0.354 C  
ENDBRANCH   3   4
BRANCH   3  10
HETATM   10  C   UNL     1      -9.609  13.677  66.085  1.00  0.00    -0.209 C  
HETATM   11  H2  UNL     1      -8.327  12.423  67.158  1.00  0.00     0.000 HD 
HETATM   12  N   UNL     1      -8.692  12.679  66.240  1.00  0.00    -0.413 N  
HETATM   13  O   UNL     1     -10.012  13.990  64.968  1.00  0.00    -0.323 OA 
HETATM   14  H1  UNL     1      -8.390  12.202  65.391  1.00  0.00     0.000 HD 
ENDBRANCH   3  10
ENDBRANCH   2   3
TORSDOF 3
ENDMDL
MODEL      129
REMARK 921   NORMALIZED FREE ENERGY PREDICTED BY IDOCK:   -2.90 KCAL/MOL
REMARK 922        TOTAL FREE ENERGY PREDICTED BY IDOCK:   -3.77 KCAL/MOL
REMARK 923 INTER-LIGAND FREE ENERGY PREDICTED BY IDOCK:   -3.49 KCAL/MOL
REMARK 924 INTRA-LIGAND FREE ENERGY PREDICTED BY IDOCK:   -0.28 KCAL/MOL
REMARK 927      BINDING AFFINITY PREDICTED BY RF-SCORE:    0.00 PKD
ROOT
HETATM    1  C   UNL     1      -8.377  15.458  67.728  1.00  0.00    -0.156 C  
HETATM    2  C   UNL     1      -8.729  14.099  67.134  1.00  0.00    -0.239 C  
ENDROOT
BRANCH   2   3
HETATM    3  C   UNL     1     -10.243  13.838  67.141  1.00  0.00    -0.244 C  
BRANCH   3   4
HETATM    4  N   UNL     1     -10.596  12.459  67.502  1.00  0.00    -0.216 N  
HETATM    5  O   UNL     1      -9.779  11.298  65.653  1.00  0.00    -0.212 OA 
HETATM    6  C   UNL     1     -11.545  12.180  68.549  1.00  0.00    -0.315 C  
HETATM    7  C   UNL     1     -10.353  11.332  66.731  1.00  0.00    -0.238 C  
HETATM    8  C   UNL     1     -11.033  10.158  67.394  1.00  0.00    -0.295 C  
HETATM    9  C   UNL     1     -11.359  10.696  68.782  1.00  0.00    -0.339 C  
ENDBRANCH   3   4
BRANCH   3  10
HETATM   10  C   UNL     1     -10.901  14.246  65.809  1.00  0.00    -0.303 C  
HETATM   11  H2  UNL     1      -9.100  14.039  64.770  1.00  0.00     0.000 HD 
HETATM   12  N   UNL     1     -10.090  14.275  64.711  1.00  0.00    -0.588 N  
HETATM   13  O   UNL     1     -12.084  14.565  65.721  1.00  0.00    -0.350 OA 
HETATM   14  H1  UNL     1     -10.526  14.546  63.830  1.00  0.00     0.000 HD 
ENDBRANCH   3  10
ENDBRANCH   2   3
TORSDOF 3
ENDMDL
MODEL      130
REMARK 921   NORMALIZED FREE ENERGY PREDICTED BY IDOCK:   -2.90 KCAL/MOL
REMARK 922        TOTAL FREE ENERGY PREDICTED BY IDOCK:   -3.76 KCAL/MOL
REMARK 923 INTER-LIGAND FREE ENERGY PREDICTED BY IDOCK:   -3.77 KCAL/MOL
REMARK 924 INTRA-LIGAND FREE ENERGY PREDICTED BY IDOCK:    0.01 KCAL/MOL
REMARK 927      BINDING AFFINITY PREDICTED BY RF-SCORE:    0.00 PKD
ROOT
HETATM    1  C   UNL     1     -10.291  16.857  67.955  1.00  0.00    -0.334 C  
HETATM    2  C   UNL     1     -11.250  16.213  68.949  1.00  0.00    -0.351 C  
ENDROOT
BRANCH   2   3
HETATM    3  C   UNL     1     -10.841  14.774  69.300  1.00  0.00    -0.264 C  
BRANCH   3   4
HETATM    4  N   UNL     1     -10.405  13.992  68.136  1.00  0.00    -0.236 N  
HETATM    5  O   UNL     1     -12.378  13.905  66.899  1.00  0.00    -0.410 OA 
HETATM    6  C   UNL     1      -9.177  13.239  68.159  1.00  0.00    -0.212 C  
HETATM    7  C   UNL     1     -11.203  13.617  67.065  1.00  0.00    -0.312 C  
HETATM    8  C   UNL     1     -10.403  12.681  66.192  1.00  0.00    -0.273 C  
HETATM    9  C   UNL     1      -8.981  12.875  66.703  1.00  0.00    -0.141 C  
ENDBRANCH   3   4
BRANCH   3  10
HETATM   10  C   UNL     1     -11.948  14.036  70.077  1.00  0.00    -0.339 C  
HETATM   11  H2  UNL     1     -10.930  12.216  69.945  1.00  0.00     0.000 HD 
HETATM   12  N   UNL     1     -11.761  12.701  70.286  1.00  0.00    -0.552 N  
HETATM   13  O   UNL     1     -12.970  14.593  70.469  1.00  0.00    -0.348 OA 
HETATM   14  H1  UNL     1     -12.493  12.212  70.801  1.00  0.00     0.000 HD 
ENDBRANCH   3  10
ENDBRANCH   2   3
TORSDOF 3
ENDMDL
MODEL      131
REMARK 921   NORMALIZED FREE ENERGY PREDICTED BY IDOCK:   -2.88 KCAL/MOL
REMARK 922        TOTAL FREE ENERGY PREDICTED BY IDOCK:   -3.75 KCAL/MOL
REMARK 923 INTER-LIGAND FREE ENERGY PREDICTED BY IDOCK:   -3.65 KCAL/MOL
REMARK 924 INTRA-LIGAND FREE ENERGY PREDICTED BY IDOCK:   -0.09 KCAL/MOL
REMARK 927      BINDING AFFINITY PREDICTED BY RF-SCORE:    0.00 PKD
ROOT
HETATM    1  C   UNL     1      -7.777   9.003  70.663  1.00  0.00    -0.131 C  
HETATM    2  C   UNL     1      -9.246   8.619  70.799  1.00  0.00    -0.223 C  
ENDROOT
BRANCH   2   3
HETATM    3  C   UNL     1     -10.166   9.559  70.005  1.00  0.00    -0.244 C  
BRANCH   3   4
HETATM    4  N   UNL     1     -11.396   9.916  70.723  1.00  0.00    -0.326 N  
HETATM    5  O   UNL     1     -12.177   7.806  71.334  1.00  0.00    -0.305 OA 
HETATM    6  C   UNL     1     -11.978  11.228  70.603  1.00  0.00    -0.336 C  
HETATM    7  C   UNL     1     -12.287   9.022  71.299  1.00  0.00    -0.302 C  
HETATM    8  C   UNL     1     -13.490   9.802  71.772  1.00  0.00    -0.463 C  
HETATM    9  C   UNL     1     -13.000  11.244  71.720  1.00  0.00    -0.519 C  
ENDBRANCH   3   4
BRANCH   3  10
HETATM   10  C   UNL     1     -10.487   9.000  68.605  1.00  0.00    -0.200 C  
HETATM   11  H2  UNL     1     -11.181   7.197  69.402  1.00  0.00     0.000 HD 
HETATM   12  N   UNL     1     -11.011   7.741  68.556  1.00  0.00    -0.414 N  
HETATM   13  O   UNL     1     -10.260   9.624  67.572  1.00  0.00    -0.191 OA 
HETATM   14  H1  UNL     1     -11.222   7.371  67.630  1.00  0.00     0.000 HD 
ENDBRANCH   3  10
ENDBRANCH   2   3
TORSDOF 3
ENDMDL
MODEL      132
REMARK 921   NORMALIZED FREE ENERGY PREDICTED BY IDOCK:   -2.88 KCAL/MOL
REMARK 922        TOTAL FREE ENERGY PREDICTED BY IDOCK:   -3.74 KCAL/MOL
REMARK 923 INTER-LIGAND FREE ENERGY PREDICTED BY IDOCK:   -3.65 KCAL/MOL
REMARK 924 INTRA-LIGAND FREE ENERGY PREDICTED BY IDOCK:   -0.09 KCAL/MOL
REMARK 927      BINDING AFFINITY PREDICTED BY RF-SCORE:    0.00 PKD
ROOT
HETATM    1  C   UNL     1     -12.375  14.704  70.679  1.00  0.00    -0.398 C  
HETATM    2  C   UNL     1     -12.525  14.610  69.165  1.00  0.00    -0.013 C  
ENDROOT
BRANCH   2   3
HETATM    3  C   UNL     1     -11.191  14.297  68.470  1.00  0.00    -0.266 C  
BRANCH   3   4
HETATM    4  N   UNL     1     -11.130  14.777  67.083  1.00  0.00    -0.324 N  
HETATM    5  O   UNL     1     -12.343  13.115  65.989  1.00  0.00    -0.422 OA 
HETATM    6  C   UNL     1     -10.182  15.786  66.683  1.00  0.00    -0.285 C  
HETATM    7  C   UNL     1     -11.686  14.145  65.981  1.00  0.00    -0.382 C  
HETATM    8  C   UNL     1     -11.235  14.882  64.744  1.00  0.00    -0.393 C  
HETATM    9  C   UNL     1     -10.679  16.183  65.309  1.00  0.00    -0.386 C  
ENDBRANCH   3   4
BRANCH   3  10
HETATM   10  C   UNL     1     -10.838  12.800  68.553  1.00  0.00    -0.253 C  
HETATM   11  H2  UNL     1     -12.808  12.286  69.025  1.00  0.00     0.000 HD 
HETATM   12  N   UNL     1     -11.859  11.948  68.859  1.00  0.00    -0.311 N  
HETATM   13  O   UNL     1      -9.697  12.375  68.388  1.00  0.00    -0.217 OA 
HETATM   14  H1  UNL     1     -11.625  10.957  68.914  1.00  0.00     0.000 HD 
ENDBRANCH   3  10
ENDBRANCH   2   3
TORSDOF 3
ENDMDL
MODEL      133
REMARK 921   NORMALIZED FREE ENERGY PREDICTED BY IDOCK:   -2.85 KCAL/MOL
REMARK 922        TOTAL FREE ENERGY PREDICTED BY IDOCK:   -3.71 KCAL/MOL
REMARK 923 INTER-LIGAND FREE ENERGY PREDICTED BY IDOCK:   -3.38 KCAL/MOL
REMARK 924 INTRA-LIGAND FREE ENERGY PREDICTED BY IDOCK:   -0.33 KCAL/MOL
REMARK 927      BINDING AFFINITY PREDICTED BY RF-SCORE:    0.00 PKD
ROOT
HETATM    1  C   UNL     1     -12.018  14.443  68.629  1.00  0.00    -0.332 C  
HETATM    2  C   UNL     1     -11.277  13.111  68.607  1.00  0.00    -0.314 C  
ENDROOT
BRANCH   2   3
HETATM    3  C   UNL     1     -10.744  12.768  67.208  1.00  0.00    -0.237 C  
BRANCH   3   4
HETATM    4  N   UNL     1     -10.432  11.343  67.036  1.00  0.00    -0.226 N  
HETATM    5  O   UNL     1     -10.052  11.250  64.738  1.00  0.00    -0.248 OA 
HETATM    6  C   UNL     1     -10.742  10.381  68.063  1.00  0.00    -0.249 C  
HETATM    7  C   UNL     1     -10.137  10.717  65.834  1.00  0.00    -0.261 C  
HETATM    8  C   UNL     1     -10.058   9.231  66.089  1.00  0.00    -0.304 C  
HETATM    9  C   UNL     1      -9.983   9.152  67.609  1.00  0.00    -0.245 C  
ENDBRANCH   3   4
BRANCH   3  10
HETATM   10  C   UNL     1      -9.540  13.647  66.821  1.00  0.00    -0.275 C  
HETATM   11  H2  UNL     1     -10.250  13.892  64.871  1.00  0.00     0.000 HD 
HETATM   12  N   UNL     1      -9.512  14.114  65.539  1.00  0.00    -0.519 N  
HETATM   13  O   UNL     1      -8.624  13.901  67.599  1.00  0.00    -0.166 OA 
HETATM   14  H1  UNL     1      -8.715  14.696  65.283  1.00  0.00     0.000 HD 
ENDBRANCH   3  10
ENDBRANCH   2   3
TORSDOF 3
ENDMDL
MODEL      134
REMARK 921   NORMALIZED FREE ENERGY PREDICTED BY IDOCK:   -2.84 KCAL/MOL
REMARK 922        TOTAL FREE ENERGY PREDICTED BY IDOCK:   -3.70 KCAL/MOL
REMARK 923 INTER-LIGAND FREE ENERGY PREDICTED BY IDOCK:   -3.57 KCAL/MOL
REMARK 924 INTRA-LIGAND FREE ENERGY PREDICTED BY IDOCK:   -0.13 KCAL/MOL
REMARK 927      BINDING AFFINITY PREDICTED BY RF-SCORE:    0.00 PKD
ROOT
HETATM    1  C   UNL     1      -9.032  16.363  68.895  1.00  0.00    -0.256 C  
HETATM    2  C   UNL     1      -8.721  17.808  68.521  1.00  0.00    -0.284 C  
ENDROOT
BRANCH   2   3
HETATM    3  C   UNL     1      -9.017  18.100  67.042  1.00  0.00    -0.263 C  
BRANCH   3   4
HETATM    4  N   UNL     1      -7.863  18.640  66.312  1.00  0.00    -0.274 N  
HETATM    5  O   UNL     1      -6.494  16.758  66.198  1.00  0.00    -0.138 OA 
HETATM    6  C   UNL     1      -7.666  20.061  66.172  1.00  0.00    -0.299 C  
HETATM    7  C   UNL     1      -6.715  17.939  65.976  1.00  0.00    -0.295 C  
HETATM    8  C   UNL     1      -5.723  18.918  65.395  1.00  0.00    -0.235 C  
HETATM    9  C   UNL     1      -6.582  20.145  65.118  1.00  0.00    -0.336 C  
ENDBRANCH   3   4
BRANCH   3  10
HETATM   10  C   UNL     1     -10.252  19.005  66.872  1.00  0.00    -0.387 C  
HETATM   11  H2  UNL     1     -10.351  18.610  64.823  1.00  0.00     0.000 HD 
HETATM   12  N   UNL     1     -10.764  19.108  65.612  1.00  0.00    -0.373 N  
HETATM   13  O   UNL     1     -10.746  19.638  67.802  1.00  0.00    -0.430 OA 
HETATM   14  H1  UNL     1     -11.581  19.708  65.499  1.00  0.00     0.000 HD 
ENDBRANCH   3  10
ENDBRANCH   2   3
TORSDOF 3
ENDMDL
MODEL      135
REMARK 921   NORMALIZED FREE ENERGY PREDICTED BY IDOCK:   -2.83 KCAL/MOL
REMARK 922        TOTAL FREE ENERGY PREDICTED BY IDOCK:   -3.69 KCAL/MOL
REMARK 923 INTER-LIGAND FREE ENERGY PREDICTED BY IDOCK:   -3.32 KCAL/MOL
REMARK 924 INTRA-LIGAND FREE ENERGY PREDICTED BY IDOCK:   -0.37 KCAL/MOL
REMARK 927      BINDING AFFINITY PREDICTED BY RF-SCORE:    0.00 PKD
ROOT
HETATM    1  C   UNL     1      -9.477  13.130  67.128  1.00  0.00    -0.239 C  
HETATM    2  C   UNL     1      -8.995  14.523  66.740  1.00  0.00    -0.270 C  
ENDROOT
BRANCH   2   3
HETATM    3  C   UNL     1      -9.501  15.602  67.710  1.00  0.00    -0.208 C  
BRANCH   3   4
HETATM    4  N   UNL     1      -9.076  16.960  67.345  1.00  0.00    -0.216 N  
HETATM    5  O   UNL     1     -10.685  18.235  68.449  1.00  0.00    -0.245 OA 
HETATM    6  C   UNL     1      -8.152  17.189  66.264  1.00  0.00    -0.290 C  
HETATM    7  C   UNL     1      -9.706  18.136  67.725  1.00  0.00    -0.293 C  
HETATM    8  C   UNL     1      -9.046  19.277  66.989  1.00  0.00    -0.339 C  
HETATM    9  C   UNL     1      -7.769  18.641  66.454  1.00  0.00    -0.292 C  
ENDBRANCH   3   4
BRANCH   3  10
HETATM   10  C   UNL     1      -9.130  15.280  69.170  1.00  0.00    -0.236 C  
HETATM   11  H2  UNL     1     -11.103  15.541  69.807  1.00  0.00     0.000 HD 
HETATM   12  N   UNL     1     -10.146  15.314  70.080  1.00  0.00    -0.500 N  
HETATM   13  O   UNL     1      -7.979  15.036  69.526  1.00  0.00    -0.196 OA 
HETATM   14  H1  UNL     1      -9.900  15.102  71.046  1.00  0.00     0.000 HD 
ENDBRANCH   3  10
ENDBRANCH   2   3
TORSDOF 3
ENDMDL
MODEL      136
REMARK 921   NORMALIZED FREE ENERGY PREDICTED BY IDOCK:   -2.80 KCAL/MOL
REMARK 922        TOTAL FREE ENERGY PREDICTED BY IDOCK:   -3.65 KCAL/MOL
REMARK 923 INTER-LIGAND FREE ENERGY PREDICTED BY IDOCK:   -3.48 KCAL/MOL
REMARK 924 INTRA-LIGAND FREE ENERGY PREDICTED BY IDOCK:   -0.17 KCAL/MOL
REMARK 927      BINDING AFFINITY PREDICTED BY RF-SCORE:    0.00 PKD
ROOT
HETATM    1  C   UNL     1     -13.246   9.598  72.117  1.00  0.00    -0.535 C  
HETATM    2  C   UNL     1     -12.247  10.193  71.132  1.00  0.00    -0.490 C  
ENDROOT
BRANCH   2   3
HETATM    3  C   UNL     1     -11.758   9.159  70.106  1.00  0.00     0.065 C  
BRANCH   3   4
HETATM    4  N   UNL     1     -11.095   8.000  70.718  1.00  0.00    -0.256 N  
HETATM    5  O   UNL     1      -9.257   9.024  71.722  1.00  0.00    -0.329 OA 
HETATM    6  C   UNL     1     -11.431   6.654  70.328  1.00  0.00    -0.391 C  
HETATM    7  C   UNL     1      -9.913   8.031  71.444  1.00  0.00    -0.178 C  
HETATM    8  C   UNL     1      -9.503   6.607  71.730  1.00  0.00    -0.151 C  
HETATM    9  C   UNL     1     -10.765   5.819  71.401  1.00  0.00    -0.319 C  
ENDBRANCH   3   4
BRANCH   3  10
HETATM   10  C   UNL     1     -10.866   9.799  69.026  1.00  0.00    -0.199 C  
HETATM   11  H2  UNL     1     -11.332   8.300  67.647  1.00  0.00     0.000 HD 
HETATM   12  N   UNL     1     -10.809   9.159  67.823  1.00  0.00    -0.484 N  
HETATM   13  O   UNL     1     -10.205  10.815  69.226  1.00  0.00    -0.218 OA 
HETATM   14  H1  UNL     1     -10.219   9.582  67.108  1.00  0.00     0.000 HD 
ENDBRANCH   3  10
ENDBRANCH   2   3
TORSDOF 3
ENDMDL
MODEL      137
REMARK 921   NORMALIZED FREE ENERGY PREDICTED BY IDOCK:   -2.80 KCAL/MOL
REMARK 922        TOTAL FREE ENERGY PREDICTED BY IDOCK:   -3.65 KCAL/MOL
REMARK 923 INTER-LIGAND FREE ENERGY PREDICTED BY IDOCK:   -3.41 KCAL/MOL
REMARK 924 INTRA-LIGAND FREE ENERGY PREDICTED BY IDOCK:   -0.24 KCAL/MOL
REMARK 927      BINDING AFFINITY PREDICTED BY RF-SCORE:    0.00 PKD
ROOT
HETATM    1  C   UNL     1     -12.593   9.598  71.891  1.00  0.00    -0.481 C  
HETATM    2  C   UNL     1     -12.124   8.148  71.833  1.00  0.00    -0.368 C  
ENDROOT
BRANCH   2   3
HETATM    3  C   UNL     1     -10.633   8.035  71.483  1.00  0.00    -0.226 C  
BRANCH   3   4
HETATM    4  N   UNL     1     -10.311   6.850  70.679  1.00  0.00    -0.199 N  
HETATM    5  O   UNL     1     -10.859   5.144  72.170  1.00  0.00    -0.212 OA 
HETATM    6  C   UNL     1      -9.504   6.950  69.489  1.00  0.00    -0.146 C  
HETATM    7  C   UNL     1     -10.433   5.531  71.092  1.00  0.00    -0.236 C  
HETATM    8  C   UNL     1      -9.829   4.650  70.026  1.00  0.00    -0.294 C  
HETATM    9  C   UNL     1      -9.698   5.596  68.839  1.00  0.00    -0.181 C  
ENDBRANCH   3   4
BRANCH   3  10
HETATM   10  C   UNL     1      -9.742   8.111  72.738  1.00  0.00    -0.281 C  
HETATM   11  H2  UNL     1     -11.152   7.087  73.891  1.00  0.00     0.000 HD 
HETATM   12  N   UNL     1     -10.238   7.540  73.874  1.00  0.00    -0.389 N  
HETATM   13  O   UNL     1      -8.653   8.679  72.747  1.00  0.00    -0.394 OA 
HETATM   14  H1  UNL     1      -9.648   7.590  74.704  1.00  0.00     0.000 HD 
ENDBRANCH   3  10
ENDBRANCH   2   3
TORSDOF 3
ENDMDL
MODEL      138
REMARK 921   NORMALIZED FREE ENERGY PREDICTED BY IDOCK:   -2.78 KCAL/MOL
REMARK 922        TOTAL FREE ENERGY PREDICTED BY IDOCK:   -3.63 KCAL/MOL
REMARK 923 INTER-LIGAND FREE ENERGY PREDICTED BY IDOCK:   -3.35 KCAL/MOL
REMARK 924 INTRA-LIGAND FREE ENERGY PREDICTED BY IDOCK:   -0.28 KCAL/MOL
REMARK 927      BINDING AFFINITY PREDICTED BY RF-SCORE:    0.00 PKD
ROOT
HETATM    1  C   UNL     1     -11.843   8.552  72.328  1.00  0.00    -0.453 C  
HETATM    2  C   UNL     1     -11.796   9.847  71.524  1.00  0.00    -0.445 C  
ENDROOT
BRANCH   2   3
HETATM    3  C   UNL     1     -11.590   9.590  70.024  1.00  0.00    -0.048 C  
BRANCH   3   4
HETATM    4  N   UNL     1     -10.389   8.799  69.727  1.00  0.00    -0.206 N  
HETATM    5  O   UNL     1     -11.346   6.801  69.003  1.00  0.00    -0.183 OA 
HETATM    6  C   UNL     1      -9.092   9.197  70.214  1.00  0.00    -0.218 C  
HETATM    7  C   UNL     1     -10.373   7.490  69.268  1.00  0.00    -0.209 C  
HETATM    8  C   UNL     1      -8.940   7.014  69.268  1.00  0.00    -0.138 C  
HETATM    9  C   UNL     1      -8.153   8.308  69.427  1.00  0.00    -0.115 C  
ENDBRANCH   3   4
BRANCH   3  10
HETATM   10  C   UNL     1     -11.605  10.898  69.210  1.00  0.00    -0.318 C  
HETATM   11  H2  UNL     1     -11.563  12.064  70.945  1.00  0.00     0.000 HD 
HETATM   12  N   UNL     1     -11.586  12.061  69.924  1.00  0.00    -0.480 N  
HETATM   13  O   UNL     1     -11.665  10.918  67.984  1.00  0.00    -0.540 OA 
HETATM   14  H1  UNL     1     -11.596  12.927  69.386  1.00  0.00     0.000 HD 
ENDBRANCH   3  10
ENDBRANCH   2   3
TORSDOF 3
ENDMDL
MODEL      139
REMARK 921   NORMALIZED FREE ENERGY PREDICTED BY IDOCK:   -2.78 KCAL/MOL
REMARK 922        TOTAL FREE ENERGY PREDICTED BY IDOCK:   -3.63 KCAL/MOL
REMARK 923 INTER-LIGAND FREE ENERGY PREDICTED BY IDOCK:   -3.54 KCAL/MOL
REMARK 924 INTRA-LIGAND FREE ENERGY PREDICTED BY IDOCK:   -0.09 KCAL/MOL
REMARK 927      BINDING AFFINITY PREDICTED BY RF-SCORE:    0.00 PKD
ROOT
HETATM    1  C   UNL     1     -12.342  15.172  70.109  1.00  0.00    -0.385 C  
HETATM    2  C   UNL     1     -11.784  15.729  68.805  1.00  0.00    -0.387 C  
ENDROOT
BRANCH   2   3
HETATM    3  C   UNL     1     -10.753  14.786  68.166  1.00  0.00    -0.247 C  
BRANCH   3   4
HETATM    4  N   UNL     1      -9.581  15.484  67.624  1.00  0.00    -0.210 N  
HETATM    5  O   UNL     1     -10.561  16.732  65.917  1.00  0.00    -0.324 OA 
HETATM    6  C   UNL     1      -8.242  15.053  67.939  1.00  0.00    -0.141 C  
HETATM    7  C   UNL     1      -9.585  16.367  66.554  1.00  0.00    -0.270 C  
HETATM    8  C   UNL     1      -8.151  16.708  66.225  1.00  0.00    -0.361 C  
HETATM    9  C   UNL     1      -7.395  16.208  67.450  1.00  0.00    -0.206 C  
ENDBRANCH   3   4
BRANCH   3  10
HETATM   10  C   UNL     1     -11.393  13.874  67.102  1.00  0.00    -0.327 C  
HETATM   11  H2  UNL     1      -9.860  12.465  67.281  1.00  0.00     0.000 HD 
HETATM   12  N   UNL     1     -10.733  12.715  66.814  1.00  0.00    -0.237 N  
HETATM   13  O   UNL     1     -12.426  14.170  66.506  1.00  0.00    -0.447 OA 
HETATM   14  H1  UNL     1     -11.156  12.111  66.110  1.00  0.00     0.000 HD 
ENDBRANCH   3  10
ENDBRANCH   2   3
TORSDOF 3
ENDMDL
MODEL      140
REMARK 921   NORMALIZED FREE ENERGY PREDICTED BY IDOCK:   -2.78 KCAL/MOL
REMARK 922        TOTAL FREE ENERGY PREDICTED BY IDOCK:   -3.63 KCAL/MOL
REMARK 923 INTER-LIGAND FREE ENERGY PREDICTED BY IDOCK:   -3.74 KCAL/MOL
REMARK 924 INTRA-LIGAND FREE ENERGY PREDICTED BY IDOCK:    0.11 KCAL/MOL
REMARK 927      BINDING AFFINITY PREDICTED BY RF-SCORE:    0.00 PKD
ROOT
HETATM    1  C   UNL     1     -13.699   9.194  71.987  1.00  0.00    -0.508 C  
HETATM    2  C   UNL     1     -12.459  10.052  71.761  1.00  0.00    -0.475 C  
ENDROOT
BRANCH   2   3
HETATM    3  C   UNL     1     -11.274   9.229  71.234  1.00  0.00    -0.355 C  
BRANCH   3   4
HETATM    4  N   UNL     1     -10.825   9.642  69.899  1.00  0.00    -0.243 N  
HETATM    5  O   UNL     1      -8.631   8.856  69.909  1.00  0.00    -0.124 OA 
HETATM    6  C   UNL     1     -11.562  10.612  69.129  1.00  0.00    -0.271 C  
HETATM    7  C   UNL     1      -9.559   9.439  69.370  1.00  0.00    -0.173 C  
HETATM    8  C   UNL     1      -9.479  10.173  68.053  1.00  0.00    -0.156 C  
HETATM    9  C   UNL     1     -10.939  10.490  67.754  1.00  0.00    -0.372 C  
ENDBRANCH   3   4
BRANCH   3  10
HETATM   10  C   UNL     1     -11.562   7.716  71.277  1.00  0.00    -0.278 C  
HETATM   11  H2  UNL     1     -12.455   7.758  69.388  1.00  0.00     0.000 HD 
HETATM   12  N   UNL     1     -12.190   7.184  70.189  1.00  0.00    -0.539 N  
HETATM   13  O   UNL     1     -11.280   7.012  72.243  1.00  0.00    -0.246 OA 
HETATM   14  H1  UNL     1     -12.381   6.183  70.217  1.00  0.00     0.000 HD 
ENDBRANCH   3  10
ENDBRANCH   2   3
TORSDOF 3
ENDMDL
MODEL      141
REMARK 921   NORMALIZED FREE ENERGY PREDICTED BY IDOCK:   -2.78 KCAL/MOL
REMARK 922        TOTAL FREE ENERGY PREDICTED BY IDOCK:   -3.62 KCAL/MOL
REMARK 923 INTER-LIGAND FREE ENERGY PREDICTED BY IDOCK:   -3.64 KCAL/MOL
REMARK 924 INTRA-LIGAND FREE ENERGY PREDICTED BY IDOCK:    0.02 KCAL/MOL
REMARK 927      BINDING AFFINITY PREDICTED BY RF-SCORE:    0.00 PKD
ROOT
HETATM    1  C   UNL     1     -11.047  15.569  64.761  1.00  0.00    -0.421 C  
HETATM    2  C   UNL     1     -10.685  14.577  65.860  1.00  0.00    -0.308 C  
ENDROOT
BRANCH   2   3
HETATM    3  C   UNL     1     -11.020  15.116  67.260  1.00  0.00    -0.327 C  
BRANCH   3   4
HETATM    4  N   UNL     1     -10.222  16.289  67.639  1.00  0.00    -0.266 N  
HETATM    5  O   UNL     1      -8.089  15.594  67.009  1.00  0.00    -0.199 OA 
HETATM    6  C   UNL     1     -10.752  17.301  68.518  1.00  0.00    -0.305 C  
HETATM    7  C   UNL     1      -8.848  16.415  67.500  1.00  0.00    -0.179 C  
HETATM    8  C   UNL     1      -8.427  17.698  68.174  1.00  0.00    -0.260 C  
HETATM    9  C   UNL     1      -9.750  18.426  68.374  1.00  0.00    -0.379 C  
ENDBRANCH   3   4
BRANCH   3  10
HETATM   10  C   UNL     1     -10.929  14.015  68.334  1.00  0.00    -0.252 C  
HETATM   11  H2  UNL     1      -8.840  14.045  68.295  1.00  0.00     0.000 HD 
HETATM   12  N   UNL     1      -9.675  13.628  68.707  1.00  0.00    -0.405 N  
HETATM   13  O   UNL     1     -11.920  13.477  68.820  1.00  0.00    -0.338 OA 
HETATM   14  H1  UNL     1      -9.615  12.900  69.418  1.00  0.00     0.000 HD 
ENDBRANCH   3  10
ENDBRANCH   2   3
TORSDOF 3
ENDMDL
MODEL      142
REMARK 921   NORMALIZED FREE ENERGY PREDICTED BY IDOCK:   -2.77 KCAL/MOL
REMARK 922        TOTAL FREE ENERGY PREDICTED BY IDOCK:   -3.62 KCAL/MOL
REMARK 923 INTER-LIGAND FREE ENERGY PREDICTED BY IDOCK:   -4.05 KCAL/MOL
REMARK 924 INTRA-LIGAND FREE ENERGY PREDICTED BY IDOCK:    0.43 KCAL/MOL
REMARK 927      BINDING AFFINITY PREDICTED BY RF-SCORE:    0.00 PKD
ROOT
HETATM    1  C   UNL     1     -11.226  15.160  68.836  1.00  0.00    -0.292 C  
HETATM    2  C   UNL     1     -11.070  16.428  68.005  1.00  0.00    -0.292 C  
ENDROOT
BRANCH   2   3
HETATM    3  C   UNL     1      -9.977  16.289  66.934  1.00  0.00    -0.260 C  
BRANCH   3   4
HETATM    4  N   UNL     1      -8.841  17.196  67.139  1.00  0.00    -0.215 N  
HETATM    5  O   UNL     1      -9.662  18.550  68.850  1.00  0.00    -0.353 OA 
HETATM    6  C   UNL     1      -7.785  17.303  66.165  1.00  0.00    -0.282 C  
HETATM    7  C   UNL     1      -8.791  18.240  68.051  1.00  0.00    -0.280 C  
HETATM    8  C   UNL     1      -7.519  19.015  67.803  1.00  0.00    -0.271 C  
HETATM    9  C   UNL     1      -6.718  18.074  66.913  1.00  0.00    -0.212 C  
ENDBRANCH   3   4
BRANCH   3  10
HETATM   10  C   UNL     1     -10.548  16.431  65.510  1.00  0.00    -0.330 C  
HETATM   11  H2  UNL     1     -10.117  14.437  65.058  1.00  0.00     0.000 HD 
HETATM   12  N   UNL     1     -10.506  15.318  64.722  1.00  0.00    -0.509 N  
HETATM   13  O   UNL     1     -10.992  17.490  65.075  1.00  0.00    -0.754 OA 
HETATM   14  H1  UNL     1     -10.883  15.413  63.780  1.00  0.00     0.000 HD 
ENDBRANCH   3  10
ENDBRANCH   2   3
TORSDOF 3
ENDMDL
MODEL      143
REMARK 921   NORMALIZED FREE ENERGY PREDICTED BY IDOCK:   -2.76 KCAL/MOL
REMARK 922        TOTAL FREE ENERGY PREDICTED BY IDOCK:   -3.61 KCAL/MOL
REMARK 923 INTER-LIGAND FREE ENERGY PREDICTED BY IDOCK:   -3.65 KCAL/MOL
REMARK 924 INTRA-LIGAND FREE ENERGY PREDICTED BY IDOCK:    0.04 KCAL/MOL
REMARK 927      BINDING AFFINITY PREDICTED BY RF-SCORE:    0.00 PKD
ROOT
HETATM    1  C   UNL     1     -11.666  14.512  67.559  1.00  0.00    -0.413 C  
HETATM    2  C   UNL     1     -11.823  13.033  67.891  1.00  0.00    -0.389 C  
ENDROOT
BRANCH   2   3
HETATM    3  C   UNL     1     -11.375  12.129  66.733  1.00  0.00    -0.342 C  
BRANCH   3   4
HETATM    4  N   UNL     1     -10.014  11.602  66.896  1.00  0.00    -0.200 N  
HETATM    5  O   UNL     1     -10.356   9.346  66.420  1.00  0.00    -0.242 OA 
HETATM    6  C   UNL     1      -8.994  12.363  67.571  1.00  0.00    -0.183 C  
HETATM    7  C   UNL     1      -9.634  10.276  66.746  1.00  0.00    -0.172 C  
HETATM    8  C   UNL     1      -8.193  10.152  67.177  1.00  0.00    -0.121 C  
HETATM    9  C   UNL     1      -7.730  11.603  67.230  1.00  0.00    -0.154 C  
ENDBRANCH   3   4
BRANCH   3  10
HETATM   10  C   UNL     1     -11.538  12.823  65.367  1.00  0.00    -0.358 C  
HETATM   11  H2  UNL     1     -13.602  12.498  65.365  1.00  0.00     0.000 HD 
HETATM   12  N   UNL     1     -12.804  12.889  64.863  1.00  0.00    -0.738 N  
HETATM   13  O   UNL     1     -10.588  13.272  64.731  1.00  0.00    -0.341 OA 
HETATM   14  H1  UNL     1     -12.912  13.348  63.959  1.00  0.00     0.000 HD 
ENDBRANCH   3  10
ENDBRANCH   2   3
TORSDOF 3
ENDMDL
MODEL      144
REMARK 921   NORMALIZED FREE ENERGY PREDICTED BY IDOCK:   -2.76 KCAL/MOL
REMARK 922        TOTAL FREE ENERGY PREDICTED BY IDOCK:   -3.61 KCAL/MOL
REMARK 923 INTER-LIGAND FREE ENERGY PREDICTED BY IDOCK:   -3.90 KCAL/MOL
REMARK 924 INTRA-LIGAND FREE ENERGY PREDICTED BY IDOCK:    0.29 KCAL/MOL
REMARK 927      BINDING AFFINITY PREDICTED BY RF-SCORE:    0.00 PKD
ROOT
HETATM    1  C   UNL     1     -10.615   9.971  68.669  1.00  0.00    -0.239 C  
HETATM    2  C   UNL     1     -10.502   9.807  70.180  1.00  0.00    -0.338 C  
ENDROOT
BRANCH   2   3
HETATM    3  C   UNL     1     -10.941   8.410  70.646  1.00  0.00    -0.243 C  
BRANCH   3   4
HETATM    4  N   UNL     1     -12.308   8.377  71.181  1.00  0.00    -0.250 N  
HETATM    5  O   UNL     1     -12.584  10.601  71.821  1.00  0.00    -0.390 OA 
HETATM    6  C   UNL     1     -12.955   7.131  71.504  1.00  0.00    -0.383 C  
HETATM    7  C   UNL     1     -12.991   9.453  71.730  1.00  0.00    -0.402 C  
HETATM    8  C   UNL     1     -14.285   8.937  72.311  1.00  0.00    -0.474 C  
HETATM    9  C   UNL     1     -14.397   7.545  71.704  1.00  0.00    -0.621 C  
ENDBRANCH   3   4
BRANCH   3  10
HETATM   10  C   UNL     1      -9.942   7.797  71.645  1.00  0.00    -0.174 C  
HETATM   11  H2  UNL     1     -10.473   9.168  73.130  1.00  0.00     0.000 HD 
HETATM   12  N   UNL     1      -9.884   8.373  72.881  1.00  0.00    -0.230 N  
HETATM   13  O   UNL     1      -9.201   6.861  71.356  1.00  0.00    -0.155 OA 
HETATM   14  H1  UNL     1      -9.222   7.968  73.542  1.00  0.00     0.000 HD 
ENDBRANCH   3  10
ENDBRANCH   2   3
TORSDOF 3
ENDMDL
MODEL      145
REMARK 921   NORMALIZED FREE ENERGY PREDICTED BY IDOCK:   -2.75 KCAL/MOL
REMARK 922        TOTAL FREE ENERGY PREDICTED BY IDOCK:   -3.59 KCAL/MOL
REMARK 923 INTER-LIGAND FREE ENERGY PREDICTED BY IDOCK:   -3.26 KCAL/MOL
REMARK 924 INTRA-LIGAND FREE ENERGY PREDICTED BY IDOCK:   -0.33 KCAL/MOL
REMARK 927      BINDING AFFINITY PREDICTED BY RF-SCORE:    0.00 PKD
ROOT
HETATM    1  C   UNL     1     -10.412   9.664  67.661  1.00  0.00    -0.317 C  
HETATM    2  C   UNL     1     -11.036  11.019  67.345  1.00  0.00    -0.349 C  
ENDROOT
BRANCH   2   3
HETATM    3  C   UNL     1     -10.101  11.906  66.508  1.00  0.00    -0.203 C  
BRANCH   3   4
HETATM    4  N   UNL     1      -9.424  12.945  67.295  1.00  0.00    -0.209 N  
HETATM    5  O   UNL     1      -7.255  12.096  67.369  1.00  0.00    -0.125 OA 
HETATM    6  C   UNL     1     -10.172  13.913  68.056  1.00  0.00    -0.246 C  
HETATM    7  C   UNL     1      -8.088  12.939  67.665  1.00  0.00    -0.167 C  
HETATM    8  C   UNL     1      -7.860  14.096  68.608  1.00  0.00    -0.137 C  
HETATM    9  C   UNL     1      -9.118  14.935  68.423  1.00  0.00    -0.185 C  
ENDBRANCH   3   4
BRANCH   3  10
HETATM   10  C   UNL     1     -10.826  12.517  65.294  1.00  0.00    -0.286 C  
HETATM   11  H2  UNL     1      -9.020  12.918  64.324  1.00  0.00     0.000 HD 
HETATM   12  N   UNL     1     -10.037  12.977  64.280  1.00  0.00    -0.617 N  
HETATM   13  O   UNL     1     -12.048  12.626  65.234  1.00  0.00    -0.421 OA 
HETATM   14  H1  UNL     1     -10.517  13.381  63.477  1.00  0.00     0.000 HD 
ENDBRANCH   3  10
ENDBRANCH   2   3
TORSDOF 3
ENDMDL
MODEL      146
REMARK 921   NORMALIZED FREE ENERGY PREDICTED BY IDOCK:   -2.74 KCAL/MOL
REMARK 922        TOTAL FREE ENERGY PREDICTED BY IDOCK:   -3.57 KCAL/MOL
REMARK 923 INTER-LIGAND FREE ENERGY PREDICTED BY IDOCK:   -3.26 KCAL/MOL
REMARK 924 INTRA-LIGAND FREE ENERGY PREDICTED BY IDOCK:   -0.31 KCAL/MOL
REMARK 927      BINDING AFFINITY PREDICTED BY RF-SCORE:    0.00 PKD
ROOT
HETATM    1  C   UNL     1      -8.738   6.625  67.525  1.00  0.00    -0.118 C  
HETATM    2  C   UNL     1     -10.052   7.226  68.014  1.00  0.00    -0.207 C  
ENDROOT
BRANCH   2   3
HETATM    3  C   UNL     1      -9.836   8.255  69.133  1.00  0.00    -0.179 C  
BRANCH   3   4
HETATM    4  N   UNL     1     -10.580   7.946  70.361  1.00  0.00    -0.223 N  
HETATM    5  O   UNL     1      -9.174   8.872  71.973  1.00  0.00    -0.348 OA 
HETATM    6  C   UNL     1     -11.644   6.973  70.366  1.00  0.00    -0.295 C  
HETATM    7  C   UNL     1     -10.182   8.260  71.652  1.00  0.00    -0.221 C  
HETATM    8  C   UNL     1     -11.147   7.605  72.610  1.00  0.00    -0.412 C  
HETATM    9  C   UNL     1     -12.307   7.211  71.705  1.00  0.00    -0.385 C  
ENDBRANCH   3   4
BRANCH   3  10
HETATM   10  C   UNL     1     -10.129   9.691  68.657  1.00  0.00    -0.179 C  
HETATM   11  H2  UNL     1     -11.923   9.106  67.760  1.00  0.00     0.000 HD 
HETATM   12  N   UNL     1     -11.285   9.878  67.957  1.00  0.00    -0.521 N  
HETATM   13  O   UNL     1      -9.360  10.627  68.856  1.00  0.00    -0.172 OA 
HETATM   14  H1  UNL     1     -11.479  10.828  67.642  1.00  0.00     0.000 HD 
ENDBRANCH   3  10
ENDBRANCH   2   3
TORSDOF 3
ENDMDL
MODEL      147
REMARK 921   NORMALIZED FREE ENERGY PREDICTED BY IDOCK:   -2.72 KCAL/MOL
REMARK 922        TOTAL FREE ENERGY PREDICTED BY IDOCK:   -3.55 KCAL/MOL
REMARK 923 INTER-LIGAND FREE ENERGY PREDICTED BY IDOCK:   -3.15 KCAL/MOL
REMARK 924 INTRA-LIGAND FREE ENERGY PREDICTED BY IDOCK:   -0.40 KCAL/MOL
REMARK 927      BINDING AFFINITY PREDICTED BY RF-SCORE:    0.00 PKD
ROOT
HETATM    1  C   UNL     1      -9.990   9.680  67.993  1.00  0.00    -0.190 C  
HETATM    2  C   UNL     1      -9.462  10.647  66.940  1.00  0.00    -0.189 C  
ENDROOT
BRANCH   2   3
HETATM    3  C   UNL     1      -9.765  12.111  67.295  1.00  0.00    -0.191 C  
BRANCH   3   4
HETATM    4  N   UNL     1     -10.615  12.786  66.306  1.00  0.00    -0.254 N  
HETATM    5  O   UNL     1     -11.410  14.582  67.562  1.00  0.00    -0.309 OA 
HETATM    6  C   UNL     1     -11.024  12.122  65.094  1.00  0.00    -0.310 C  
HETATM    7  C   UNL     1     -11.364  13.932  66.528  1.00  0.00    -0.331 C  
HETATM    8  C   UNL     1     -12.217  14.176  65.307  1.00  0.00    -0.440 C  
HETATM    9  C   UNL     1     -11.589  13.257  64.266  1.00  0.00    -0.444 C  
ENDBRANCH   3   4
BRANCH   3  10
HETATM   10  C   UNL     1      -8.478  12.916  67.558  1.00  0.00    -0.186 C  
HETATM   11  H2  UNL     1      -9.334  13.891  69.196  1.00  0.00     0.000 HD 
HETATM   12  N   UNL     1      -8.504  13.782  68.612  1.00  0.00    -0.310 N  
HETATM   13  O   UNL     1      -7.479  12.823  66.850  1.00  0.00     0.003 OA 
HETATM   14  H1  UNL     1      -7.653  14.314  68.786  1.00  0.00     0.000 HD 
ENDBRANCH   3  10
ENDBRANCH   2   3
TORSDOF 3
ENDMDL
MODEL      148
REMARK 921   NORMALIZED FREE ENERGY PREDICTED BY IDOCK:   -2.70 KCAL/MOL
REMARK 922        TOTAL FREE ENERGY PREDICTED BY IDOCK:   -3.54 KCAL/MOL
REMARK 923 INTER-LIGAND FREE ENERGY PREDICTED BY IDOCK:   -3.20 KCAL/MOL
REMARK 924 INTRA-LIGAND FREE ENERGY PREDICTED BY IDOCK:   -0.34 KCAL/MOL
REMARK 927      BINDING AFFINITY PREDICTED BY RF-SCORE:    0.00 PKD
ROOT
HETATM    1  C   UNL     1     -10.603   7.227  68.146  1.00  0.00    -0.228 C  
HETATM    2  C   UNL     1     -10.959   7.170  69.627  1.00  0.00    -0.236 C  
ENDROOT
BRANCH   2   3
HETATM    3  C   UNL     1     -10.197   8.223  70.447  1.00  0.00    -0.201 C  
BRANCH   3   4
HETATM    4  N   UNL     1     -10.051   7.866  71.863  1.00  0.00    -0.185 N  
HETATM    5  O   UNL     1      -8.034   8.916  72.376  1.00  0.00    -0.374 OA 
HETATM    6  C   UNL     1     -10.836   6.811  72.453  1.00  0.00    -0.238 C  
HETATM    7  C   UNL     1      -8.991   8.222  72.684  1.00  0.00    -0.246 C  
HETATM    8  C   UNL     1      -9.157   7.500  74.000  1.00  0.00    -0.295 C  
HETATM    9  C   UNL     1     -10.596   7.006  73.935  1.00  0.00    -0.232 C  
ENDBRANCH   3   4
BRANCH   3  10
HETATM   10  C   UNL     1     -10.814   9.627  70.292  1.00  0.00    -0.285 C  
HETATM   11  H2  UNL     1      -8.988  10.442  69.684  1.00  0.00     0.000 HD 
HETATM   12  N   UNL     1      -9.974  10.620  69.880  1.00  0.00    -0.409 N  
HETATM   13  O   UNL     1     -11.989   9.869  70.552  1.00  0.00    -0.267 OA 
HETATM   14  H1  UNL     1     -10.381  11.549  69.778  1.00  0.00     0.000 HD 
ENDBRANCH   3  10
ENDBRANCH   2   3
TORSDOF 3
ENDMDL
MODEL      149
REMARK 921   NORMALIZED FREE ENERGY PREDICTED BY IDOCK:   -2.70 KCAL/MOL
REMARK 922        TOTAL FREE ENERGY PREDICTED BY IDOCK:   -3.53 KCAL/MOL
REMARK 923 INTER-LIGAND FREE ENERGY PREDICTED BY IDOCK:   -3.22 KCAL/MOL
REMARK 924 INTRA-LIGAND FREE ENERGY PREDICTED BY IDOCK:   -0.31 KCAL/MOL
REMARK 927      BINDING AFFINITY PREDICTED BY RF-SCORE:    0.00 PKD
ROOT
HETATM    1  C   UNL     1     -11.098  11.062  69.061  1.00  0.00    -0.301 C  
HETATM    2  C   UNL     1     -11.764  11.509  67.765  1.00  0.00    -0.299 C  
ENDROOT
BRANCH   2   3
HETATM    3  C   UNL     1     -10.755  11.653  66.616  1.00  0.00    -0.270 C  
BRANCH   3   4
HETATM    4  N   UNL     1      -9.676  12.607  66.903  1.00  0.00    -0.228 N  
HETATM    5  O   UNL     1     -10.842  14.624  66.840  1.00  0.00    -0.293 OA 
HETATM    6  C   UNL     1      -8.291  12.220  66.805  1.00  0.00    -0.087 C  
HETATM    7  C   UNL     1      -9.808  13.986  66.971  1.00  0.00    -0.260 C  
HETATM    8  C   UNL     1      -8.428  14.581  67.111  1.00  0.00    -0.234 C  
HETATM    9  C   UNL     1      -7.575  13.373  67.475  1.00  0.00    -0.176 C  
ENDBRANCH   3   4
BRANCH   3  10
HETATM   10  C   UNL     1     -11.449  11.990  65.282  1.00  0.00    -0.302 C  
HETATM   11  H2  UNL     1     -12.979  13.030  66.255  1.00  0.00     0.000 HD 
HETATM   12  N   UNL     1     -12.598  12.722  65.360  1.00  0.00    -0.433 N  
HETATM   13  O   UNL     1     -11.026  11.603  64.196  1.00  0.00    -0.335 OA 
HETATM   14  H1  UNL     1     -13.058  12.944  64.477  1.00  0.00     0.000 HD 
ENDBRANCH   3  10
ENDBRANCH   2   3
TORSDOF 3
ENDMDL
MODEL      150
REMARK 921   NORMALIZED FREE ENERGY PREDICTED BY IDOCK:   -2.70 KCAL/MOL
REMARK 922        TOTAL FREE ENERGY PREDICTED BY IDOCK:   -3.53 KCAL/MOL
REMARK 923 INTER-LIGAND FREE ENERGY PREDICTED BY IDOCK:   -3.67 KCAL/MOL
REMARK 924 INTRA-LIGAND FREE ENERGY PREDICTED BY IDOCK:    0.14 KCAL/MOL
REMARK 927      BINDING AFFINITY PREDICTED BY RF-SCORE:    0.00 PKD
ROOT
HETATM    1  C   UNL     1     -11.512  15.614  68.228  1.00  0.00    -0.353 C  
HETATM    2  C   UNL     1     -11.734  14.188  67.736  1.00  0.00    -0.408 C  
ENDROOT
BRANCH   2   3
HETATM    3  C   UNL     1     -10.889  13.168  68.515  1.00  0.00    -0.262 C  
BRANCH   3   4
HETATM    4  N   UNL     1      -9.965  12.407  67.665  1.00  0.00    -0.197 N  
HETATM    5  O   UNL     1     -11.311  11.998  65.807  1.00  0.00    -0.330 OA 
HETATM    6  C   UNL     1      -8.757  11.832  68.202  1.00  0.00    -0.168 C  
HETATM    7  C   UNL     1     -10.258  11.882  66.415  1.00  0.00    -0.209 C  
HETATM    8  C   UNL     1      -9.090  11.030  65.981  1.00  0.00    -0.212 C  
HETATM    9  C   UNL     1      -7.993  11.439  66.956  1.00  0.00    -0.158 C  
ENDBRANCH   3   4
BRANCH   3  10
HETATM   10  C   UNL     1     -11.765  12.225  69.362  1.00  0.00    -0.330 C  
HETATM   11  H2  UNL     1     -11.595  13.456  71.042  1.00  0.00     0.000 HD 
HETATM   12  N   UNL     1     -11.988  12.597  70.656  1.00  0.00    -0.519 N  
HETATM   13  O   UNL     1     -12.222  11.171  68.926  1.00  0.00    -0.522 OA 
HETATM   14  H1  UNL     1     -12.567  11.973  71.216  1.00  0.00     0.000 HD 
ENDBRANCH   3  10
ENDBRANCH   2   3
TORSDOF 3
ENDMDL
MODEL      151
REMARK 921   NORMALIZED FREE ENERGY PREDICTED BY IDOCK:   -2.66 KCAL/MOL
REMARK 922        TOTAL FREE ENERGY PREDICTED BY IDOCK:   -3.49 KCAL/MOL
REMARK 923 INTER-LIGAND FREE ENERGY PREDICTED BY IDOCK:   -3.16 KCAL/MOL
REMARK 924 INTRA-LIGAND FREE ENERGY PREDICTED BY IDOCK:   -0.33 KCAL/MOL
REMARK 927      BINDING AFFINITY PREDICTED BY RF-SCORE:    0.00 PKD
ROOT
HETATM    1  C   UNL     1     -11.067   6.427  69.017  1.00  0.00    -0.424 C  
HETATM    2  C   UNL     1     -11.622   6.529  70.433  1.00  0.00    -0.470 C  
ENDROOT
BRANCH   2   3
HETATM    3  C   UNL     1     -10.531   6.864  71.461  1.00  0.00    -0.212 C  
BRANCH   3   4
HETATM    4  N   UNL     1      -9.600   5.756  71.705  1.00  0.00    -0.155 N  
HETATM    5  O   UNL     1      -7.610   6.666  70.902  1.00  0.00    -0.086 OA 
HETATM    6  C   UNL     1     -10.078   4.425  71.985  1.00  0.00    -0.186 C  
HETATM    7  C   UNL     1      -8.248   5.747  71.393  1.00  0.00    -0.126 C  
HETATM    8  C   UNL     1      -7.719   4.357  71.649  1.00  0.00    -0.078 C  
HETATM    9  C   UNL     1      -8.831   3.717  72.470  1.00  0.00    -0.113 C  
ENDBRANCH   3   4
BRANCH   3  10
HETATM   10  C   UNL     1     -11.128   7.386  72.782  1.00  0.00    -0.346 C  
HETATM   11  H2  UNL     1     -12.740   8.271  71.791  1.00  0.00     0.000 HD 
HETATM   12  N   UNL     1     -12.289   8.095  72.689  1.00  0.00    -0.606 N  
HETATM   13  O   UNL     1     -10.586   7.213  73.871  1.00  0.00    -0.362 OA 
HETATM   14  H1  UNL     1     -12.684   8.441  73.563  1.00  0.00     0.000 HD 
ENDBRANCH   3  10
ENDBRANCH   2   3
TORSDOF 3
ENDMDL
MODEL      152
REMARK 921   NORMALIZED FREE ENERGY PREDICTED BY IDOCK:   -2.66 KCAL/MOL
REMARK 922        TOTAL FREE ENERGY PREDICTED BY IDOCK:   -3.48 KCAL/MOL
REMARK 923 INTER-LIGAND FREE ENERGY PREDICTED BY IDOCK:   -3.56 KCAL/MOL
REMARK 924 INTRA-LIGAND FREE ENERGY PREDICTED BY IDOCK:    0.07 KCAL/MOL
REMARK 927      BINDING AFFINITY PREDICTED BY RF-SCORE:    0.00 PKD
ROOT
HETATM    1  C   UNL     1     -11.024   5.912  69.904  1.00  0.00    -0.444 C  
HETATM    2  C   UNL     1     -10.475   7.306  69.622  1.00  0.00    -0.239 C  
ENDROOT
BRANCH   2   3
HETATM    3  C   UNL     1     -11.212   8.391  70.421  1.00  0.00    -0.213 C  
BRANCH   3   4
HETATM    4  N   UNL     1     -11.125   9.724  69.812  1.00  0.00    -0.244 N  
HETATM    5  O   UNL     1      -8.888   9.763  69.158  1.00  0.00    -0.141 OA 
HETATM    6  C   UNL     1     -12.143  10.718  70.040  1.00  0.00    -0.345 C  
HETATM    7  C   UNL     1      -9.985  10.290  69.260  1.00  0.00    -0.227 C  
HETATM    8  C   UNL     1     -10.298  11.726  68.916  1.00  0.00    -0.151 C  
HETATM    9  C   UNL     1     -11.818  11.772  69.002  1.00  0.00    -0.379 C  
ENDBRANCH   3   4
BRANCH   3  10
HETATM   10  C   UNL     1     -10.761   8.425  71.894  1.00  0.00    -0.303 C  
HETATM   11  H2  UNL     1     -12.613   7.719  72.555  1.00  0.00     0.000 HD 
HETATM   12  N   UNL     1     -11.677   8.025  72.823  1.00  0.00    -0.569 N  
HETATM   13  O   UNL     1      -9.650   8.820  72.240  1.00  0.00    -0.301 OA 
HETATM   14  H1  UNL     1     -11.378   8.048  73.797  1.00  0.00     0.000 HD 
ENDBRANCH   3  10
ENDBRANCH   2   3
TORSDOF 3
ENDMDL
MODEL      153
REMARK 921   NORMALIZED FREE ENERGY PREDICTED BY IDOCK:   -2.65 KCAL/MOL
REMARK 922        TOTAL FREE ENERGY PREDICTED BY IDOCK:   -3.48 KCAL/MOL
REMARK 923 INTER-LIGAND FREE ENERGY PREDICTED BY IDOCK:   -3.64 KCAL/MOL
REMARK 924 INTRA-LIGAND FREE ENERGY PREDICTED BY IDOCK:    0.16 KCAL/MOL
REMARK 927      BINDING AFFINITY PREDICTED BY RF-SCORE:    0.00 PKD
ROOT
HETATM    1  C   UNL     1     -10.400  12.685  63.991  1.00  0.00    -0.414 C  
HETATM    2  C   UNL     1     -10.952  11.313  64.358  1.00  0.00    -0.331 C  
ENDROOT
BRANCH   2   3
HETATM    3  C   UNL     1     -10.250  10.716  65.588  1.00  0.00    -0.253 C  
BRANCH   3   4
HETATM    4  N   UNL     1     -10.819  11.173  66.862  1.00  0.00    -0.275 N  
HETATM    5  O   UNL     1     -10.605   9.245  68.155  1.00  0.00    -0.221 OA 
HETATM    6  C   UNL     1     -11.606  12.377  66.941  1.00  0.00    -0.370 C  
HETATM    7  C   UNL     1     -10.961  10.404  68.008  1.00  0.00    -0.291 C  
HETATM    8  C   UNL     1     -11.747  11.209  69.015  1.00  0.00    -0.408 C  
HETATM    9  C   UNL     1     -11.701  12.616  68.433  1.00  0.00    -0.377 C  
ENDBRANCH   3   4
BRANCH   3  10
HETATM   10  C   UNL     1      -8.727  10.947  65.548  1.00  0.00    -0.171 C  
HETATM   11  H2  UNL     1      -8.825  12.349  67.094  1.00  0.00     0.000 HD 
HETATM   12  N   UNL     1      -8.224  11.852  66.437  1.00  0.00    -0.381 N  
HETATM   13  O   UNL     1      -7.990  10.383  64.744  1.00  0.00    -0.152 OA 
HETATM   14  H1  UNL     1      -7.216  12.005  66.410  1.00  0.00     0.000 HD 
ENDBRANCH   3  10
ENDBRANCH   2   3
TORSDOF 3
ENDMDL
MODEL      154
REMARK 921   NORMALIZED FREE ENERGY PREDICTED BY IDOCK:   -2.65 KCAL/MOL
REMARK 922        TOTAL FREE ENERGY PREDICTED BY IDOCK:   -3.48 KCAL/MOL
REMARK 923 INTER-LIGAND FREE ENERGY PREDICTED BY IDOCK:   -3.20 KCAL/MOL
REMARK 924 INTRA-LIGAND FREE ENERGY PREDICTED BY IDOCK:   -0.28 KCAL/MOL
REMARK 927      BINDING AFFINITY PREDICTED BY RF-SCORE:    0.00 PKD
ROOT
HETATM    1  C   UNL     1      -7.863   8.739  67.555  1.00  0.00    -0.102 C  
HETATM    2  C   UNL     1      -9.264   9.326  67.680  1.00  0.00    -0.139 C  
ENDROOT
BRANCH   2   3
HETATM    3  C   UNL     1      -9.322  10.475  68.699  1.00  0.00    -0.172 C  
BRANCH   3   4
HETATM    4  N   UNL     1     -10.338  10.281  69.740  1.00  0.00    -0.253 N  
HETATM    5  O   UNL     1      -9.200   8.875  71.210  1.00  0.00    -0.219 OA 
HETATM    6  C   UNL     1     -11.720  10.619  69.509  1.00  0.00    -0.284 C  
HETATM    7  C   UNL     1     -10.197   9.496  70.875  1.00  0.00    -0.286 C  
HETATM    8  C   UNL     1     -11.535   9.439  71.572  1.00  0.00    -0.467 C  
HETATM    9  C   UNL     1     -12.315  10.561  70.899  1.00  0.00    -0.490 C  
ENDBRANCH   3   4
BRANCH   3  10
HETATM   10  C   UNL     1      -9.490  11.843  68.011  1.00  0.00    -0.197 C  
HETATM   11  H2  UNL     1      -8.753  12.858  69.683  1.00  0.00     0.000 HD 
HETATM   12  N   UNL     1      -9.121  12.940  68.734  1.00  0.00    -0.389 N  
HETATM   13  O   UNL     1      -9.960  11.967  66.883  1.00  0.00    -0.200 OA 
HETATM   14  H1  UNL     1      -9.233  13.845  68.279  1.00  0.00     0.000 HD 
ENDBRANCH   3  10
ENDBRANCH   2   3
TORSDOF 3
ENDMDL
MODEL      155
REMARK 921   NORMALIZED FREE ENERGY PREDICTED BY IDOCK:   -2.64 KCAL/MOL
REMARK 922        TOTAL FREE ENERGY PREDICTED BY IDOCK:   -3.46 KCAL/MOL
REMARK 923 INTER-LIGAND FREE ENERGY PREDICTED BY IDOCK:   -3.36 KCAL/MOL
REMARK 924 INTRA-LIGAND FREE ENERGY PREDICTED BY IDOCK:   -0.10 KCAL/MOL
REMARK 927      BINDING AFFINITY PREDICTED BY RF-SCORE:    0.00 PKD
ROOT
HETATM    1  C   UNL     1     -11.661  15.686  69.812  1.00  0.00    -0.368 C  
HETATM    2  C   UNL     1     -11.305  16.208  68.424  1.00  0.00    -0.345 C  
ENDROOT
BRANCH   2   3
HETATM    3  C   UNL     1      -9.842  15.920  68.055  1.00  0.00    -0.218 C  
BRANCH   3   4
HETATM    4  N   UNL     1      -8.989  17.116  68.075  1.00  0.00    -0.228 N  
HETATM    5  O   UNL     1      -9.387  17.976  65.946  1.00  0.00    -0.520 OA 
HETATM    6  C   UNL     1      -7.965  17.286  69.075  1.00  0.00    -0.121 C  
HETATM    7  C   UNL     1      -8.825  18.013  67.031  1.00  0.00    -0.254 C  
HETATM    8  C   UNL     1      -7.734  18.982  67.415  1.00  0.00    -0.254 C  
HETATM    9  C   UNL     1      -7.578  18.741  68.911  1.00  0.00    -0.312 C  
ENDBRANCH   3   4
BRANCH   3  10
HETATM   10  C   UNL     1      -9.725  15.181  66.708  1.00  0.00    -0.242 C  
HETATM   11  H2  UNL     1     -11.543  15.963  66.037  1.00  0.00     0.000 HD 
HETATM   12  N   UNL     1     -10.745  15.366  65.820  1.00  0.00    -0.335 N  
HETATM   13  O   UNL     1      -8.789  14.433  66.439  1.00  0.00    -0.161 OA 
HETATM   14  H1  UNL     1     -10.667  14.877  64.929  1.00  0.00     0.000 HD 
ENDBRANCH   3  10
ENDBRANCH   2   3
TORSDOF 3
ENDMDL
MODEL      156
REMARK 921   NORMALIZED FREE ENERGY PREDICTED BY IDOCK:   -2.63 KCAL/MOL
REMARK 922        TOTAL FREE ENERGY PREDICTED BY IDOCK:   -3.45 KCAL/MOL
REMARK 923 INTER-LIGAND FREE ENERGY PREDICTED BY IDOCK:   -3.19 KCAL/MOL
REMARK 924 INTRA-LIGAND FREE ENERGY PREDICTED BY IDOCK:   -0.25 KCAL/MOL
REMARK 927      BINDING AFFINITY PREDICTED BY RF-SCORE:    0.00 PKD
ROOT
HETATM    1  C   UNL     1      -8.265  15.148  68.121  1.00  0.00    -0.145 C  
HETATM    2  C   UNL     1      -9.142  14.186  67.328  1.00  0.00    -0.218 C  
ENDROOT
BRANCH   2   3
HETATM    3  C   UNL     1     -10.148  13.448  68.224  1.00  0.00    -0.247 C  
BRANCH   3   4
HETATM    4  N   UNL     1     -10.346  12.043  67.843  1.00  0.00    -0.192 N  
HETATM    5  O   UNL     1     -11.388  11.213  69.756  1.00  0.00    -0.257 OA 
HETATM    6  C   UNL     1      -9.643  11.465  66.726  1.00  0.00    -0.188 C  
HETATM    7  C   UNL     1     -10.922  11.062  68.636  1.00  0.00    -0.224 C  
HETATM    8  C   UNL     1     -10.764   9.738  67.929  1.00  0.00    -0.312 C  
HETATM    9  C   UNL     1     -10.370  10.154  66.517  1.00  0.00    -0.270 C  
ENDBRANCH   3   4
BRANCH   3  10
HETATM   10  C   UNL     1     -11.495  14.192  68.309  1.00  0.00    -0.304 C  
HETATM   11  H2  UNL     1     -12.119  13.426  66.468  1.00  0.00     0.000 HD 
HETATM   12  N   UNL     1     -12.355  14.018  67.264  1.00  0.00    -0.540 N  
HETATM   13  O   UNL     1     -11.786  14.935  69.243  1.00  0.00    -0.299 OA 
HETATM   14  H1  UNL     1     -13.246  14.511  67.321  1.00  0.00     0.000 HD 
ENDBRANCH   3  10
ENDBRANCH   2   3
TORSDOF 3
ENDMDL
MODEL      157
REMARK 921   NORMALIZED FREE ENERGY PREDICTED BY IDOCK:   -2.61 KCAL/MOL
REMARK 922        TOTAL FREE ENERGY PREDICTED BY IDOCK:   -3.43 KCAL/MOL
REMARK 923 INTER-LIGAND FREE ENERGY PREDICTED BY IDOCK:   -3.51 KCAL/MOL
REMARK 924 INTRA-LIGAND FREE ENERGY PREDICTED BY IDOCK:    0.08 KCAL/MOL
REMARK 927      BINDING AFFINITY PREDICTED BY RF-SCORE:    0.00 PKD
ROOT
HETATM    1  C   UNL     1      -7.817  11.198  66.477  1.00  0.00    -0.151 C  
HETATM    2  C   UNL     1      -8.130  12.517  67.174  1.00  0.00    -0.156 C  
ENDROOT
BRANCH   2   3
HETATM    3  C   UNL     1      -9.626  12.862  67.116  1.00  0.00    -0.225 C  
BRANCH   3   4
HETATM    4  N   UNL     1     -10.427  12.155  68.123  1.00  0.00    -0.205 N  
HETATM    5  O   UNL     1     -12.118  13.711  68.511  1.00  0.00    -0.364 OA 
HETATM    6  C   UNL     1      -9.902  11.015  68.830  1.00  0.00    -0.198 C  
HETATM    7  C   UNL     1     -11.573  12.641  68.735  1.00  0.00    -0.313 C  
HETATM    8  C   UNL     1     -11.968  11.672  69.823  1.00  0.00    -0.402 C  
HETATM    9  C   UNL     1     -11.133  10.440  69.497  1.00  0.00    -0.314 C  
ENDBRANCH   3   4
BRANCH   3  10
HETATM   10  C   UNL     1     -10.207  12.657  65.704  1.00  0.00    -0.273 C  
HETATM   11  H2  UNL     1      -9.273  14.384  64.988  1.00  0.00     0.000 HD 
HETATM   12  N   UNL     1      -9.875  13.591  64.766  1.00  0.00    -0.608 N  
HETATM   13  O   UNL     1     -10.959  11.728  65.423  1.00  0.00    -0.299 OA 
HETATM   14  H1  UNL     1     -10.260  13.456  63.831  1.00  0.00     0.000 HD 
ENDBRANCH   3  10
ENDBRANCH   2   3
TORSDOF 3
ENDMDL
MODEL      158
REMARK 921   NORMALIZED FREE ENERGY PREDICTED BY IDOCK:   -2.60 KCAL/MOL
REMARK 922        TOTAL FREE ENERGY PREDICTED BY IDOCK:   -3.41 KCAL/MOL
REMARK 923 INTER-LIGAND FREE ENERGY PREDICTED BY IDOCK:   -3.19 KCAL/MOL
REMARK 924 INTRA-LIGAND FREE ENERGY PREDICTED BY IDOCK:   -0.22 KCAL/MOL
REMARK 927      BINDING AFFINITY PREDICTED BY RF-SCORE:    0.00 PKD
ROOT
HETATM    1  C   UNL     1      -7.051  10.690  66.170  1.00  0.00    -0.138 C  
HETATM    2  C   UNL     1      -7.882  11.634  67.031  1.00  0.00    -0.164 C  
ENDROOT
BRANCH   2   3
HETATM    3  C   UNL     1      -9.389  11.468  66.783  1.00  0.00    -0.181 C  
BRANCH   3   4
HETATM    4  N   UNL     1     -10.037  12.688  66.287  1.00  0.00    -0.248 N  
HETATM    5  O   UNL     1     -10.233  13.916  68.258  1.00  0.00    -0.234 OA 
HETATM    6  C   UNL     1     -10.662  12.728  64.989  1.00  0.00    -0.296 C  
HETATM    7  C   UNL     1     -10.412  13.779  67.058  1.00  0.00    -0.274 C  
HETATM    8  C   UNL     1     -11.197  14.723  66.180  1.00  0.00    -0.337 C  
HETATM    9  C   UNL     1     -10.898  14.208  64.777  1.00  0.00    -0.426 C  
ENDBRANCH   3   4
BRANCH   3  10
HETATM   10  C   UNL     1     -10.118  10.922  68.026  1.00  0.00    -0.177 C  
HETATM   11  H2  UNL     1      -8.562  11.514  69.289  1.00  0.00     0.000 HD 
HETATM   12  N   UNL     1      -9.477  11.067  69.222  1.00  0.00    -0.416 N  
HETATM   13  O   UNL     1     -11.204  10.353  67.964  1.00  0.00    -0.298 OA 
HETATM   14  H1  UNL     1      -9.959  10.706  70.045  1.00  0.00     0.000 HD 
ENDBRANCH   3  10
ENDBRANCH   2   3
TORSDOF 3
ENDMDL
MODEL      159
REMARK 921   NORMALIZED FREE ENERGY PREDICTED BY IDOCK:   -2.59 KCAL/MOL
REMARK 922        TOTAL FREE ENERGY PREDICTED BY IDOCK:   -3.40 KCAL/MOL
REMARK 923 INTER-LIGAND FREE ENERGY PREDICTED BY IDOCK:   -3.31 KCAL/MOL
REMARK 924 INTRA-LIGAND FREE ENERGY PREDICTED BY IDOCK:   -0.09 KCAL/MOL
REMARK 927      BINDING AFFINITY PREDICTED BY RF-SCORE:    0.00 PKD
ROOT
HETATM    1  C   UNL     1     -10.270  19.531  67.204  1.00  0.00    -0.542 C  
HETATM    2  C   UNL     1      -9.267  19.544  68.352  1.00  0.00    -0.412 C  
ENDROOT
BRANCH   2   3
HETATM    3  C   UNL     1      -8.157  18.498  68.163  1.00  0.00    -0.290 C  
BRANCH   3   4
HETATM    4  N   UNL     1      -7.060  18.631  69.130  1.00  0.00    -0.263 N  
HETATM    5  O   UNL     1      -6.535  16.392  69.510  1.00  0.00    -0.195 OA 
HETATM    6  C   UNL     1      -6.820  19.872  69.823  1.00  0.00    -0.216 C  
HETATM    7  C   UNL     1      -6.370  17.584  69.722  1.00  0.00    -0.134 C  
HETATM    8  C   UNL     1      -5.456  18.164  70.774  1.00  0.00    -0.191 C  
HETATM    9  C   UNL     1      -5.456  19.650  70.441  1.00  0.00    -0.269 C  
ENDBRANCH   3   4
BRANCH   3  10
HETATM   10  C   UNL     1      -7.621  18.486  66.718  1.00  0.00    -0.229 C  
HETATM   11  H2  UNL     1      -7.494  16.400  66.705  1.00  0.00     0.000 HD 
HETATM   12  N   UNL     1      -7.350  17.262  66.179  1.00  0.00    -0.304 N  
HETATM   13  O   UNL     1      -7.409  19.512  66.078  1.00  0.00    -0.267 OA 
HETATM   14  H1  UNL     1      -6.995  17.253  65.223  1.00  0.00     0.000 HD 
ENDBRANCH   3  10
ENDBRANCH   2   3
TORSDOF 3
ENDMDL
MODEL      160
REMARK 921   NORMALIZED FREE ENERGY PREDICTED BY IDOCK:   -2.58 KCAL/MOL
REMARK 922        TOTAL FREE ENERGY PREDICTED BY IDOCK:   -3.40 KCAL/MOL
REMARK 923 INTER-LIGAND FREE ENERGY PREDICTED BY IDOCK:   -3.16 KCAL/MOL
REMARK 924 INTRA-LIGAND FREE ENERGY PREDICTED BY IDOCK:   -0.23 KCAL/MOL
REMARK 927      BINDING AFFINITY PREDICTED BY RF-SCORE:    0.00 PKD
ROOT
HETATM    1  C   UNL     1      -9.198  11.056  67.452  1.00  0.00    -0.157 C  
HETATM    2  C   UNL     1      -9.203  12.506  67.924  1.00  0.00    -0.200 C  
ENDROOT
BRANCH   2   3
HETATM    3  C   UNL     1     -10.091  13.398  67.044  1.00  0.00    -0.247 C  
BRANCH   3   4
HETATM    4  N   UNL     1      -9.692  14.811  67.057  1.00  0.00    -0.232 N  
HETATM    5  O   UNL     1      -9.813  15.283  69.336  1.00  0.00    -0.236 OA 
HETATM    6  C   UNL     1      -9.679  15.595  65.847  1.00  0.00    -0.353 C  
HETATM    7  C   UNL     1      -9.607  15.620  68.180  1.00  0.00    -0.196 C  
HETATM    8  C   UNL     1      -9.336  17.032  67.719  1.00  0.00    -0.237 C  
HETATM    9  C   UNL     1      -8.925  16.840  66.265  1.00  0.00    -0.325 C  
ENDBRANCH   3   4
BRANCH   3  10
HETATM   10  C   UNL     1     -11.584  13.243  67.392  1.00  0.00    -0.353 C  
HETATM   11  H2  UNL     1     -11.157  12.947  69.416  1.00  0.00     0.000 HD 
HETATM   12  N   UNL     1     -11.884  13.012  68.703  1.00  0.00    -0.320 N  
HETATM   13  O   UNL     1     -12.472  13.287  66.545  1.00  0.00    -0.306 OA 
HETATM   14  H1  UNL     1     -12.872  12.909  68.933  1.00  0.00     0.000 HD 
ENDBRANCH   3  10
ENDBRANCH   2   3
TORSDOF 3
ENDMDL
MODEL      161
REMARK 921   NORMALIZED FREE ENERGY PREDICTED BY IDOCK:   -2.58 KCAL/MOL
REMARK 922        TOTAL FREE ENERGY PREDICTED BY IDOCK:   -3.39 KCAL/MOL
REMARK 923 INTER-LIGAND FREE ENERGY PREDICTED BY IDOCK:   -3.01 KCAL/MOL
REMARK 924 INTRA-LIGAND FREE ENERGY PREDICTED BY IDOCK:   -0.39 KCAL/MOL
REMARK 927      BINDING AFFINITY PREDICTED BY RF-SCORE:    0.00 PKD
ROOT
HETATM    1  C   UNL     1      -6.620  16.572  68.951  1.00  0.00    -0.173 C  
HETATM    2  C   UNL     1      -6.670  16.606  67.427  1.00  0.00    -0.199 C  
ENDROOT
BRANCH   2   3
HETATM    3  C   UNL     1      -7.776  17.536  66.905  1.00  0.00    -0.217 C  
BRANCH   3   4
HETATM    4  N   UNL     1      -8.870  16.821  66.235  1.00  0.00    -0.298 N  
HETATM    5  O   UNL     1     -10.543  18.442  66.273  1.00  0.00    -0.395 OA 
HETATM    6  C   UNL     1      -8.832  15.391  66.060  1.00  0.00    -0.062 C  
HETATM    7  C   UNL     1     -10.141  17.322  65.999  1.00  0.00    -0.262 C  
HETATM    8  C   UNL     1     -10.990  16.200  65.451  1.00  0.00    -0.235 C  
HETATM    9  C   UNL     1      -9.957  15.145  65.078  1.00  0.00    -0.178 C  
ENDBRANCH   3   4
BRANCH   3  10
HETATM   10  C   UNL     1      -7.210  18.650  66.004  1.00  0.00    -0.257 C  
HETATM   11  H2  UNL     1      -8.235  20.130  67.065  1.00  0.00     0.000 HD 
HETATM   12  N   UNL     1      -7.601  19.925  66.292  1.00  0.00    -0.297 N  
HETATM   13  O   UNL     1      -6.472  18.423  65.049  1.00  0.00    -0.436 OA 
HETATM   14  H1  UNL     1      -7.227  20.663  65.696  1.00  0.00     0.000 HD 
ENDBRANCH   3  10
ENDBRANCH   2   3
TORSDOF 3
ENDMDL
MODEL      162
REMARK 921   NORMALIZED FREE ENERGY PREDICTED BY IDOCK:   -2.55 KCAL/MOL
REMARK 922        TOTAL FREE ENERGY PREDICTED BY IDOCK:   -3.36 KCAL/MOL
REMARK 923 INTER-LIGAND FREE ENERGY PREDICTED BY IDOCK:   -3.09 KCAL/MOL
REMARK 924 INTRA-LIGAND FREE ENERGY PREDICTED BY IDOCK:   -0.27 KCAL/MOL
REMARK 927      BINDING AFFINITY PREDICTED BY RF-SCORE:    0.00 PKD
ROOT
HETATM    1  C   UNL     1     -11.341   6.122  71.696  1.00  0.00    -0.341 C  
HETATM    2  C   UNL     1     -10.753   6.519  70.347  1.00  0.00    -0.306 C  
ENDROOT
BRANCH   2   3
HETATM    3  C   UNL     1     -11.115   7.961  69.959  1.00  0.00    -0.162 C  
BRANCH   3   4
HETATM    4  N   UNL     1     -10.608   8.355  68.639  1.00  0.00    -0.163 N  
HETATM    5  O   UNL     1     -11.390  10.546  68.503  1.00  0.00    -0.272 OA 
HETATM    6  C   UNL     1     -10.145   7.372  67.692  1.00  0.00    -0.186 C  
HETATM    7  C   UNL     1     -10.803   9.585  68.029  1.00  0.00    -0.168 C  
HETATM    8  C   UNL     1     -10.270   9.498  66.620  1.00  0.00    -0.310 C  
HETATM    9  C   UNL     1      -9.445   8.217  66.649  1.00  0.00    -0.274 C  
ENDBRANCH   3   4
BRANCH   3  10
HETATM   10  C   UNL     1     -10.683   8.971  71.040  1.00  0.00    -0.269 C  
HETATM   11  H2  UNL     1     -12.648   9.626  71.318  1.00  0.00     0.000 HD 
HETATM   12  N   UNL     1     -11.672   9.725  71.600  1.00  0.00    -0.373 N  
HETATM   13  O   UNL     1      -9.511   9.129  71.372  1.00  0.00    -0.267 OA 
HETATM   14  H1  UNL     1     -11.386  10.394  72.315  1.00  0.00     0.000 HD 
ENDBRANCH   3  10
ENDBRANCH   2   3
TORSDOF 3
ENDMDL
MODEL      163
REMARK 921   NORMALIZED FREE ENERGY PREDICTED BY IDOCK:   -2.55 KCAL/MOL
REMARK 922        TOTAL FREE ENERGY PREDICTED BY IDOCK:   -3.35 KCAL/MOL
REMARK 923 INTER-LIGAND FREE ENERGY PREDICTED BY IDOCK:   -3.05 KCAL/MOL
REMARK 924 INTRA-LIGAND FREE ENERGY PREDICTED BY IDOCK:   -0.30 KCAL/MOL
REMARK 927      BINDING AFFINITY PREDICTED BY RF-SCORE:    0.00 PKD
ROOT
HETATM    1  C   UNL     1      -9.095   8.459  72.893  1.00  0.00    -0.282 C  
HETATM    2  C   UNL     1     -10.305   7.596  72.556  1.00  0.00    -0.310 C  
ENDROOT
BRANCH   2   3
HETATM    3  C   UNL     1      -9.910   6.309  71.817  1.00  0.00    -0.163 C  
BRANCH   3   4
HETATM    4  N   UNL     1     -10.099   6.390  70.363  1.00  0.00    -0.183 N  
HETATM    5  O   UNL     1      -8.046   7.275  69.702  1.00  0.00    -0.124 OA 
HETATM    6  C   UNL     1     -11.409   6.290  69.772  1.00  0.00    -0.436 C  
HETATM    7  C   UNL     1      -9.173   6.875  69.451  1.00  0.00    -0.147 C  
HETATM    8  C   UNL     1      -9.841   6.942  68.098  1.00  0.00    -0.145 C  
HETATM    9  C   UNL     1     -11.099   6.108  68.301  1.00  0.00    -0.336 C  
ENDBRANCH   3   4
BRANCH   3  10
HETATM   10  C   UNL     1     -10.622   5.072  72.398  1.00  0.00    -0.215 C  
HETATM   11  H2  UNL     1     -12.127   6.247  73.249  1.00  0.00     0.000 HD 
HETATM   12  N   UNL     1     -11.764   5.303  73.109  1.00  0.00    -0.535 N  
HETATM   13  O   UNL     1     -10.186   3.932  72.268  1.00  0.00    -0.178 OA 
HETATM   14  H1  UNL     1     -12.235   4.485  73.494  1.00  0.00     0.000 HD 
ENDBRANCH   3  10
ENDBRANCH   2   3
TORSDOF 3
ENDMDL
MODEL      164
REMARK 921   NORMALIZED FREE ENERGY PREDICTED BY IDOCK:   -2.54 KCAL/MOL
REMARK 922        TOTAL FREE ENERGY PREDICTED BY IDOCK:   -3.34 KCAL/MOL
REMARK 923 INTER-LIGAND FREE ENERGY PREDICTED BY IDOCK:   -3.28 KCAL/MOL
REMARK 924 INTRA-LIGAND FREE ENERGY PREDICTED BY IDOCK:   -0.07 KCAL/MOL
REMARK 927      BINDING AFFINITY PREDICTED BY RF-SCORE:    0.00 PKD
ROOT
HETATM    1  C   UNL     1      -7.805  17.024  65.990  1.00  0.00    -0.167 C  
HETATM    2  C   UNL     1      -8.846  17.714  66.864  1.00  0.00    -0.260 C  
ENDROOT
BRANCH   2   3
HETATM    3  C   UNL     1      -8.403  19.122  67.291  1.00  0.00    -0.277 C  
BRANCH   3   4
HETATM    4  N   UNL     1      -7.393  19.116  68.357  1.00  0.00    -0.285 N  
HETATM    5  O   UNL     1      -6.370  21.181  68.004  1.00  0.00    -0.344 OA 
HETATM    6  C   UNL     1      -7.036  17.900  69.043  1.00  0.00    -0.228 C  
HETATM    7  C   UNL     1      -6.469  20.121  68.604  1.00  0.00    -0.306 C  
HETATM    8  C   UNL     1      -5.517  19.629  69.667  1.00  0.00    -0.241 C  
HETATM    9  C   UNL     1      -6.235  18.406  70.224  1.00  0.00     0.102 C  
ENDBRANCH   3   4
BRANCH   3  10
HETATM   10  C   UNL     1      -9.603  20.010  67.672  1.00  0.00    -0.389 C  
HETATM   11  H2  UNL     1      -9.563  20.983  65.823  1.00  0.00     0.000 HD 
HETATM   12  N   UNL     1     -10.021  20.906  66.732  1.00  0.00    -0.438 N  
HETATM   13  O   UNL     1     -10.149  19.956  68.771  1.00  0.00    -0.442 OA 
HETATM   14  H1  UNL     1     -10.815  21.494  66.983  1.00  0.00     0.000 HD 
ENDBRANCH   3  10
ENDBRANCH   2   3
TORSDOF 3
ENDMDL
MODEL      165
REMARK 921   NORMALIZED FREE ENERGY PREDICTED BY IDOCK:   -2.52 KCAL/MOL
REMARK 922        TOTAL FREE ENERGY PREDICTED BY IDOCK:   -3.33 KCAL/MOL
REMARK 923 INTER-LIGAND FREE ENERGY PREDICTED BY IDOCK:   -3.08 KCAL/MOL
REMARK 924 INTRA-LIGAND FREE ENERGY PREDICTED BY IDOCK:   -0.24 KCAL/MOL
REMARK 927      BINDING AFFINITY PREDICTED BY RF-SCORE:    0.00 PKD
ROOT
HETATM    1  C   UNL     1      -8.001  13.075  67.331  1.00  0.00    -0.173 C  
HETATM    2  C   UNL     1      -8.511  11.753  66.771  1.00  0.00    -0.177 C  
ENDROOT
BRANCH   2   3
HETATM    3  C   UNL     1      -9.921  11.414  67.279  1.00  0.00    -0.194 C  
BRANCH   3   4
HETATM    4  N   UNL     1     -10.096   9.995  67.612  1.00  0.00    -0.179 N  
HETATM    5  O   UNL     1      -9.842   9.016  65.512  1.00  0.00    -0.159 OA 
HETATM    6  C   UNL     1     -10.669   9.587  68.870  1.00  0.00    -0.195 C  
HETATM    7  C   UNL     1     -10.060   8.940  66.712  1.00  0.00    -0.280 C  
HETATM    8  C   UNL     1     -10.462   7.685  67.447  1.00  0.00    -0.367 C  
HETATM    9  C   UNL     1     -10.367   8.105  68.909  1.00  0.00    -0.225 C  
ENDBRANCH   3   4
BRANCH   3  10
HETATM   10  C   UNL     1     -11.013  11.891  66.301  1.00  0.00    -0.302 C  
HETATM   11  H2  UNL     1      -9.631  12.105  64.748  1.00  0.00     0.000 HD 
HETATM   12  N   UNL     1     -10.607  12.192  65.033  1.00  0.00    -0.280 N  
HETATM   13  O   UNL     1     -12.187  12.033  66.633  1.00  0.00    -0.550 OA 
HETATM   14  H1  UNL     1     -11.329  12.507  64.387  1.00  0.00     0.000 HD 
ENDBRANCH   3  10
ENDBRANCH   2   3
TORSDOF 3
ENDMDL
MODEL      166
REMARK 921   NORMALIZED FREE ENERGY PREDICTED BY IDOCK:   -2.52 KCAL/MOL
REMARK 922        TOTAL FREE ENERGY PREDICTED BY IDOCK:   -3.32 KCAL/MOL
REMARK 923 INTER-LIGAND FREE ENERGY PREDICTED BY IDOCK:   -3.23 KCAL/MOL
REMARK 924 INTRA-LIGAND FREE ENERGY PREDICTED BY IDOCK:   -0.09 KCAL/MOL
REMARK 927      BINDING AFFINITY PREDICTED BY RF-SCORE:    0.00 PKD
ROOT
HETATM    1  C   UNL     1     -10.427  15.790  69.747  1.00  0.00    -0.318 C  
HETATM    2  C   UNL     1      -9.636  16.003  68.461  1.00  0.00    -0.215 C  
ENDROOT
BRANCH   2   3
HETATM    3  C   UNL     1      -8.454  16.964  68.661  1.00  0.00    -0.260 C  
BRANCH   3   4
HETATM    4  N   UNL     1      -8.630  18.254  67.980  1.00  0.00    -0.263 N  
HETATM    5  O   UNL     1     -10.405  19.153  69.193  1.00  0.00    -0.218 OA 
HETATM    6  C   UNL     1      -8.039  18.505  66.690  1.00  0.00    -0.264 C  
HETATM    7  C   UNL     1      -9.585  19.210  68.289  1.00  0.00    -0.356 C  
HETATM    8  C   UNL     1      -9.524  20.289  67.235  1.00  0.00    -0.557 C  
HETATM    9  C   UNL     1      -8.202  20.001  66.534  1.00  0.00    -0.347 C  
ENDBRANCH   3   4
BRANCH   3  10
HETATM   10  C   UNL     1      -7.113  16.313  68.273  1.00  0.00    -0.136 C  
HETATM   11  H2  UNL     1      -8.076  14.681  67.391  1.00  0.00     0.000 HD 
HETATM   12  N   UNL     1      -7.182  15.119  67.615  1.00  0.00    -0.168 N  
HETATM   13  O   UNL     1      -6.026  16.807  68.560  1.00  0.00    -0.127 OA 
HETATM   14  H1  UNL     1      -6.295  14.688  67.359  1.00  0.00     0.000 HD 
ENDBRANCH   3  10
ENDBRANCH   2   3
TORSDOF 3
ENDMDL
MODEL      167
REMARK 921   NORMALIZED FREE ENERGY PREDICTED BY IDOCK:   -2.51 KCAL/MOL
REMARK 922        TOTAL FREE ENERGY PREDICTED BY IDOCK:   -3.31 KCAL/MOL
REMARK 923 INTER-LIGAND FREE ENERGY PREDICTED BY IDOCK:   -3.38 KCAL/MOL
REMARK 924 INTRA-LIGAND FREE ENERGY PREDICTED BY IDOCK:    0.07 KCAL/MOL
REMARK 927      BINDING AFFINITY PREDICTED BY RF-SCORE:    0.00 PKD
ROOT
HETATM    1  C   UNL     1     -11.386  15.469  68.366  1.00  0.00    -0.357 C  
HETATM    2  C   UNL     1     -11.940  14.079  68.075  1.00  0.00    -0.386 C  
ENDROOT
BRANCH   2   3
HETATM    3  C   UNL     1     -10.859  13.125  67.544  1.00  0.00    -0.255 C  
BRANCH   3   4
HETATM    4  N   UNL     1     -10.849  11.822  68.219  1.00  0.00    -0.208 N  
HETATM    5  O   UNL     1      -9.982  10.461  66.537  1.00  0.00    -0.200 OA 
HETATM    6  C   UNL     1     -11.596  11.602  69.432  1.00  0.00    -0.327 C  
HETATM    7  C   UNL     1     -10.435  10.622  67.660  1.00  0.00    -0.227 C  
HETATM    8  C   UNL     1     -10.757   9.516  68.637  1.00  0.00    -0.218 C  
HETATM    9  C   UNL     1     -11.053  10.277  69.923  1.00  0.00    -0.362 C  
ENDBRANCH   3   4
BRANCH   3  10
HETATM   10  C   UNL     1      -9.461  13.772  67.568  1.00  0.00    -0.220 C  
HETATM   11  H2  UNL     1      -9.144  13.188  69.549  1.00  0.00     0.000 HD 
HETATM   12  N   UNL     1      -8.761  13.669  68.735  1.00  0.00    -0.370 N  
HETATM   13  O   UNL     1      -8.994  14.382  66.610  1.00  0.00    -0.252 OA 
HETATM   14  H1  UNL     1      -7.836  14.097  68.751  1.00  0.00     0.000 HD 
ENDBRANCH   3  10
ENDBRANCH   2   3
TORSDOF 3
ENDMDL
MODEL      168
REMARK 921   NORMALIZED FREE ENERGY PREDICTED BY IDOCK:   -2.50 KCAL/MOL
REMARK 922        TOTAL FREE ENERGY PREDICTED BY IDOCK:   -3.30 KCAL/MOL
REMARK 923 INTER-LIGAND FREE ENERGY PREDICTED BY IDOCK:   -3.23 KCAL/MOL
REMARK 924 INTRA-LIGAND FREE ENERGY PREDICTED BY IDOCK:   -0.07 KCAL/MOL
REMARK 927      BINDING AFFINITY PREDICTED BY RF-SCORE:    0.00 PKD
ROOT
HETATM    1  C   UNL     1      -6.113  16.867  69.584  1.00  0.00    -0.225 C  
HETATM    2  C   UNL     1      -7.049  15.934  68.825  1.00  0.00    -0.138 C  
ENDROOT
BRANCH   2   3
HETATM    3  C   UNL     1      -8.181  16.696  68.119  1.00  0.00    -0.192 C  
BRANCH   3   4
HETATM    4  N   UNL     1      -9.487  16.034  68.228  1.00  0.00    -0.204 N  
HETATM    5  O   UNL     1     -10.903  17.878  68.384  1.00  0.00    -0.239 OA 
HETATM    6  C   UNL     1      -9.590  14.633  68.547  1.00  0.00    -0.221 C  
HETATM    7  C   UNL     1     -10.710  16.672  68.367  1.00  0.00    -0.353 C  
HETATM    8  C   UNL     1     -11.760  15.617  68.620  1.00  0.00    -0.364 C  
HETATM    9  C   UNL     1     -11.042  14.328  68.245  1.00  0.00    -0.276 C  
ENDBRANCH   3   4
BRANCH   3  10
HETATM   10  C   UNL     1      -7.837  17.001  66.648  1.00  0.00    -0.264 C  
HETATM   11  H2  UNL     1      -5.851  17.443  67.127  1.00  0.00     0.000 HD 
HETATM   12  N   UNL     1      -6.550  17.372  66.387  1.00  0.00    -0.237 N  
HETATM   13  O   UNL     1      -8.669  16.951  65.746  1.00  0.00    -0.512 OA 
HETATM   14  H1  UNL     1      -6.322  17.573  65.413  1.00  0.00     0.000 HD 
ENDBRANCH   3  10
ENDBRANCH   2   3
TORSDOF 3
ENDMDL
MODEL      169
REMARK 921   NORMALIZED FREE ENERGY PREDICTED BY IDOCK:   -2.49 KCAL/MOL
REMARK 922        TOTAL FREE ENERGY PREDICTED BY IDOCK:   -3.29 KCAL/MOL
REMARK 923 INTER-LIGAND FREE ENERGY PREDICTED BY IDOCK:   -3.17 KCAL/MOL
REMARK 924 INTRA-LIGAND FREE ENERGY PREDICTED BY IDOCK:   -0.12 KCAL/MOL
REMARK 927      BINDING AFFINITY PREDICTED BY RF-SCORE:    0.00 PKD
ROOT
HETATM    1  C   UNL     1     -10.241   8.307  66.923  1.00  0.00    -0.388 C  
HETATM    2  C   UNL     1     -10.632   9.013  68.217  1.00  0.00    -0.213 C  
ENDROOT
BRANCH   2   3
HETATM    3  C   UNL     1      -9.746   8.589  69.398  1.00  0.00    -0.177 C  
BRANCH   3   4
HETATM    4  N   UNL     1      -9.835   7.157  69.709  1.00  0.00    -0.172 N  
HETATM    5  O   UNL     1     -11.922   7.060  70.743  1.00  0.00    -0.349 OA 
HETATM    6  C   UNL     1      -8.670   6.309  69.672  1.00  0.00    -0.136 C  
HETATM    7  C   UNL     1     -10.889   6.532  70.359  1.00  0.00    -0.273 C  
HETATM    8  C   UNL     1     -10.490   5.101  70.627  1.00  0.00    -0.269 C  
HETATM    9  C   UNL     1      -9.266   4.920  69.738  1.00  0.00    -0.175 C  
ENDBRANCH   3   4
BRANCH   3  10
HETATM   10  C   UNL     1     -10.013   9.444  70.652  1.00  0.00    -0.284 C  
HETATM   11  H2  UNL     1     -11.381  10.648  69.629  1.00  0.00     0.000 HD 
HETATM   12  N   UNL     1     -10.911  10.463  70.516  1.00  0.00    -0.429 N  
HETATM   13  O   UNL     1      -9.435   9.258  71.719  1.00  0.00    -0.302 OA 
HETATM   14  H1  UNL     1     -11.087  11.029  71.345  1.00  0.00     0.000 HD 
ENDBRANCH   3  10
ENDBRANCH   2   3
TORSDOF 3
ENDMDL
MODEL      170
REMARK 921   NORMALIZED FREE ENERGY PREDICTED BY IDOCK:   -2.49 KCAL/MOL
REMARK 922        TOTAL FREE ENERGY PREDICTED BY IDOCK:   -3.29 KCAL/MOL
REMARK 923 INTER-LIGAND FREE ENERGY PREDICTED BY IDOCK:   -3.03 KCAL/MOL
REMARK 924 INTRA-LIGAND FREE ENERGY PREDICTED BY IDOCK:   -0.25 KCAL/MOL
REMARK 927      BINDING AFFINITY PREDICTED BY RF-SCORE:    0.00 PKD
ROOT
HETATM    1  C   UNL     1      -6.429  11.364  66.651  1.00  0.00    -0.117 C  
HETATM    2  C   UNL     1      -7.902  11.605  66.961  1.00  0.00    -0.164 C  
ENDROOT
BRANCH   2   3
HETATM    3  C   UNL     1      -8.827  10.757  66.074  1.00  0.00    -0.180 C  
BRANCH   3   4
HETATM    4  N   UNL     1      -9.888  11.537  65.424  1.00  0.00    -0.229 N  
HETATM    5  O   UNL     1      -9.950  10.531  63.323  1.00  0.00    -0.302 OA 
HETATM    6  C   UNL     1     -10.336  12.792  65.973  1.00  0.00    -0.276 C  
HETATM    7  C   UNL     1     -10.336  11.370  64.122  1.00  0.00    -0.344 C  
HETATM    8  C   UNL     1     -11.301  12.489  63.814  1.00  0.00    -0.534 C  
HETATM    9  C   UNL     1     -11.604  13.064  65.192  1.00  0.00    -0.357 C  
ENDBRANCH   3   4
BRANCH   3  10
HETATM   10  C   UNL     1      -9.414   9.557  66.840  1.00  0.00    -0.158 C  
HETATM   11  H2  UNL     1      -7.513   8.776  67.222  1.00  0.00     0.000 HD 
HETATM   12  N   UNL     1      -8.519   8.659  67.345  1.00  0.00    -0.122 N  
HETATM   13  O   UNL     1     -10.622   9.379  66.973  1.00  0.00    -0.251 OA 
HETATM   14  H1  UNL     1      -8.908   7.864  67.852  1.00  0.00     0.000 HD 
ENDBRANCH   3  10
ENDBRANCH   2   3
TORSDOF 3
ENDMDL
MODEL      171
REMARK 921   NORMALIZED FREE ENERGY PREDICTED BY IDOCK:   -2.48 KCAL/MOL
REMARK 922        TOTAL FREE ENERGY PREDICTED BY IDOCK:   -3.28 KCAL/MOL
REMARK 923 INTER-LIGAND FREE ENERGY PREDICTED BY IDOCK:   -3.08 KCAL/MOL
REMARK 924 INTRA-LIGAND FREE ENERGY PREDICTED BY IDOCK:   -0.19 KCAL/MOL
REMARK 927      BINDING AFFINITY PREDICTED BY RF-SCORE:    0.00 PKD
ROOT
HETATM    1  C   UNL     1      -9.605  11.111  67.059  1.00  0.00    -0.201 C  
HETATM    2  C   UNL     1     -10.748  10.272  67.618  1.00  0.00    -0.339 C  
ENDROOT
BRANCH   2   3
HETATM    3  C   UNL     1     -10.322   9.460  68.851  1.00  0.00    -0.213 C  
BRANCH   3   4
HETATM    4  N   UNL     1     -10.312   8.010  68.618  1.00  0.00    -0.207 N  
HETATM    5  O   UNL     1      -9.044   7.282  70.434  1.00  0.00    -0.154 OA 
HETATM    6  C   UNL     1     -10.687   7.454  67.343  1.00  0.00    -0.278 C  
HETATM    7  C   UNL     1      -9.669   7.067  69.407  1.00  0.00    -0.159 C  
HETATM    8  C   UNL     1      -9.768   5.731  68.710  1.00  0.00    -0.168 C  
HETATM    9  C   UNL     1     -10.835   5.980  67.651  1.00  0.00    -0.386 C  
ENDBRANCH   3   4
BRANCH   3  10
HETATM   10  C   UNL     1     -11.164   9.814  70.091  1.00  0.00    -0.272 C  
HETATM   11  H2  UNL     1     -12.901  10.011  68.947  1.00  0.00     0.000 HD 
HETATM   12  N   UNL     1     -12.489  10.060  69.879  1.00  0.00    -0.464 N  
HETATM   13  O   UNL     1     -10.682   9.910  71.217  1.00  0.00    -0.240 OA 
HETATM   14  H1  UNL     1     -13.046  10.295  70.700  1.00  0.00     0.000 HD 
ENDBRANCH   3  10
ENDBRANCH   2   3
TORSDOF 3
ENDMDL
MODEL      172
REMARK 921   NORMALIZED FREE ENERGY PREDICTED BY IDOCK:   -2.47 KCAL/MOL
REMARK 922        TOTAL FREE ENERGY PREDICTED BY IDOCK:   -3.27 KCAL/MOL
REMARK 923 INTER-LIGAND FREE ENERGY PREDICTED BY IDOCK:   -2.92 KCAL/MOL
REMARK 924 INTRA-LIGAND FREE ENERGY PREDICTED BY IDOCK:   -0.35 KCAL/MOL
REMARK 927      BINDING AFFINITY PREDICTED BY RF-SCORE:    0.00 PKD
ROOT
HETATM    1  C   UNL     1      -7.642  15.647  68.657  1.00  0.00    -0.143 C  
HETATM    2  C   UNL     1      -7.636  14.130  68.811  1.00  0.00    -0.125 C  
ENDROOT
BRANCH   2   3
HETATM    3  C   UNL     1      -8.213  13.421  67.576  1.00  0.00    -0.185 C  
BRANCH   3   4
HETATM    4  N   UNL     1      -9.545  13.906  67.195  1.00  0.00    -0.239 N  
HETATM    5  O   UNL     1     -10.853  12.977  68.886  1.00  0.00    -0.246 OA 
HETATM    6  C   UNL     1      -9.798  14.441  65.880  1.00  0.00    -0.310 C  
HETATM    7  C   UNL     1     -10.730  13.631  67.861  1.00  0.00    -0.247 C  
HETATM    8  C   UNL     1     -11.869  14.176  67.033  1.00  0.00    -0.458 C  
HETATM    9  C   UNL     1     -11.158  15.086  66.039  1.00  0.00    -0.329 C  
ENDBRANCH   3   4
BRANCH   3  10
HETATM   10  C   UNL     1      -8.209  11.889  67.740  1.00  0.00    -0.148 C  
HETATM   11  H2  UNL     1      -8.025  12.038  69.816  1.00  0.00     0.000 HD 
HETATM   12  N   UNL     1      -8.100  11.412  69.014  1.00  0.00    -0.344 N  
HETATM   13  O   UNL     1      -8.266  11.118  66.786  1.00  0.00    -0.142 OA 
HETATM   14  H1  UNL     1      -8.097  10.399  69.122  1.00  0.00     0.000 HD 
ENDBRANCH   3  10
ENDBRANCH   2   3
TORSDOF 3
ENDMDL
MODEL      173
REMARK 921   NORMALIZED FREE ENERGY PREDICTED BY IDOCK:   -2.47 KCAL/MOL
REMARK 922        TOTAL FREE ENERGY PREDICTED BY IDOCK:   -3.26 KCAL/MOL
REMARK 923 INTER-LIGAND FREE ENERGY PREDICTED BY IDOCK:   -3.78 KCAL/MOL
REMARK 924 INTRA-LIGAND FREE ENERGY PREDICTED BY IDOCK:    0.52 KCAL/MOL
REMARK 927      BINDING AFFINITY PREDICTED BY RF-SCORE:    0.00 PKD
ROOT
HETATM    1  C   UNL     1     -10.001   8.669  67.991  1.00  0.00    -0.221 C  
HETATM    2  C   UNL     1     -10.586   9.101  66.652  1.00  0.00    -0.157 C  
ENDROOT
BRANCH   2   3
HETATM    3  C   UNL     1      -9.850  10.315  66.064  1.00  0.00    -0.233 C  
BRANCH   3   4
HETATM    4  N   UNL     1     -10.736  11.246  65.354  1.00  0.00    -0.257 N  
HETATM    5  O   UNL     1     -10.142  10.818  63.141  1.00  0.00    -0.319 OA 
HETATM    6  C   UNL     1     -11.402  12.321  66.046  1.00  0.00    -0.350 C  
HETATM    7  C   UNL     1     -10.790  11.426  63.980  1.00  0.00    -0.383 C  
HETATM    8  C   UNL     1     -11.702  12.595  63.697  1.00  0.00    -0.597 C  
HETATM    9  C   UNL     1     -12.416  12.797  65.028  1.00  0.00    -0.572 C  
ENDBRANCH   3   4
BRANCH   3  10
HETATM   10  C   UNL     1      -8.665   9.893  65.174  1.00  0.00    -0.165 C  
HETATM   11  H2  UNL     1      -7.773  11.775  65.341  1.00  0.00     0.000 HD 
HETATM   12  N   UNL     1      -7.708  10.838  64.944  1.00  0.00    -0.354 N  
HETATM   13  O   UNL     1      -8.583   8.780  64.661  1.00  0.00    -0.169 OA 
HETATM   14  H1  UNL     1      -6.924  10.558  64.355  1.00  0.00     0.000 HD 
ENDBRANCH   3  10
ENDBRANCH   2   3
TORSDOF 3
ENDMDL
MODEL      174
REMARK 921   NORMALIZED FREE ENERGY PREDICTED BY IDOCK:   -2.46 KCAL/MOL
REMARK 922        TOTAL FREE ENERGY PREDICTED BY IDOCK:   -3.25 KCAL/MOL
REMARK 923 INTER-LIGAND FREE ENERGY PREDICTED BY IDOCK:   -3.11 KCAL/MOL
REMARK 924 INTRA-LIGAND FREE ENERGY PREDICTED BY IDOCK:   -0.15 KCAL/MOL
REMARK 927      BINDING AFFINITY PREDICTED BY RF-SCORE:    0.00 PKD
ROOT
HETATM    1  C   UNL     1      -7.986  16.146  66.609  1.00  0.00    -0.305 C  
HETATM    2  C   UNL     1      -9.150  15.692  65.737  1.00  0.00    -0.157 C  
ENDROOT
BRANCH   2   3
HETATM    3  C   UNL     1     -10.213  14.928  66.541  1.00  0.00    -0.275 C  
BRANCH   3   4
HETATM    4  N   UNL     1      -9.732  13.648  67.075  1.00  0.00    -0.244 N  
HETATM    5  O   UNL     1      -8.964  14.309  69.174  1.00  0.00    -0.009 OA 
HETATM    6  C   UNL     1      -9.512  12.514  66.214  1.00  0.00    -0.210 C  
HETATM    7  C   UNL     1      -9.143  13.458  68.316  1.00  0.00    -0.181 C  
HETATM    8  C   UNL     1      -8.644  12.035  68.382  1.00  0.00    -0.147 C  
HETATM    9  C   UNL     1      -9.341  11.376  67.198  1.00  0.00    -0.180 C  
ENDBRANCH   3   4
BRANCH   3  10
HETATM   10  C   UNL     1     -11.513  14.737  65.736  1.00  0.00    -0.322 C  
HETATM   11  H2  UNL     1     -10.630  15.476  63.992  1.00  0.00     0.000 HD 
HETATM   12  N   UNL     1     -11.476  15.099  64.421  1.00  0.00    -0.660 N  
HETATM   13  O   UNL     1     -12.551  14.315  66.239  1.00  0.00    -0.416 OA 
HETATM   14  H1  UNL     1     -12.336  14.973  63.889  1.00  0.00     0.000 HD 
ENDBRANCH   3  10
ENDBRANCH   2   3
TORSDOF 3
ENDMDL
MODEL      175
REMARK 921   NORMALIZED FREE ENERGY PREDICTED BY IDOCK:   -2.46 KCAL/MOL
REMARK 922        TOTAL FREE ENERGY PREDICTED BY IDOCK:   -3.25 KCAL/MOL
REMARK 923 INTER-LIGAND FREE ENERGY PREDICTED BY IDOCK:   -3.21 KCAL/MOL
REMARK 924 INTRA-LIGAND FREE ENERGY PREDICTED BY IDOCK:   -0.04 KCAL/MOL
REMARK 927      BINDING AFFINITY PREDICTED BY RF-SCORE:    0.00 PKD
ROOT
HETATM    1  C   UNL     1     -11.121   6.264  68.189  1.00  0.00    -0.364 C  
HETATM    2  C   UNL     1     -11.022   6.016  69.690  1.00  0.00    -0.470 C  
ENDROOT
BRANCH   2   3
HETATM    3  C   UNL     1     -10.936   7.325  70.489  1.00  0.00    -0.260 C  
BRANCH   3   4
HETATM    4  N   UNL     1      -9.710   7.441  71.288  1.00  0.00    -0.165 N  
HETATM    5  O   UNL     1      -9.715   5.394  72.402  1.00  0.00    -0.153 OA 
HETATM    6  C   UNL     1      -9.065   8.714  71.488  1.00  0.00    -0.239 C  
HETATM    7  C   UNL     1      -9.225   6.489  72.173  1.00  0.00    -0.139 C  
HETATM    8  C   UNL     1      -8.049   7.088  72.905  1.00  0.00    -0.117 C  
HETATM    9  C   UNL     1      -7.725   8.322  72.071  1.00  0.00    -0.153 C  
ENDBRANCH   3   4
BRANCH   3  10
HETATM   10  C   UNL     1     -12.187   7.549  71.361  1.00  0.00    -0.335 C  
HETATM   11  H2  UNL     1     -11.878   5.758  72.393  1.00  0.00     0.000 HD 
HETATM   12  N   UNL     1     -12.467   6.584  72.285  1.00  0.00    -0.549 N  
HETATM   13  O   UNL     1     -12.927   8.520  71.227  1.00  0.00    -0.268 OA 
HETATM   14  H1  UNL     1     -13.294   6.732  72.862  1.00  0.00     0.000 HD 
ENDBRANCH   3  10
ENDBRANCH   2   3
TORSDOF 3
ENDMDL
MODEL      176
REMARK 921   NORMALIZED FREE ENERGY PREDICTED BY IDOCK:   -2.45 KCAL/MOL
REMARK 922        TOTAL FREE ENERGY PREDICTED BY IDOCK:   -3.24 KCAL/MOL
REMARK 923 INTER-LIGAND FREE ENERGY PREDICTED BY IDOCK:   -3.12 KCAL/MOL
REMARK 924 INTRA-LIGAND FREE ENERGY PREDICTED BY IDOCK:   -0.12 KCAL/MOL
REMARK 927      BINDING AFFINITY PREDICTED BY RF-SCORE:    0.00 PKD
ROOT
HETATM    1  C   UNL     1      -9.323   6.757  67.342  1.00  0.00    -0.140 C  
HETATM    2  C   UNL     1      -9.797   7.990  66.582  1.00  0.00    -0.322 C  
ENDROOT
BRANCH   2   3
HETATM    3  C   UNL     1     -10.396   9.053  67.516  1.00  0.00    -0.264 C  
BRANCH   3   4
HETATM    4  N   UNL     1     -10.417  10.399  66.931  1.00  0.00    -0.243 N  
HETATM    5  O   UNL     1     -12.162  11.373  68.130  1.00  0.00    -0.602 OA 
HETATM    6  C   UNL     1      -9.740  10.687  65.692  1.00  0.00    -0.230 C  
HETATM    7  C   UNL     1     -11.295  11.417  67.271  1.00  0.00    -0.275 C  
HETATM    8  C   UNL     1     -11.081  12.559  66.307  1.00  0.00    -0.336 C  
HETATM    9  C   UNL     1      -9.757  12.199  65.646  1.00  0.00    -0.223 C  
ENDBRANCH   3   4
BRANCH   3  10
HETATM   10  C   UNL     1      -9.705   9.060  68.893  1.00  0.00    -0.163 C  
HETATM   11  H2  UNL     1      -8.072  10.132  68.151  1.00  0.00     0.000 HD 
HETATM   12  N   UNL     1      -8.496   9.689  68.967  1.00  0.00    -0.125 N  
HETATM   13  O   UNL     1     -10.182   8.505  69.880  1.00  0.00    -0.194 OA 
HETATM   14  H1  UNL     1      -8.039   9.693  69.878  1.00  0.00     0.000 HD 
ENDBRANCH   3  10
ENDBRANCH   2   3
TORSDOF 3
ENDMDL
MODEL      177
REMARK 921   NORMALIZED FREE ENERGY PREDICTED BY IDOCK:   -2.45 KCAL/MOL
REMARK 922        TOTAL FREE ENERGY PREDICTED BY IDOCK:   -3.24 KCAL/MOL
REMARK 923 INTER-LIGAND FREE ENERGY PREDICTED BY IDOCK:   -3.45 KCAL/MOL
REMARK 924 INTRA-LIGAND FREE ENERGY PREDICTED BY IDOCK:    0.21 KCAL/MOL
REMARK 927      BINDING AFFINITY PREDICTED BY RF-SCORE:    0.00 PKD
ROOT
HETATM    1  C   UNL     1      -8.805   6.681  73.697  1.00  0.00    -0.143 C  
HETATM    2  C   UNL     1     -10.286   6.933  73.435  1.00  0.00    -0.314 C  
ENDROOT
BRANCH   2   3
HETATM    3  C   UNL     1     -10.521   8.215  72.622  1.00  0.00    -0.330 C  
BRANCH   3   4
HETATM    4  N   UNL     1     -11.926   8.421  72.251  1.00  0.00    -0.373 N  
HETATM    5  O   UNL     1     -12.646   6.217  72.016  1.00  0.00    -0.269 OA 
HETATM    6  C   UNL     1     -12.402   9.707  71.807  1.00  0.00    -0.392 C  
HETATM    7  C   UNL     1     -12.845   7.421  71.967  1.00  0.00    -0.186 C  
HETATM    8  C   UNL     1     -14.108   8.077  71.463  1.00  0.00    -0.475 C  
HETATM    9  C   UNL     1     -13.905   9.538  71.845  1.00  0.00    -0.338 C  
ENDBRANCH   3   4
BRANCH   3  10
HETATM   10  C   UNL     1      -9.606   8.286  71.385  1.00  0.00    -0.177 C  
HETATM   11  H2  UNL     1     -10.492   6.591  70.542  1.00  0.00     0.000 HD 
HETATM   12  N   UNL     1      -9.787   7.321  70.437  1.00  0.00    -0.183 N  
HETATM   13  O   UNL     1      -8.730   9.136  71.253  1.00  0.00    -0.270 OA 
HETATM   14  H1  UNL     1      -9.182   7.367  69.618  1.00  0.00     0.000 HD 
ENDBRANCH   3  10
ENDBRANCH   2   3
TORSDOF 3
ENDMDL
MODEL      178
REMARK 921   NORMALIZED FREE ENERGY PREDICTED BY IDOCK:   -2.40 KCAL/MOL
REMARK 922        TOTAL FREE ENERGY PREDICTED BY IDOCK:   -3.18 KCAL/MOL
REMARK 923 INTER-LIGAND FREE ENERGY PREDICTED BY IDOCK:   -2.84 KCAL/MOL
REMARK 924 INTRA-LIGAND FREE ENERGY PREDICTED BY IDOCK:   -0.33 KCAL/MOL
REMARK 927      BINDING AFFINITY PREDICTED BY RF-SCORE:    0.00 PKD
ROOT
HETATM    1  C   UNL     1     -11.619  10.550  70.053  1.00  0.00    -0.392 C  
HETATM    2  C   UNL     1     -10.916  10.675  68.706  1.00  0.00    -0.292 C  
ENDROOT
BRANCH   2   3
HETATM    3  C   UNL     1     -10.676   9.308  68.048  1.00  0.00    -0.174 C  
BRANCH   3   4
HETATM    4  N   UNL     1      -9.762   8.447  68.810  1.00  0.00    -0.161 N  
HETATM    5  O   UNL     1     -11.195   6.712  69.418  1.00  0.00    -0.306 OA 
HETATM    6  C   UNL     1      -8.489   8.936  69.277  1.00  0.00    -0.121 C  
HETATM    7  C   UNL     1     -10.101   7.255  69.433  1.00  0.00    -0.183 C  
HETATM    8  C   UNL     1      -8.912   6.797  70.243  1.00  0.00    -0.152 C  
HETATM    9  C   UNL     1      -7.782   7.668  69.708  1.00  0.00    -0.098 C  
ENDBRANCH   3   4
BRANCH   3  10
HETATM   10  C   UNL     1     -10.212   9.448  66.586  1.00  0.00    -0.249 C  
HETATM   11  H2  UNL     1      -9.795   7.405  66.445  1.00  0.00     0.000 HD 
HETATM   12  N   UNL     1      -9.797   8.306  65.965  1.00  0.00    -0.468 N  
HETATM   13  O   UNL     1     -10.177  10.526  65.999  1.00  0.00    -0.248 OA 
HETATM   14  H1  UNL     1      -9.490   8.398  64.997  1.00  0.00     0.000 HD 
ENDBRANCH   3  10
ENDBRANCH   2   3
TORSDOF 3
ENDMDL
MODEL      179
REMARK 921   NORMALIZED FREE ENERGY PREDICTED BY IDOCK:   -2.40 KCAL/MOL
REMARK 922        TOTAL FREE ENERGY PREDICTED BY IDOCK:   -3.18 KCAL/MOL
REMARK 923 INTER-LIGAND FREE ENERGY PREDICTED BY IDOCK:   -2.92 KCAL/MOL
REMARK 924 INTRA-LIGAND FREE ENERGY PREDICTED BY IDOCK:   -0.26 KCAL/MOL
REMARK 927      BINDING AFFINITY PREDICTED BY RF-SCORE:    0.00 PKD
ROOT
HETATM    1  C   UNL     1      -9.612   5.908  66.621  1.00  0.00    -0.174 C  
HETATM    2  C   UNL     1     -10.603   6.439  67.651  1.00  0.00    -0.340 C  
ENDROOT
BRANCH   2   3
HETATM    3  C   UNL     1      -9.898   7.034  68.880  1.00  0.00    -0.150 C  
BRANCH   3   4
HETATM    4  N   UNL     1     -10.322   6.426  70.147  1.00  0.00    -0.190 N  
HETATM    5  O   UNL     1      -8.569   4.939  70.529  1.00  0.00    -0.103 OA 
HETATM    6  C   UNL     1     -11.675   6.559  70.624  1.00  0.00    -0.374 C  
HETATM    7  C   UNL     1      -9.641   5.435  70.839  1.00  0.00    -0.173 C  
HETATM    8  C   UNL     1     -10.514   4.982  71.984  1.00  0.00    -0.269 C  
HETATM    9  C   UNL     1     -11.574   6.074  72.055  1.00  0.00    -0.333 C  
ENDBRANCH   3   4
BRANCH   3  10
HETATM   10  C   UNL     1     -10.033   8.568  68.931  1.00  0.00    -0.190 C  
HETATM   11  H2  UNL     1     -11.790   8.526  67.800  1.00  0.00     0.000 HD 
HETATM   12  N   UNL     1     -11.109   9.108  68.289  1.00  0.00    -0.476 N  
HETATM   13  O   UNL     1      -9.209   9.290  69.486  1.00  0.00    -0.150 OA 
HETATM   14  H1  UNL     1     -11.198  10.123  68.323  1.00  0.00     0.000 HD 
ENDBRANCH   3  10
ENDBRANCH   2   3
TORSDOF 3
ENDMDL
MODEL      180
REMARK 921   NORMALIZED FREE ENERGY PREDICTED BY IDOCK:   -2.37 KCAL/MOL
REMARK 922        TOTAL FREE ENERGY PREDICTED BY IDOCK:   -3.14 KCAL/MOL
REMARK 923 INTER-LIGAND FREE ENERGY PREDICTED BY IDOCK:   -3.03 KCAL/MOL
REMARK 924 INTRA-LIGAND FREE ENERGY PREDICTED BY IDOCK:   -0.11 KCAL/MOL
REMARK 927      BINDING AFFINITY PREDICTED BY RF-SCORE:    0.00 PKD
ROOT
HETATM    1  C   UNL     1     -10.047   6.214  66.948  1.00  0.00    -0.232 C  
HETATM    2  C   UNL     1     -10.915   6.933  67.975  1.00  0.00    -0.241 C  
ENDROOT
BRANCH   2   3
HETATM    3  C   UNL     1     -10.075   7.687  69.017  1.00  0.00    -0.198 C  
BRANCH   3   4
HETATM    4  N   UNL     1     -10.385   7.307  70.401  1.00  0.00    -0.205 N  
HETATM    5  O   UNL     1     -12.171   8.732  70.860  1.00  0.00    -0.240 OA 
HETATM    6  C   UNL     1      -9.453   6.544  71.193  1.00  0.00    -0.167 C  
HETATM    7  C   UNL     1     -11.376   7.866  71.193  1.00  0.00    -0.266 C  
HETATM    8  C   UNL     1     -11.229   7.308  72.588  1.00  0.00    -0.355 C  
HETATM    9  C   UNL     1     -10.291   6.126  72.382  1.00  0.00    -0.219 C  
ENDBRANCH   3   4
BRANCH   3  10
HETATM   10  C   UNL     1     -10.165   9.214  68.831  1.00  0.00    -0.207 C  
HETATM   11  H2  UNL     1     -11.909   9.047  67.692  1.00  0.00     0.000 HD 
HETATM   12  N   UNL     1     -11.217   9.678  68.097  1.00  0.00    -0.514 N  
HETATM   13  O   UNL     1      -9.326   9.990  69.282  1.00  0.00    -0.188 OA 
HETATM   14  H1  UNL     1     -11.277  10.689  67.973  1.00  0.00     0.000 HD 
ENDBRANCH   3  10
ENDBRANCH   2   3
TORSDOF 3
ENDMDL
MODEL      181
REMARK 921   NORMALIZED FREE ENERGY PREDICTED BY IDOCK:   -2.37 KCAL/MOL
REMARK 922        TOTAL FREE ENERGY PREDICTED BY IDOCK:   -3.14 KCAL/MOL
REMARK 923 INTER-LIGAND FREE ENERGY PREDICTED BY IDOCK:   -3.14 KCAL/MOL
REMARK 924 INTRA-LIGAND FREE ENERGY PREDICTED BY IDOCK:    0.00 KCAL/MOL
REMARK 927      BINDING AFFINITY PREDICTED BY RF-SCORE:    0.00 PKD
ROOT
HETATM    1  C   UNL     1     -10.709   7.242  68.232  1.00  0.00    -0.174 C  
HETATM    2  C   UNL     1      -9.992   8.584  68.150  1.00  0.00    -0.214 C  
ENDROOT
BRANCH   2   3
HETATM    3  C   UNL     1     -10.581   9.489  67.057  1.00  0.00    -0.201 C  
BRANCH   3   4
HETATM    4  N   UNL     1      -9.740   9.577  65.857  1.00  0.00    -0.265 N  
HETATM    5  O   UNL     1     -10.980  11.064  64.559  1.00  0.00    -0.270 OA 
HETATM    6  C   UNL     1      -8.702   8.611  65.599  1.00  0.00    -0.182 C  
HETATM    7  C   UNL     1     -10.018  10.329  64.725  1.00  0.00    -0.321 C  
HETATM    8  C   UNL     1      -8.988   9.990  63.675  1.00  0.00    -0.280 C  
HETATM    9  C   UNL     1      -7.920   9.254  64.474  1.00  0.00    -0.128 C  
ENDBRANCH   3   4
BRANCH   3  10
HETATM   10  C   UNL     1     -10.922  10.892  67.596  1.00  0.00    -0.293 C  
HETATM   11  H2  UNL     1      -8.906  11.343  67.910  1.00  0.00     0.000 HD 
HETATM   12  N   UNL     1      -9.869  11.671  67.978  1.00  0.00    -0.184 N  
HETATM   13  O   UNL     1     -12.076  11.296  67.716  1.00  0.00    -0.631 OA 
HETATM   14  H1  UNL     1     -10.095  12.599  68.335  1.00  0.00     0.000 HD 
ENDBRANCH   3  10
ENDBRANCH   2   3
TORSDOF 3
ENDMDL
MODEL      182
REMARK 921   NORMALIZED FREE ENERGY PREDICTED BY IDOCK:   -2.36 KCAL/MOL
REMARK 922        TOTAL FREE ENERGY PREDICTED BY IDOCK:   -3.13 KCAL/MOL
REMARK 923 INTER-LIGAND FREE ENERGY PREDICTED BY IDOCK:   -2.82 KCAL/MOL
REMARK 924 INTRA-LIGAND FREE ENERGY PREDICTED BY IDOCK:   -0.31 KCAL/MOL
REMARK 927      BINDING AFFINITY PREDICTED BY RF-SCORE:    0.00 PKD
ROOT
HETATM    1  C   UNL     1     -11.969   8.401  72.342  1.00  0.00    -0.451 C  
HETATM    2  C   UNL     1     -11.341   9.047  71.112  1.00  0.00    -0.375 C  
ENDROOT
BRANCH   2   3
HETATM    3  C   UNL     1     -10.844   8.004  70.100  1.00  0.00    -0.242 C  
BRANCH   3   4
HETATM    4  N   UNL     1      -9.656   7.270  70.554  1.00  0.00    -0.169 N  
HETATM    5  O   UNL     1     -10.399   5.069  70.368  1.00  0.00    -0.265 OA 
HETATM    6  C   UNL     1      -8.592   7.936  71.263  1.00  0.00    -0.125 C  
HETATM    7  C   UNL     1      -9.546   5.892  70.664  1.00  0.00    -0.173 C  
HETATM    8  C   UNL     1      -8.229   5.581  71.333  1.00  0.00    -0.118 C  
HETATM    9  C   UNL     1      -7.483   6.906  71.244  1.00  0.00    -0.082 C  
ENDBRANCH   3   4
BRANCH   3  10
HETATM   10  C   UNL     1     -10.614   8.620  68.707  1.00  0.00    -0.140 C  
HETATM   11  H2  UNL     1     -11.164   6.846  67.750  1.00  0.00     0.000 HD 
HETATM   12  N   UNL     1     -10.850   7.810  67.635  1.00  0.00    -0.506 N  
HETATM   13  O   UNL     1     -10.206   9.767  68.547  1.00  0.00    -0.172 OA 
HETATM   14  H1  UNL     1     -10.697   8.218  66.713  1.00  0.00     0.000 HD 
ENDBRANCH   3  10
ENDBRANCH   2   3
TORSDOF 3
ENDMDL
MODEL      183
REMARK 921   NORMALIZED FREE ENERGY PREDICTED BY IDOCK:   -2.34 KCAL/MOL
REMARK 922        TOTAL FREE ENERGY PREDICTED BY IDOCK:   -3.11 KCAL/MOL
REMARK 923 INTER-LIGAND FREE ENERGY PREDICTED BY IDOCK:   -3.16 KCAL/MOL
REMARK 924 INTRA-LIGAND FREE ENERGY PREDICTED BY IDOCK:    0.06 KCAL/MOL
REMARK 927      BINDING AFFINITY PREDICTED BY RF-SCORE:    0.00 PKD
ROOT
HETATM    1  C   UNL     1     -11.256   5.158  72.858  1.00  0.00    -0.362 C  
HETATM    2  C   UNL     1     -10.865   5.396  71.404  1.00  0.00    -0.210 C  
ENDROOT
BRANCH   2   3
HETATM    3  C   UNL     1     -11.282   6.791  70.914  1.00  0.00    -0.292 C  
BRANCH   3   4
HETATM    4  N   UNL     1     -10.166   7.742  70.842  1.00  0.00    -0.199 N  
HETATM    5  O   UNL     1     -10.835   9.070  69.046  1.00  0.00    -0.179 OA 
HETATM    6  C   UNL     1      -8.920   7.485  71.517  1.00  0.00    -0.131 C  
HETATM    7  C   UNL     1     -10.034   8.769  69.918  1.00  0.00    -0.187 C  
HETATM    8  C   UNL     1      -8.665   9.381  70.094  1.00  0.00    -0.245 C  
HETATM    9  C   UNL     1      -8.215   8.822  71.438  1.00  0.00    -0.203 C  
ENDBRANCH   3   4
BRANCH   3  10
HETATM   10  C   UNL     1     -12.446   7.366  71.744  1.00  0.00    -0.336 C  
HETATM   11  H2  UNL     1     -11.175   8.688  72.746  1.00  0.00     0.000 HD 
HETATM   12  N   UNL     1     -12.132   8.350  72.635  1.00  0.00    -0.504 N  
HETATM   13  O   UNL     1     -13.599   6.953  71.649  1.00  0.00    -0.317 OA 
HETATM   14  H1  UNL     1     -12.901   8.731  73.184  1.00  0.00     0.000 HD 
ENDBRANCH   3  10
ENDBRANCH   2   3
TORSDOF 3
ENDMDL
MODEL      184
REMARK 921   NORMALIZED FREE ENERGY PREDICTED BY IDOCK:   -2.34 KCAL/MOL
REMARK 922        TOTAL FREE ENERGY PREDICTED BY IDOCK:   -3.11 KCAL/MOL
REMARK 923 INTER-LIGAND FREE ENERGY PREDICTED BY IDOCK:   -2.89 KCAL/MOL
REMARK 924 INTRA-LIGAND FREE ENERGY PREDICTED BY IDOCK:   -0.22 KCAL/MOL
REMARK 927      BINDING AFFINITY PREDICTED BY RF-SCORE:    0.00 PKD
ROOT
HETATM    1  C   UNL     1     -10.325  14.353  66.664  1.00  0.00    -0.275 C  
HETATM    2  C   UNL     1      -9.147  15.241  66.282  1.00  0.00    -0.337 C  
ENDROOT
BRANCH   2   3
HETATM    3  C   UNL     1      -8.276  15.602  67.495  1.00  0.00    -0.166 C  
BRANCH   3   4
HETATM    4  N   UNL     1      -7.474  16.816  67.298  1.00  0.00    -0.159 N  
HETATM    5  O   UNL     1      -6.786  17.249  69.482  1.00  0.00    -0.227 OA 
HETATM    6  C   UNL     1      -7.566  17.583  66.081  1.00  0.00    -0.285 C  
HETATM    7  C   UNL     1      -6.826  17.531  68.294  1.00  0.00    -0.200 C  
HETATM    8  C   UNL     1      -6.275  18.795  67.678  1.00  0.00    -0.199 C  
HETATM    9  C   UNL     1      -6.378  18.516  66.184  1.00  0.00    -0.234 C  
ENDBRANCH   3   4
BRANCH   3  10
HETATM   10  C   UNL     1      -7.391  14.421  67.938  1.00  0.00    -0.154 C  
HETATM   11  H2  UNL     1      -8.680  13.948  69.513  1.00  0.00     0.000 HD 
HETATM   12  N   UNL     1      -7.818  13.710  69.021  1.00  0.00    -0.332 N  
HETATM   13  O   UNL     1      -6.334  14.137  67.380  1.00  0.00    -0.324 OA 
HETATM   14  H1  UNL     1      -7.233  12.929  69.314  1.00  0.00     0.000 HD 
ENDBRANCH   3  10
ENDBRANCH   2   3
TORSDOF 3
ENDMDL
MODEL      185
REMARK 921   NORMALIZED FREE ENERGY PREDICTED BY IDOCK:   -2.33 KCAL/MOL
REMARK 922        TOTAL FREE ENERGY PREDICTED BY IDOCK:   -3.10 KCAL/MOL
REMARK 923 INTER-LIGAND FREE ENERGY PREDICTED BY IDOCK:   -2.79 KCAL/MOL
REMARK 924 INTRA-LIGAND FREE ENERGY PREDICTED BY IDOCK:   -0.30 KCAL/MOL
REMARK 927      BINDING AFFINITY PREDICTED BY RF-SCORE:    0.00 PKD
ROOT
HETATM    1  C   UNL     1     -10.089   5.090  68.423  1.00  0.00    -0.176 C  
HETATM    2  C   UNL     1      -9.613   6.393  69.056  1.00  0.00    -0.136 C  
ENDROOT
BRANCH   2   3
HETATM    3  C   UNL     1      -9.996   6.490  70.541  1.00  0.00    -0.184 C  
BRANCH   3   4
HETATM    4  N   UNL     1     -10.828   7.659  70.853  1.00  0.00    -0.237 N  
HETATM    5  O   UNL     1     -12.702   6.630  71.781  1.00  0.00    -0.350 OA 
HETATM    6  C   UNL     1     -10.547   8.951  70.281  1.00  0.00    -0.218 C  
HETATM    7  C   UNL     1     -12.094   7.626  71.419  1.00  0.00    -0.316 C  
HETATM    8  C   UNL     1     -12.651   9.029  71.400  1.00  0.00    -0.370 C  
HETATM    9  C   UNL     1     -11.421   9.876  71.100  1.00  0.00    -0.459 C  
ENDBRANCH   3   4
BRANCH   3  10
HETATM   10  C   UNL     1      -8.760   6.431  71.458  1.00  0.00    -0.134 C  
HETATM   11  H2  UNL     1      -9.942   6.143  73.157  1.00  0.00     0.000 HD 
HETATM   12  N   UNL     1      -8.995   6.241  72.788  1.00  0.00    -0.126 N  
HETATM   13  O   UNL     1      -7.614   6.578  71.040  1.00  0.00    -0.086 OA 
HETATM   14  H1  UNL     1      -8.177   6.203  73.395  1.00  0.00     0.000 HD 
ENDBRANCH   3  10
ENDBRANCH   2   3
TORSDOF 3
ENDMDL
MODEL      186
REMARK 921   NORMALIZED FREE ENERGY PREDICTED BY IDOCK:   -2.33 KCAL/MOL
REMARK 922        TOTAL FREE ENERGY PREDICTED BY IDOCK:   -3.10 KCAL/MOL
REMARK 923 INTER-LIGAND FREE ENERGY PREDICTED BY IDOCK:   -2.95 KCAL/MOL
REMARK 924 INTRA-LIGAND FREE ENERGY PREDICTED BY IDOCK:   -0.15 KCAL/MOL
REMARK 927      BINDING AFFINITY PREDICTED BY RF-SCORE:    0.00 PKD
ROOT
HETATM    1  C   UNL     1     -10.214   7.749  67.214  1.00  0.00    -0.343 C  
HETATM    2  C   UNL     1     -10.725   9.098  66.719  1.00  0.00    -0.108 C  
ENDROOT
BRANCH   2   3
HETATM    3  C   UNL     1      -9.995  10.274  67.385  1.00  0.00    -0.189 C  
BRANCH   3   4
HETATM    4  N   UNL     1     -10.767  11.523  67.372  1.00  0.00    -0.220 N  
HETATM    5  O   UNL     1     -11.271  11.704  65.103  1.00  0.00    -0.275 OA 
HETATM    6  C   UNL     1     -10.742  12.430  68.491  1.00  0.00    -0.238 C  
HETATM    7  C   UNL     1     -11.312  12.127  66.249  1.00  0.00    -0.357 C  
HETATM    8  C   UNL     1     -11.863  13.470  66.663  1.00  0.00    -0.450 C  
HETATM    9  C   UNL     1     -11.885  13.373  68.183  1.00  0.00    -0.396 C  
ENDBRANCH   3   4
BRANCH   3  10
HETATM   10  C   UNL     1      -8.590  10.487  66.791  1.00  0.00    -0.126 C  
HETATM   11  H2  UNL     1      -9.168   9.694  64.947  1.00  0.00     0.000 HD 
HETATM   12  N   UNL     1      -8.410  10.102  65.495  1.00  0.00    -0.151 N  
HETATM   13  O   UNL     1      -7.655  10.946  67.442  1.00  0.00    -0.095 OA 
HETATM   14  H1  UNL     1      -7.480  10.242  65.102  1.00  0.00     0.000 HD 
ENDBRANCH   3  10
ENDBRANCH   2   3
TORSDOF 3
ENDMDL
MODEL      187
REMARK 921   NORMALIZED FREE ENERGY PREDICTED BY IDOCK:   -2.30 KCAL/MOL
REMARK 922        TOTAL FREE ENERGY PREDICTED BY IDOCK:   -3.07 KCAL/MOL
REMARK 923 INTER-LIGAND FREE ENERGY PREDICTED BY IDOCK:   -2.92 KCAL/MOL
REMARK 924 INTRA-LIGAND FREE ENERGY PREDICTED BY IDOCK:   -0.15 KCAL/MOL
REMARK 927      BINDING AFFINITY PREDICTED BY RF-SCORE:    0.00 PKD
ROOT
HETATM    1  C   UNL     1     -12.275  14.512  66.952  1.00  0.00    -0.220 C  
HETATM    2  C   UNL     1     -11.263  13.626  67.668  1.00  0.00    -0.303 C  
ENDROOT
BRANCH   2   3
HETATM    3  C   UNL     1     -10.987  12.324  66.900  1.00  0.00    -0.267 C  
BRANCH   3   4
HETATM    4  N   UNL     1     -10.361  11.283  67.724  1.00  0.00    -0.178 N  
HETATM    5  O   UNL     1      -8.348  12.316  68.285  1.00  0.00    -0.167 OA 
HETATM    6  C   UNL     1     -10.847   9.926  67.712  1.00  0.00    -0.264 C  
HETATM    7  C   UNL     1      -9.110  11.361  68.318  1.00  0.00    -0.179 C  
HETATM    8  C   UNL     1      -8.791  10.012  68.916  1.00  0.00    -0.148 C  
HETATM    9  C   UNL     1     -10.142   9.308  68.901  1.00  0.00    -0.207 C  
ENDBRANCH   3   4
BRANCH   3  10
HETATM   10  C   UNL     1     -10.174  12.577  65.617  1.00  0.00    -0.267 C  
HETATM   11  H2  UNL     1      -9.285  14.286  66.428  1.00  0.00     0.000 HD 
HETATM   12  N   UNL     1      -9.355  13.669  65.618  1.00  0.00    -0.456 N  
HETATM   13  O   UNL     1     -10.266  11.866  64.620  1.00  0.00    -0.260 OA 
HETATM   14  H1  UNL     1      -8.817  13.836  64.769  1.00  0.00     0.000 HD 
ENDBRANCH   3  10
ENDBRANCH   2   3
TORSDOF 3
ENDMDL
MODEL      188
REMARK 921   NORMALIZED FREE ENERGY PREDICTED BY IDOCK:   -2.28 KCAL/MOL
REMARK 922        TOTAL FREE ENERGY PREDICTED BY IDOCK:   -3.04 KCAL/MOL
REMARK 923 INTER-LIGAND FREE ENERGY PREDICTED BY IDOCK:   -2.79 KCAL/MOL
REMARK 924 INTRA-LIGAND FREE ENERGY PREDICTED BY IDOCK:   -0.25 KCAL/MOL
REMARK 927      BINDING AFFINITY PREDICTED BY RF-SCORE:    0.00 PKD
ROOT
HETATM    1  C   UNL     1      -8.850   3.393  69.499  1.00  0.00    -0.150 C  
HETATM    2  C   UNL     1      -9.893   4.407  69.953  1.00  0.00    -0.290 C  
ENDROOT
BRANCH   2   3
HETATM    3  C   UNL     1      -9.287   5.802  70.173  1.00  0.00    -0.155 C  
BRANCH   3   4
HETATM    4  N   UNL     1      -9.961   6.571  71.227  1.00  0.00    -0.181 N  
HETATM    5  O   UNL     1     -12.146   6.605  70.418  1.00  0.00    -0.374 OA 
HETATM    6  C   UNL     1      -9.210   7.343  72.185  1.00  0.00    -0.132 C  
HETATM    7  C   UNL     1     -11.304   6.915  71.247  1.00  0.00    -0.279 C  
HETATM    8  C   UNL     1     -11.529   7.848  72.412  1.00  0.00    -0.433 C  
HETATM    9  C   UNL     1     -10.253   7.685  73.228  1.00  0.00    -0.398 C  
ENDBRANCH   3   4
BRANCH   3  10
HETATM   10  C   UNL     1      -9.213   6.608  68.863  1.00  0.00    -0.130 C  
HETATM   11  H2  UNL     1     -10.988   5.764  68.155  1.00  0.00     0.000 HD 
HETATM   12  N   UNL     1     -10.223   6.412  67.967  1.00  0.00    -0.148 N  
HETATM   13  O   UNL     1      -8.285   7.369  68.602  1.00  0.00    -0.123 OA 
HETATM   14  H1  UNL     1     -10.174   6.945  67.100  1.00  0.00     0.000 HD 
ENDBRANCH   3  10
ENDBRANCH   2   3
TORSDOF 3
ENDMDL
MODEL      189
REMARK 921   NORMALIZED FREE ENERGY PREDICTED BY IDOCK:   -2.28 KCAL/MOL
REMARK 922        TOTAL FREE ENERGY PREDICTED BY IDOCK:   -3.04 KCAL/MOL
REMARK 923 INTER-LIGAND FREE ENERGY PREDICTED BY IDOCK:   -2.68 KCAL/MOL
REMARK 924 INTRA-LIGAND FREE ENERGY PREDICTED BY IDOCK:   -0.36 KCAL/MOL
REMARK 927      BINDING AFFINITY PREDICTED BY RF-SCORE:    0.00 PKD
ROOT
HETATM    1  C   UNL     1      -6.970  11.799  67.905  1.00  0.00    -0.085 C  
HETATM    2  C   UNL     1      -8.376  11.974  68.469  1.00  0.00    -0.104 C  
ENDROOT
BRANCH   2   3
HETATM    3  C   UNL     1      -9.301  10.808  68.089  1.00  0.00    -0.155 C  
BRANCH   3   4
HETATM    4  N   UNL     1      -9.660  10.788  66.665  1.00  0.00    -0.174 N  
HETATM    5  O   UNL     1      -8.716   8.762  66.002  1.00  0.00    -0.146 OA 
HETATM    6  C   UNL     1     -10.106  11.980  65.989  1.00  0.00    -0.230 C  
HETATM    7  C   UNL     1      -9.325   9.793  65.758  1.00  0.00    -0.221 C  
HETATM    8  C   UNL     1      -9.736  10.258  64.382  1.00  0.00    -0.381 C  
HETATM    9  C   UNL     1     -10.649  11.440  64.683  1.00  0.00    -0.380 C  
ENDBRANCH   3   4
BRANCH   3  10
HETATM   10  C   UNL     1     -10.560  10.763  68.976  1.00  0.00    -0.219 C  
HETATM   11  H2  UNL     1     -10.917   8.761  68.496  1.00  0.00     0.000 HD 
HETATM   12  N   UNL     1     -11.232   9.576  69.022  1.00  0.00    -0.446 N  
HETATM   13  O   UNL     1     -10.975  11.741  69.592  1.00  0.00    -0.138 OA 
HETATM   14  H1  UNL     1     -12.065   9.546  69.608  1.00  0.00     0.000 HD 
ENDBRANCH   3  10
ENDBRANCH   2   3
TORSDOF 3
ENDMDL
MODEL      190
REMARK 921   NORMALIZED FREE ENERGY PREDICTED BY IDOCK:   -2.28 KCAL/MOL
REMARK 922        TOTAL FREE ENERGY PREDICTED BY IDOCK:   -3.04 KCAL/MOL
REMARK 923 INTER-LIGAND FREE ENERGY PREDICTED BY IDOCK:   -3.02 KCAL/MOL
REMARK 924 INTRA-LIGAND FREE ENERGY PREDICTED BY IDOCK:   -0.02 KCAL/MOL
REMARK 927      BINDING AFFINITY PREDICTED BY RF-SCORE:    0.00 PKD
ROOT
HETATM    1  C   UNL     1     -11.233   9.871  70.119  1.00  0.00    -0.347 C  
HETATM    2  C   UNL     1     -11.900  11.156  69.642  1.00  0.00    -0.419 C  
ENDROOT
BRANCH   2   3
HETATM    3  C   UNL     1     -11.439  11.559  68.233  1.00  0.00    -0.299 C  
BRANCH   3   4
HETATM    4  N   UNL     1     -10.383  10.692  67.694  1.00  0.00    -0.197 N  
HETATM    5  O   UNL     1      -8.488  11.675  68.630  1.00  0.00    -0.153 OA 
HETATM    6  C   UNL     1     -10.637   9.804  66.589  1.00  0.00    -0.108 C  
HETATM    7  C   UNL     1      -9.023  10.835  67.921  1.00  0.00    -0.139 C  
HETATM    8  C   UNL     1      -8.296   9.848  67.041  1.00  0.00    -0.121 C  
HETATM    9  C   UNL     1      -9.412   8.914  66.588  1.00  0.00    -0.261 C  
ENDBRANCH   3   4
BRANCH   3  10
HETATM   10  C   UNL     1     -11.025  13.041  68.167  1.00  0.00    -0.244 C  
HETATM   11  H2  UNL     1     -10.784  13.142  70.241  1.00  0.00     0.000 HD 
HETATM   12  N   UNL     1     -10.731  13.646  69.355  1.00  0.00    -0.446 N  
HETATM   13  O   UNL     1     -10.986  13.675  67.116  1.00  0.00    -0.282 OA 
HETATM   14  H1  UNL     1     -10.457  14.627  69.311  1.00  0.00     0.000 HD 
ENDBRANCH   3  10
ENDBRANCH   2   3
TORSDOF 3
ENDMDL
MODEL      191
REMARK 921   NORMALIZED FREE ENERGY PREDICTED BY IDOCK:   -2.26 KCAL/MOL
REMARK 922        TOTAL FREE ENERGY PREDICTED BY IDOCK:   -3.01 KCAL/MOL
REMARK 923 INTER-LIGAND FREE ENERGY PREDICTED BY IDOCK:   -2.81 KCAL/MOL
REMARK 924 INTRA-LIGAND FREE ENERGY PREDICTED BY IDOCK:   -0.20 KCAL/MOL
REMARK 927      BINDING AFFINITY PREDICTED BY RF-SCORE:    0.00 PKD
ROOT
HETATM    1  C   UNL     1     -12.234  14.660  68.483  1.00  0.00    -0.135 C  
HETATM    2  C   UNL     1     -11.247  15.787  68.198  1.00  0.00    -0.344 C  
ENDROOT
BRANCH   2   3
HETATM    3  C   UNL     1      -9.947  15.271  67.563  1.00  0.00    -0.226 C  
BRANCH   3   4
HETATM    4  N   UNL     1      -8.752  16.002  68.003  1.00  0.00    -0.170 N  
HETATM    5  O   UNL     1      -7.092  14.418  67.594  1.00  0.00    -0.160 OA 
HETATM    6  C   UNL     1      -8.858  17.189  68.813  1.00  0.00    -0.235 C  
HETATM    7  C   UNL     1      -7.454  15.513  67.997  1.00  0.00    -0.127 C  
HETATM    8  C   UNL     1      -6.573  16.522  68.694  1.00  0.00    -0.145 C  
HETATM    9  C   UNL     1      -7.458  17.760  68.753  1.00  0.00    -0.263 C  
ENDBRANCH   3   4
BRANCH   3  10
HETATM   10  C   UNL     1     -10.036  15.233  66.025  1.00  0.00    -0.319 C  
HETATM   11  H2  UNL     1     -11.056  13.409  66.055  1.00  0.00     0.000 HD 
HETATM   12  N   UNL     1     -10.664  14.153  65.477  1.00  0.00    -0.308 N  
HETATM   13  O   UNL     1      -9.544  16.101  65.309  1.00  0.00    -0.375 OA 
HETATM   14  H1  UNL     1     -10.723  14.128  64.459  1.00  0.00     0.000 HD 
ENDBRANCH   3  10
ENDBRANCH   2   3
TORSDOF 3
ENDMDL
MODEL      192
REMARK 921   NORMALIZED FREE ENERGY PREDICTED BY IDOCK:   -2.25 KCAL/MOL
REMARK 922        TOTAL FREE ENERGY PREDICTED BY IDOCK:   -3.00 KCAL/MOL
REMARK 923 INTER-LIGAND FREE ENERGY PREDICTED BY IDOCK:   -2.70 KCAL/MOL
REMARK 924 INTRA-LIGAND FREE ENERGY PREDICTED BY IDOCK:   -0.31 KCAL/MOL
REMARK 927      BINDING AFFINITY PREDICTED BY RF-SCORE:    0.00 PKD
ROOT
HETATM    1  C   UNL     1      -7.729   7.357  69.043  1.00  0.00    -0.118 C  
HETATM    2  C   UNL     1      -8.616   7.960  70.127  1.00  0.00    -0.134 C  
ENDROOT
BRANCH   2   3
HETATM    3  C   UNL     1     -10.030   8.271  69.611  1.00  0.00    -0.193 C  
BRANCH   3   4
HETATM    4  N   UNL     1     -10.072   9.395  68.668  1.00  0.00    -0.184 N  
HETATM    5  O   UNL     1     -10.914   8.342  66.766  1.00  0.00    -0.031 OA 
HETATM    6  C   UNL     1      -9.356  10.618  68.929  1.00  0.00    -0.184 C  
HETATM    7  C   UNL     1     -10.485   9.329  67.345  1.00  0.00    -0.273 C  
HETATM    8  C   UNL     1     -10.200  10.663  66.700  1.00  0.00    -0.284 C  
HETATM    9  C   UNL     1      -9.926  11.566  67.896  1.00  0.00    -0.193 C  
ENDBRANCH   3   4
BRANCH   3  10
HETATM   10  C   UNL     1     -11.028   8.482  70.766  1.00  0.00    -0.247 C  
HETATM   11  H2  UNL     1     -12.483   7.320  69.818  1.00  0.00     0.000 HD 
HETATM   12  N   UNL     1     -12.246   7.880  70.637  1.00  0.00    -0.501 N  
HETATM   13  O   UNL     1     -10.774   9.178  71.746  1.00  0.00    -0.355 OA 
HETATM   14  H1  UNL     1     -12.906   8.020  71.401  1.00  0.00     0.000 HD 
ENDBRANCH   3  10
ENDBRANCH   2   3
TORSDOF 3
ENDMDL
MODEL      193
REMARK 921   NORMALIZED FREE ENERGY PREDICTED BY IDOCK:   -2.25 KCAL/MOL
REMARK 922        TOTAL FREE ENERGY PREDICTED BY IDOCK:   -3.00 KCAL/MOL
REMARK 923 INTER-LIGAND FREE ENERGY PREDICTED BY IDOCK:   -2.81 KCAL/MOL
REMARK 924 INTRA-LIGAND FREE ENERGY PREDICTED BY IDOCK:   -0.19 KCAL/MOL
REMARK 927      BINDING AFFINITY PREDICTED BY RF-SCORE:    0.00 PKD
ROOT
HETATM    1  C   UNL     1     -10.599  12.503  64.073  1.00  0.00    -0.451 C  
HETATM    2  C   UNL     1     -11.042  12.462  65.531  1.00  0.00    -0.338 C  
ENDROOT
BRANCH   2   3
HETATM    3  C   UNL     1      -9.896  12.809  66.494  1.00  0.00    -0.258 C  
BRANCH   3   4
HETATM    4  N   UNL     1      -9.150  11.633  66.961  1.00  0.00    -0.174 N  
HETATM    5  O   UNL     1      -7.048  12.566  67.338  1.00  0.00    -0.138 OA 
HETATM    6  C   UNL     1      -9.659  10.299  66.765  1.00  0.00    -0.172 C  
HETATM    7  C   UNL     1      -7.810  11.611  67.318  1.00  0.00    -0.157 C  
HETATM    8  C   UNL     1      -7.415  10.175  67.561  1.00  0.00    -0.090 C  
HETATM    9  C   UNL     1      -8.760   9.465  67.653  1.00  0.00    -0.116 C  
ENDBRANCH   3   4
BRANCH   3  10
HETATM   10  C   UNL     1     -10.382  13.661  67.682  1.00  0.00    -0.239 C  
HETATM   11  H2  UNL     1     -10.242  12.043  68.996  1.00  0.00     0.000 HD 
HETATM   12  N   UNL     1     -10.479  13.029  68.887  1.00  0.00    -0.415 N  
HETATM   13  O   UNL     1     -10.704  14.841  67.566  1.00  0.00    -0.260 OA 
HETATM   14  H1  UNL     1     -10.802  13.593  69.673  1.00  0.00     0.000 HD 
ENDBRANCH   3  10
ENDBRANCH   2   3
TORSDOF 3
ENDMDL
MODEL      194
REMARK 921   NORMALIZED FREE ENERGY PREDICTED BY IDOCK:   -2.24 KCAL/MOL
REMARK 922        TOTAL FREE ENERGY PREDICTED BY IDOCK:   -2.99 KCAL/MOL
REMARK 923 INTER-LIGAND FREE ENERGY PREDICTED BY IDOCK:   -3.17 KCAL/MOL
REMARK 924 INTRA-LIGAND FREE ENERGY PREDICTED BY IDOCK:    0.18 KCAL/MOL
REMARK 927      BINDING AFFINITY PREDICTED BY RF-SCORE:    0.00 PKD
ROOT
HETATM    1  C   UNL     1     -10.673  11.387  68.451  1.00  0.00    -0.237 C  
HETATM    2  C   UNL     1     -11.040   9.980  67.994  1.00  0.00    -0.263 C  
ENDROOT
BRANCH   2   3
HETATM    3  C   UNL     1     -10.304   8.899  68.799  1.00  0.00    -0.211 C  
BRANCH   3   4
HETATM    4  N   UNL     1     -11.024   8.481  70.009  1.00  0.00    -0.229 N  
HETATM    5  O   UNL     1     -11.174   6.181  69.659  1.00  0.00    -0.384 OA 
HETATM    6  C   UNL     1     -11.712   9.438  70.837  1.00  0.00    -0.308 C  
HETATM    7  C   UNL     1     -11.405   7.184  70.318  1.00  0.00    -0.269 C  
HETATM    8  C   UNL     1     -12.270   7.234  71.555  1.00  0.00    -0.387 C  
HETATM    9  C   UNL     1     -12.019   8.639  72.086  1.00  0.00    -0.449 C  
ENDBRANCH   3   4
BRANCH   3  10
HETATM   10  C   UNL     1      -8.859   9.317  69.134  1.00  0.00    -0.141 C  
HETATM   11  H2  UNL     1      -8.191   8.809  67.220  1.00  0.00     0.000 HD 
HETATM   12  N   UNL     1      -7.936   9.173  68.138  1.00  0.00    -0.100 N  
HETATM   13  O   UNL     1      -8.525   9.728  70.242  1.00  0.00    -0.190 OA 
HETATM   14  H1  UNL     1      -6.980   9.449  68.360  1.00  0.00     0.000 HD 
ENDBRANCH   3  10
ENDBRANCH   2   3
TORSDOF 3
ENDMDL
MODEL      195
REMARK 921   NORMALIZED FREE ENERGY PREDICTED BY IDOCK:   -2.24 KCAL/MOL
REMARK 922        TOTAL FREE ENERGY PREDICTED BY IDOCK:   -2.99 KCAL/MOL
REMARK 923 INTER-LIGAND FREE ENERGY PREDICTED BY IDOCK:   -2.92 KCAL/MOL
REMARK 924 INTRA-LIGAND FREE ENERGY PREDICTED BY IDOCK:   -0.07 KCAL/MOL
REMARK 927      BINDING AFFINITY PREDICTED BY RF-SCORE:    0.00 PKD
ROOT
HETATM    1  C   UNL     1     -10.496   7.215  68.584  1.00  0.00    -0.218 C  
HETATM    2  C   UNL     1     -10.204   8.656  68.989  1.00  0.00    -0.218 C  
ENDROOT
BRANCH   2   3
HETATM    3  C   UNL     1     -10.698   9.664  67.940  1.00  0.00    -0.247 C  
BRANCH   3   4
HETATM    4  N   UNL     1      -9.693   9.980  66.917  1.00  0.00    -0.181 N  
HETATM    5  O   UNL     1      -7.820  10.374  68.247  1.00  0.00    -0.101 OA 
HETATM    6  C   UNL     1     -10.077  10.304  65.566  1.00  0.00    -0.281 C  
HETATM    7  C   UNL     1      -8.370  10.319  67.157  1.00  0.00    -0.122 C  
HETATM    8  C   UNL     1      -7.748  10.734  65.845  1.00  0.00    -0.118 C  
HETATM    9  C   UNL     1      -8.761  10.239  64.820  1.00  0.00    -0.201 C  
ENDBRANCH   3   4
BRANCH   3  10
HETATM   10  C   UNL     1     -11.246  10.948  68.591  1.00  0.00    -0.267 C  
HETATM   11  H2  UNL     1      -9.412  11.354  69.507  1.00  0.00     0.000 HD 
HETATM   12  N   UNL     1     -10.376  11.658  69.366  1.00  0.00    -0.426 N  
HETATM   13  O   UNL     1     -12.410  11.315  68.460  1.00  0.00    -0.543 OA 
HETATM   14  H1  UNL     1     -10.739  12.507  69.798  1.00  0.00     0.000 HD 
ENDBRANCH   3  10
ENDBRANCH   2   3
TORSDOF 3
ENDMDL
MODEL      196
REMARK 921   NORMALIZED FREE ENERGY PREDICTED BY IDOCK:   -2.22 KCAL/MOL
REMARK 922        TOTAL FREE ENERGY PREDICTED BY IDOCK:   -2.97 KCAL/MOL
REMARK 923 INTER-LIGAND FREE ENERGY PREDICTED BY IDOCK:   -3.04 KCAL/MOL
REMARK 924 INTRA-LIGAND FREE ENERGY PREDICTED BY IDOCK:    0.07 KCAL/MOL
REMARK 927      BINDING AFFINITY PREDICTED BY RF-SCORE:    0.00 PKD
ROOT
HETATM    1  C   UNL     1     -10.836  11.157  64.505  1.00  0.00    -0.320 C  
HETATM    2  C   UNL     1      -9.459  11.543  65.033  1.00  0.00    -0.174 C  
ENDROOT
BRANCH   2   3
HETATM    3  C   UNL     1      -9.428  11.620  66.567  1.00  0.00    -0.206 C  
BRANCH   3   4
HETATM    4  N   UNL     1     -10.348  12.623  67.120  1.00  0.00    -0.231 N  
HETATM    5  O   UNL     1      -9.734  14.506  65.891  1.00  0.00    -0.311 OA 
HETATM    6  C   UNL     1     -11.055  12.390  68.354  1.00  0.00    -0.250 C  
HETATM    7  C   UNL     1     -10.406  13.959  66.753  1.00  0.00    -0.272 C  
HETATM    8  C   UNL     1     -11.362  14.659  67.689  1.00  0.00    -0.350 C  
HETATM    9  C   UNL     1     -12.084  13.500  68.363  1.00  0.00    -0.293 C  
ENDBRANCH   3   4
BRANCH   3  10
HETATM   10  C   UNL     1      -7.998  11.828  67.102  1.00  0.00    -0.166 C  
HETATM   11  H2  UNL     1      -8.029  13.858  66.609  1.00  0.00     0.000 HD 
HETATM   12  N   UNL     1      -7.490  13.091  67.010  1.00  0.00    -0.377 N  
HETATM   13  O   UNL     1      -7.320  10.913  67.561  1.00  0.00    -0.092 OA 
HETATM   14  H1  UNL     1      -6.544  13.229  67.364  1.00  0.00     0.000 HD 
ENDBRANCH   3  10
ENDBRANCH   2   3
TORSDOF 3
ENDMDL
MODEL      197
REMARK 921   NORMALIZED FREE ENERGY PREDICTED BY IDOCK:   -2.20 KCAL/MOL
REMARK 922        TOTAL FREE ENERGY PREDICTED BY IDOCK:   -2.95 KCAL/MOL
REMARK 923 INTER-LIGAND FREE ENERGY PREDICTED BY IDOCK:   -2.66 KCAL/MOL
REMARK 924 INTRA-LIGAND FREE ENERGY PREDICTED BY IDOCK:   -0.29 KCAL/MOL
REMARK 927      BINDING AFFINITY PREDICTED BY RF-SCORE:    0.00 PKD
ROOT
HETATM    1  C   UNL     1     -10.560   7.178  66.997  1.00  0.00    -0.413 C  
HETATM    2  C   UNL     1     -10.086   8.037  68.164  1.00  0.00    -0.234 C  
ENDROOT
BRANCH   2   3
HETATM    3  C   UNL     1      -9.497   7.191  69.304  1.00  0.00    -0.152 C  
BRANCH   3   4
HETATM    4  N   UNL     1     -10.257   7.291  70.557  1.00  0.00    -0.196 N  
HETATM    5  O   UNL     1      -9.952   5.150  71.428  1.00  0.00    -0.174 OA 
HETATM    6  C   UNL     1     -11.191   8.364  70.781  1.00  0.00    -0.263 C  
HETATM    7  C   UNL     1     -10.430   6.273  71.484  1.00  0.00    -0.223 C  
HETATM    8  C   UNL     1     -11.417   6.750  72.521  1.00  0.00    -0.270 C  
HETATM    9  C   UNL     1     -11.482   8.250  72.262  1.00  0.00    -0.452 C  
ENDBRANCH   3   4
BRANCH   3  10
HETATM   10  C   UNL     1      -8.006   7.500  69.536  1.00  0.00    -0.126 C  
HETATM   11  H2  UNL     1      -8.427   9.463  70.115  1.00  0.00     0.000 HD 
HETATM   12  N   UNL     1      -7.703   8.761  69.960  1.00  0.00    -0.077 N  
HETATM   13  O   UNL     1      -7.116   6.680  69.325  1.00  0.00    -0.078 OA 
HETATM   14  H1  UNL     1      -6.716   8.966  70.113  1.00  0.00     0.000 HD 
ENDBRANCH   3  10
ENDBRANCH   2   3
TORSDOF 3
ENDMDL
MODEL      198
REMARK 921   NORMALIZED FREE ENERGY PREDICTED BY IDOCK:   -2.19 KCAL/MOL
REMARK 922        TOTAL FREE ENERGY PREDICTED BY IDOCK:   -2.93 KCAL/MOL
REMARK 923 INTER-LIGAND FREE ENERGY PREDICTED BY IDOCK:   -2.99 KCAL/MOL
REMARK 924 INTRA-LIGAND FREE ENERGY PREDICTED BY IDOCK:    0.06 KCAL/MOL
REMARK 927      BINDING AFFINITY PREDICTED BY RF-SCORE:    0.00 PKD
ROOT
HETATM    1  C   UNL     1     -10.323   6.054  71.885  1.00  0.00    -0.251 C  
HETATM    2  C   UNL     1     -10.480   6.211  70.376  1.00  0.00    -0.288 C  
ENDROOT
BRANCH   2   3
HETATM    3  C   UNL     1     -10.997   7.605  69.990  1.00  0.00    -0.228 C  
BRANCH   3   4
HETATM    4  N   UNL     1      -9.930   8.536  69.603  1.00  0.00    -0.188 N  
HETATM    5  O   UNL     1     -10.804   9.412  67.628  1.00  0.00    -0.267 OA 
HETATM    6  C   UNL     1      -8.619   8.461  70.198  1.00  0.00    -0.131 C  
HETATM    7  C   UNL     1      -9.919   9.330  68.466  1.00  0.00    -0.175 C  
HETATM    8  C   UNL     1      -8.565   9.991  68.370  1.00  0.00    -0.113 C  
HETATM    9  C   UNL     1      -7.977   9.759  69.757  1.00  0.00    -0.169 C  
ENDBRANCH   3   4
BRANCH   3  10
HETATM   10  C   UNL     1     -11.887   8.213  71.092  1.00  0.00    -0.279 C  
HETATM   11  H2  UNL     1     -13.561   7.155  70.426  1.00  0.00     0.000 HD 
HETATM   12  N   UNL     1     -13.193   7.818  71.108  1.00  0.00    -0.556 N  
HETATM   13  O   UNL     1     -11.472   9.036  71.903  1.00  0.00    -0.348 OA 
HETATM   14  H1  UNL     1     -13.782   8.220  71.837  1.00  0.00     0.000 HD 
ENDBRANCH   3  10
ENDBRANCH   2   3
TORSDOF 3
ENDMDL
MODEL      199
REMARK 921   NORMALIZED FREE ENERGY PREDICTED BY IDOCK:   -2.18 KCAL/MOL
REMARK 922        TOTAL FREE ENERGY PREDICTED BY IDOCK:   -2.92 KCAL/MOL
REMARK 923 INTER-LIGAND FREE ENERGY PREDICTED BY IDOCK:   -2.73 KCAL/MOL
REMARK 924 INTRA-LIGAND FREE ENERGY PREDICTED BY IDOCK:   -0.19 KCAL/MOL
REMARK 927      BINDING AFFINITY PREDICTED BY RF-SCORE:    0.00 PKD
ROOT
HETATM    1  C   UNL     1     -10.525   6.218  71.597  1.00  0.00    -0.258 C  
HETATM    2  C   UNL     1     -11.300   7.498  71.887  1.00  0.00    -0.298 C  
ENDROOT
BRANCH   2   3
HETATM    3  C   UNL     1     -11.213   8.504  70.729  1.00  0.00    -0.257 C  
BRANCH   3   4
HETATM    4  N   UNL     1      -9.837   8.768  70.290  1.00  0.00    -0.170 N  
HETATM    5  O   UNL     1      -9.915   7.977  68.099  1.00  0.00    -0.172 OA 
HETATM    6  C   UNL     1      -8.791   9.056  71.239  1.00  0.00    -0.189 C  
HETATM    7  C   UNL     1      -9.313   8.470  69.041  1.00  0.00    -0.146 C  
HETATM    8  C   UNL     1      -7.829   8.744  69.079  1.00  0.00    -0.096 C  
HETATM    9  C   UNL     1      -7.669   9.560  70.356  1.00  0.00    -0.177 C  
ENDBRANCH   3   4
BRANCH   3  10
HETATM   10  C   UNL     1     -11.951   9.817  71.052  1.00  0.00    -0.352 C  
HETATM   11  H2  UNL     1     -11.624  10.561  69.127  1.00  0.00     0.000 HD 
HETATM   12  N   UNL     1     -12.032  10.735  70.046  1.00  0.00    -0.319 N  
HETATM   13  O   UNL     1     -12.421  10.060  72.161  1.00  0.00    -0.301 OA 
HETATM   14  H1  UNL     1     -12.520  11.604  70.260  1.00  0.00     0.000 HD 
ENDBRANCH   3  10
ENDBRANCH   2   3
TORSDOF 3
ENDMDL
MODEL      200
REMARK 921   NORMALIZED FREE ENERGY PREDICTED BY IDOCK:   -2.18 KCAL/MOL
REMARK 922        TOTAL FREE ENERGY PREDICTED BY IDOCK:   -2.92 KCAL/MOL
REMARK 923 INTER-LIGAND FREE ENERGY PREDICTED BY IDOCK:   -3.20 KCAL/MOL
REMARK 924 INTRA-LIGAND FREE ENERGY PREDICTED BY IDOCK:    0.28 KCAL/MOL
REMARK 927      BINDING AFFINITY PREDICTED BY RF-SCORE:    0.00 PKD
ROOT
HETATM    1  C   UNL     1     -11.702  12.489  64.888  1.00  0.00    -0.409 C  
HETATM    2  C   UNL     1     -11.314  11.644  66.095  1.00  0.00    -0.275 C  
ENDROOT
BRANCH   2   3
HETATM    3  C   UNL     1     -10.188  12.291  66.917  1.00  0.00    -0.213 C  
BRANCH   3   4
HETATM    4  N   UNL     1     -10.217  13.759  66.890  1.00  0.00    -0.258 N  
HETATM    5  O   UNL     1     -11.919  14.195  68.421  1.00  0.00    -0.347 OA 
HETATM    6  C   UNL     1      -9.574  14.500  65.834  1.00  0.00    -0.247 C  
HETATM    7  C   UNL     1     -11.077  14.567  67.618  1.00  0.00    -0.304 C  
HETATM    8  C   UNL     1     -10.882  15.991  67.156  1.00  0.00    -0.239 C  
HETATM    9  C   UNL     1      -9.581  15.916  66.369  1.00  0.00    -0.313 C  
ENDBRANCH   3   4
BRANCH   3  10
HETATM   10  C   UNL     1      -8.801  11.758  66.510  1.00  0.00    -0.183 C  
HETATM   11  H2  UNL     1      -9.601  10.694  64.899  1.00  0.00     0.000 HD 
HETATM   12  N   UNL     1      -8.758  10.940  65.419  1.00  0.00    -0.257 N  
HETATM   13  O   UNL     1      -7.779  12.015  67.140  1.00  0.00    -0.157 OA 
HETATM   14  H1  UNL     1      -7.841  10.587  65.150  1.00  0.00     0.000 HD 
ENDBRANCH   3  10
ENDBRANCH   2   3
TORSDOF 3
ENDMDL
MODEL      201
REMARK 921   NORMALIZED FREE ENERGY PREDICTED BY IDOCK:   -2.16 KCAL/MOL
REMARK 922        TOTAL FREE ENERGY PREDICTED BY IDOCK:   -2.90 KCAL/MOL
REMARK 923 INTER-LIGAND FREE ENERGY PREDICTED BY IDOCK:   -2.78 KCAL/MOL
REMARK 924 INTRA-LIGAND FREE ENERGY PREDICTED BY IDOCK:   -0.12 KCAL/MOL
REMARK 927      BINDING AFFINITY PREDICTED BY RF-SCORE:    0.00 PKD
ROOT
HETATM    1  C   UNL     1     -11.901   8.921  71.922  1.00  0.00    -0.440 C  
HETATM    2  C   UNL     1     -11.187   8.048  72.948  1.00  0.00    -0.389 C  
ENDROOT
BRANCH   2   3
HETATM    3  C   UNL     1      -9.696   7.873  72.622  1.00  0.00    -0.240 C  
BRANCH   3   4
HETATM    4  N   UNL     1      -9.436   6.824  71.629  1.00  0.00    -0.156 N  
HETATM    5  O   UNL     1      -7.330   7.459  70.858  1.00  0.00    -0.071 OA 
HETATM    6  C   UNL     1     -10.496   5.982  71.135  1.00  0.00    -0.230 C  
HETATM    7  C   UNL     1      -8.303   6.721  70.835  1.00  0.00    -0.128 C  
HETATM    8  C   UNL     1      -8.529   5.608  69.841  1.00  0.00    -0.121 C  
HETATM    9  C   UNL     1      -9.742   4.886  70.412  1.00  0.00    -0.284 C  
ENDBRANCH   3   4
BRANCH   3  10
HETATM   10  C   UNL     1      -8.853   7.653  73.892  1.00  0.00    -0.258 C  
HETATM   11  H2  UNL     1      -9.582   5.709  74.128  1.00  0.00     0.000 HD 
HETATM   12  N   UNL     1      -8.969   6.436  74.498  1.00  0.00    -0.154 N  
HETATM   13  O   UNL     1      -8.133   8.525  74.372  1.00  0.00    -0.312 OA 
HETATM   14  H1  UNL     1      -8.411   6.291  75.339  1.00  0.00     0.000 HD 
ENDBRANCH   3  10
ENDBRANCH   2   3
TORSDOF 3
ENDMDL
MODEL      202
REMARK 921   NORMALIZED FREE ENERGY PREDICTED BY IDOCK:   -2.16 KCAL/MOL
REMARK 922        TOTAL FREE ENERGY PREDICTED BY IDOCK:   -2.90 KCAL/MOL
REMARK 923 INTER-LIGAND FREE ENERGY PREDICTED BY IDOCK:   -2.71 KCAL/MOL
REMARK 924 INTRA-LIGAND FREE ENERGY PREDICTED BY IDOCK:   -0.19 KCAL/MOL
REMARK 927      BINDING AFFINITY PREDICTED BY RF-SCORE:    0.00 PKD
ROOT
HETATM    1  C   UNL     1      -9.209   3.416  72.167  1.00  0.00    -0.166 C  
HETATM    2  C   UNL     1     -10.197   4.504  71.763  1.00  0.00    -0.226 C  
ENDROOT
BRANCH   2   3
HETATM    3  C   UNL     1      -9.516   5.872  71.599  1.00  0.00    -0.149 C  
BRANCH   3   4
HETATM    4  N   UNL     1     -10.459   6.997  71.607  1.00  0.00    -0.200 N  
HETATM    5  O   UNL     1     -10.724   7.331  73.899  1.00  0.00    -0.318 OA 
HETATM    6  C   UNL     1     -11.200   7.361  70.426  1.00  0.00    -0.262 C  
HETATM    7  C   UNL     1     -10.985   7.606  72.737  1.00  0.00    -0.377 C  
HETATM    8  C   UNL     1     -12.038   8.591  72.289  1.00  0.00    -0.455 C  
HETATM    9  C   UNL     1     -11.772   8.713  70.794  1.00  0.00    -0.239 C  
ENDBRANCH   3   4
BRANCH   3  10
HETATM   10  C   UNL     1      -8.613   5.917  70.351  1.00  0.00    -0.135 C  
HETATM   11  H2  UNL     1      -7.497   7.505  71.125  1.00  0.00     0.000 HD 
HETATM   12  N   UNL     1      -7.629   6.861  70.344  1.00  0.00    -0.086 N  
HETATM   13  O   UNL     1      -8.774   5.173  69.386  1.00  0.00    -0.097 OA 
HETATM   14  H1  UNL     1      -7.032   6.891  69.518  1.00  0.00     0.000 HD 
ENDBRANCH   3  10
ENDBRANCH   2   3
TORSDOF 3
ENDMDL
MODEL      203
REMARK 921   NORMALIZED FREE ENERGY PREDICTED BY IDOCK:   -2.16 KCAL/MOL
REMARK 922        TOTAL FREE ENERGY PREDICTED BY IDOCK:   -2.90 KCAL/MOL
REMARK 923 INTER-LIGAND FREE ENERGY PREDICTED BY IDOCK:   -3.10 KCAL/MOL
REMARK 924 INTRA-LIGAND FREE ENERGY PREDICTED BY IDOCK:    0.20 KCAL/MOL
REMARK 927      BINDING AFFINITY PREDICTED BY RF-SCORE:    0.00 PKD
ROOT
HETATM    1  C   UNL     1     -11.666   7.422  72.217  1.00  0.00    -0.326 C  
HETATM    2  C   UNL     1     -11.287   8.876  71.956  1.00  0.00    -0.427 C  
ENDROOT
BRANCH   2   3
HETATM    3  C   UNL     1     -11.500   9.274  70.487  1.00  0.00    -0.248 C  
BRANCH   3   4
HETATM    4  N   UNL     1     -10.396   8.870  69.607  1.00  0.00    -0.207 N  
HETATM    5  O   UNL     1      -8.561   9.631  70.826  1.00  0.00    -0.227 OA 
HETATM    6  C   UNL     1     -10.632   8.498  68.235  1.00  0.00    -0.119 C  
HETATM    7  C   UNL     1      -9.048   9.097  69.841  1.00  0.00    -0.178 C  
HETATM    8  C   UNL     1      -8.284   8.680  68.608  1.00  0.00    -0.121 C  
HETATM    9  C   UNL     1      -9.314   7.873  67.828  1.00  0.00    -0.153 C  
ENDBRANCH   3   4
BRANCH   3  10
HETATM   10  C   UNL     1     -11.803  10.778  70.339  1.00  0.00    -0.358 C  
HETATM   11  H2  UNL     1      -9.918  11.152  69.518  1.00  0.00     0.000 HD 
HETATM   12  N   UNL     1     -10.813  11.550  69.805  1.00  0.00    -0.453 N  
HETATM   13  O   UNL     1     -12.860  11.282  70.707  1.00  0.00    -0.277 OA 
HETATM   14  H1  UNL     1     -11.013  12.544  69.707  1.00  0.00     0.000 HD 
ENDBRANCH   3  10
ENDBRANCH   2   3
TORSDOF 3
ENDMDL
MODEL      204
REMARK 921   NORMALIZED FREE ENERGY PREDICTED BY IDOCK:   -2.16 KCAL/MOL
REMARK 922        TOTAL FREE ENERGY PREDICTED BY IDOCK:   -2.89 KCAL/MOL
REMARK 923 INTER-LIGAND FREE ENERGY PREDICTED BY IDOCK:   -2.93 KCAL/MOL
REMARK 924 INTRA-LIGAND FREE ENERGY PREDICTED BY IDOCK:    0.04 KCAL/MOL
REMARK 927      BINDING AFFINITY PREDICTED BY RF-SCORE:    0.00 PKD
ROOT
HETATM    1  C   UNL     1     -11.076   6.220  67.350  1.00  0.00    -0.384 C  
HETATM    2  C   UNL     1     -10.300   5.860  68.612  1.00  0.00    -0.271 C  
ENDROOT
BRANCH   2   3
HETATM    3  C   UNL     1     -10.912   6.497  69.869  1.00  0.00    -0.335 C  
BRANCH   3   4
HETATM    4  N   UNL     1     -10.740   7.954  69.928  1.00  0.00    -0.247 N  
HETATM    5  O   UNL     1      -8.552   8.169  69.153  1.00  0.00    -0.133 OA 
HETATM    6  C   UNL     1     -11.647   8.785  70.678  1.00  0.00    -0.205 C  
HETATM    7  C   UNL     1      -9.588   8.649  69.588  1.00  0.00    -0.170 C  
HETATM    8  C   UNL     1      -9.788  10.096  69.966  1.00  0.00    -0.179 C  
HETATM    9  C   UNL     1     -11.290  10.178  70.208  1.00  0.00    -0.387 C  
ENDBRANCH   3   4
BRANCH   3  10
HETATM   10  C   UNL     1     -10.400   5.827  71.159  1.00  0.00    -0.227 C  
HETATM   11  H2  UNL     1     -12.298   5.886  72.031  1.00  0.00     0.000 HD 
HETATM   12  N   UNL     1     -11.320   5.615  72.143  1.00  0.00    -0.249 N  
HETATM   13  O   UNL     1      -9.222   5.522  71.327  1.00  0.00    -0.144 OA 
HETATM   14  H1  UNL     1     -10.981   5.172  72.997  1.00  0.00     0.000 HD 
ENDBRANCH   3  10
ENDBRANCH   2   3
TORSDOF 3
ENDMDL
MODEL      205
REMARK 921   NORMALIZED FREE ENERGY PREDICTED BY IDOCK:   -2.15 KCAL/MOL
REMARK 922        TOTAL FREE ENERGY PREDICTED BY IDOCK:   -2.88 KCAL/MOL
REMARK 923 INTER-LIGAND FREE ENERGY PREDICTED BY IDOCK:   -2.53 KCAL/MOL
REMARK 924 INTRA-LIGAND FREE ENERGY PREDICTED BY IDOCK:   -0.35 KCAL/MOL
REMARK 927      BINDING AFFINITY PREDICTED BY RF-SCORE:    0.00 PKD
ROOT
HETATM    1  C   UNL     1     -10.194   5.779  66.896  1.00  0.00    -0.265 C  
HETATM    2  C   UNL     1     -11.056   6.328  68.027  1.00  0.00    -0.365 C  
ENDROOT
BRANCH   2   3
HETATM    3  C   UNL     1     -10.311   7.378  68.865  1.00  0.00    -0.206 C  
BRANCH   3   4
HETATM    4  N   UNL     1      -8.959   6.960  69.256  1.00  0.00    -0.138 N  
HETATM    5  O   UNL     1      -9.444   5.344  70.863  1.00  0.00    -0.158 OA 
HETATM    6  C   UNL     1      -7.804   7.752  68.916  1.00  0.00    -0.122 C  
HETATM    7  C   UNL     1      -8.649   6.009  70.217  1.00  0.00    -0.143 C  
HETATM    8  C   UNL     1      -7.154   6.022  70.422  1.00  0.00    -0.070 C  
HETATM    9  C   UNL     1      -6.655   6.815  69.221  1.00  0.00    -0.048 C  
ENDBRANCH   3   4
BRANCH   3  10
HETATM   10  C   UNL     1     -11.130   7.817  70.095  1.00  0.00    -0.209 C  
HETATM   11  H2  UNL     1     -12.365   6.136  69.964  1.00  0.00     0.000 HD 
HETATM   12  N   UNL     1     -12.153   6.996  70.471  1.00  0.00    -0.583 N  
HETATM   13  O   UNL     1     -10.913   8.863  70.700  1.00  0.00    -0.224 OA 
HETATM   14  H1  UNL     1     -12.695   7.287  71.284  1.00  0.00     0.000 HD 
ENDBRANCH   3  10
ENDBRANCH   2   3
TORSDOF 3
ENDMDL
MODEL      206
REMARK 921   NORMALIZED FREE ENERGY PREDICTED BY IDOCK:   -2.12 KCAL/MOL
REMARK 922        TOTAL FREE ENERGY PREDICTED BY IDOCK:   -2.85 KCAL/MOL
REMARK 923 INTER-LIGAND FREE ENERGY PREDICTED BY IDOCK:   -3.03 KCAL/MOL
REMARK 924 INTRA-LIGAND FREE ENERGY PREDICTED BY IDOCK:    0.18 KCAL/MOL
REMARK 927      BINDING AFFINITY PREDICTED BY RF-SCORE:    0.00 PKD
ROOT
HETATM    1  C   UNL     1     -10.622   5.547  74.125  1.00  0.00    -0.249 C  
HETATM    2  C   UNL     1     -11.597   4.990  73.094  1.00  0.00    -0.299 C  
ENDROOT
BRANCH   2   3
HETATM    3  C   UNL     1     -11.731   5.907  71.869  1.00  0.00    -0.144 C  
BRANCH   3   4
HETATM    4  N   UNL     1     -10.734   5.634  70.825  1.00  0.00    -0.264 N  
HETATM    5  O   UNL     1     -11.723   6.675  68.990  1.00  0.00    -0.082 OA 
HETATM    6  C   UNL     1      -9.714   4.633  71.009  1.00  0.00    -0.188 C  
HETATM    7  C   UNL     1     -10.825   6.020  69.496  1.00  0.00    -0.369 C  
HETATM    8  C   UNL     1      -9.680   5.384  68.746  1.00  0.00    -0.194 C  
HETATM    9  C   UNL     1      -8.761   4.915  69.867  1.00  0.00    -0.117 C  
ENDBRANCH   3   4
BRANCH   3  10
HETATM   10  C   UNL     1     -11.725   7.396  72.263  1.00  0.00    -0.286 C  
HETATM   11  H2  UNL     1     -13.807   7.515  72.130  1.00  0.00     0.000 HD 
HETATM   12  N   UNL     1     -12.940   8.014  72.331  1.00  0.00    -0.548 N  
HETATM   13  O   UNL     1     -10.691   8.023  72.478  1.00  0.00    -0.288 OA 
HETATM   14  H1  UNL     1     -12.936   9.000  72.591  1.00  0.00     0.000 HD 
ENDBRANCH   3  10
ENDBRANCH   2   3
TORSDOF 3
ENDMDL
MODEL      207
REMARK 921   NORMALIZED FREE ENERGY PREDICTED BY IDOCK:   -2.12 KCAL/MOL
REMARK 922        TOTAL FREE ENERGY PREDICTED BY IDOCK:   -2.85 KCAL/MOL
REMARK 923 INTER-LIGAND FREE ENERGY PREDICTED BY IDOCK:   -2.55 KCAL/MOL
REMARK 924 INTRA-LIGAND FREE ENERGY PREDICTED BY IDOCK:   -0.30 KCAL/MOL
REMARK 927      BINDING AFFINITY PREDICTED BY RF-SCORE:    0.00 PKD
ROOT
HETATM    1  C   UNL     1      -8.981   3.042  67.790  1.00  0.00    -0.192 C  
HETATM    2  C   UNL     1      -9.902   4.251  67.676  1.00  0.00    -0.150 C  
ENDROOT
BRANCH   2   3
HETATM    3  C   UNL     1      -9.272   5.517  68.275  1.00  0.00    -0.109 C  
BRANCH   3   4
HETATM    4  N   UNL     1      -9.993   6.029  69.447  1.00  0.00    -0.165 N  
HETATM    5  O   UNL     1      -8.448   5.598  71.138  1.00  0.00    -0.123 OA 
HETATM    6  C   UNL     1     -11.409   6.295  69.397  1.00  0.00    -0.378 C  
HETATM    7  C   UNL     1      -9.533   6.008  70.756  1.00  0.00    -0.168 C  
HETATM    8  C   UNL     1     -10.657   6.466  71.653  1.00  0.00    -0.261 C  
HETATM    9  C   UNL     1     -11.646   7.079  70.670  1.00  0.00    -0.379 C  
ENDBRANCH   3   4
BRANCH   3  10
HETATM   10  C   UNL     1      -9.085   6.621  67.217  1.00  0.00    -0.118 C  
HETATM   11  H2  UNL     1     -10.373   5.661  65.880  1.00  0.00     0.000 HD 
HETATM   12  N   UNL     1      -9.768   6.466  66.046  1.00  0.00    -0.391 N  
HETATM   13  O   UNL     1      -8.338   7.582  67.383  1.00  0.00    -0.111 OA 
HETATM   14  H1  UNL     1      -9.644   7.196  65.345  1.00  0.00     0.000 HD 
ENDBRANCH   3  10
ENDBRANCH   2   3
TORSDOF 3
ENDMDL
MODEL      208
REMARK 921   NORMALIZED FREE ENERGY PREDICTED BY IDOCK:   -2.11 KCAL/MOL
REMARK 922        TOTAL FREE ENERGY PREDICTED BY IDOCK:   -2.84 KCAL/MOL
REMARK 923 INTER-LIGAND FREE ENERGY PREDICTED BY IDOCK:   -2.65 KCAL/MOL
REMARK 924 INTRA-LIGAND FREE ENERGY PREDICTED BY IDOCK:   -0.19 KCAL/MOL
REMARK 927      BINDING AFFINITY PREDICTED BY RF-SCORE:    0.00 PKD
ROOT
HETATM    1  C   UNL     1     -11.875   9.004  71.906  1.00  0.00    -0.447 C  
HETATM    2  C   UNL     1     -10.786   8.081  71.371  1.00  0.00    -0.270 C  
ENDROOT
BRANCH   2   3
HETATM    3  C   UNL     1      -9.869   8.791  70.364  1.00  0.00    -0.182 C  
BRANCH   3   4
HETATM    4  N   UNL     1     -10.061   8.338  68.980  1.00  0.00    -0.197 N  
HETATM    5  O   UNL     1      -9.875   6.029  69.244  1.00  0.00    -0.143 OA 
HETATM    6  C   UNL     1      -9.960   9.254  67.873  1.00  0.00    -0.187 C  
HETATM    7  C   UNL     1     -10.029   7.021  68.546  1.00  0.00    -0.155 C  
HETATM    8  C   UNL     1     -10.095   7.025  67.038  1.00  0.00    -0.298 C  
HETATM    9  C   UNL     1     -10.528   8.451  66.722  1.00  0.00    -0.315 C  
ENDBRANCH   3   4
BRANCH   3  10
HETATM   10  C   UNL     1      -8.386   8.699  70.774  1.00  0.00    -0.152 C  
HETATM   11  H2  UNL     1      -8.631   6.756  71.502  1.00  0.00     0.000 HD 
HETATM   12  N   UNL     1      -7.984   7.530  71.350  1.00  0.00    -0.094 N  
HETATM   13  O   UNL     1      -7.598   9.630  70.630  1.00  0.00    -0.210 OA 
HETATM   14  H1  UNL     1      -7.003   7.469  71.622  1.00  0.00     0.000 HD 
ENDBRANCH   3  10
ENDBRANCH   2   3
TORSDOF 3
ENDMDL
MODEL      209
REMARK 921   NORMALIZED FREE ENERGY PREDICTED BY IDOCK:   -2.09 KCAL/MOL
REMARK 922        TOTAL FREE ENERGY PREDICTED BY IDOCK:   -2.82 KCAL/MOL
REMARK 923 INTER-LIGAND FREE ENERGY PREDICTED BY IDOCK:   -2.79 KCAL/MOL
REMARK 924 INTRA-LIGAND FREE ENERGY PREDICTED BY IDOCK:   -0.03 KCAL/MOL
REMARK 927      BINDING AFFINITY PREDICTED BY RF-SCORE:    0.00 PKD
ROOT
HETATM    1  C   UNL     1      -6.583   9.687  70.550  1.00  0.00    -0.107 C  
HETATM    2  C   UNL     1      -8.068   9.344  70.578  1.00  0.00    -0.212 C  
ENDROOT
BRANCH   2   3
HETATM    3  C   UNL     1      -8.326   7.930  71.120  1.00  0.00    -0.112 C  
BRANCH   3   4
HETATM    4  N   UNL     1      -9.692   7.451  70.875  1.00  0.00    -0.170 N  
HETATM    5  O   UNL     1     -10.940   9.221  71.738  1.00  0.00    -0.369 OA 
HETATM    6  C   UNL     1      -9.955   6.070  70.560  1.00  0.00    -0.185 C  
HETATM    7  C   UNL     1     -10.859   8.119  71.217  1.00  0.00    -0.237 C  
HETATM    8  C   UNL     1     -12.022   7.195  70.946  1.00  0.00    -0.375 C  
HETATM    9  C   UNL     1     -11.394   6.103  70.089  1.00  0.00    -0.433 C  
ENDBRANCH   3   4
BRANCH   3  10
HETATM   10  C   UNL     1      -7.958   7.812  72.612  1.00  0.00    -0.112 C  
HETATM   11  H2  UNL     1      -6.963   6.001  72.299  1.00  0.00     0.000 HD 
HETATM   12  N   UNL     1      -7.242   6.710  72.978  1.00  0.00    -0.080 N  
HETATM   13  O   UNL     1      -8.310   8.637  73.451  1.00  0.00    -0.398 OA 
HETATM   14  H1  UNL     1      -6.999   6.632  73.965  1.00  0.00     0.000 HD 
ENDBRANCH   3  10
ENDBRANCH   2   3
TORSDOF 3
ENDMDL
MODEL      210
REMARK 921   NORMALIZED FREE ENERGY PREDICTED BY IDOCK:   -2.08 KCAL/MOL
REMARK 922        TOTAL FREE ENERGY PREDICTED BY IDOCK:   -2.81 KCAL/MOL
REMARK 923 INTER-LIGAND FREE ENERGY PREDICTED BY IDOCK:   -2.53 KCAL/MOL
REMARK 924 INTRA-LIGAND FREE ENERGY PREDICTED BY IDOCK:   -0.28 KCAL/MOL
REMARK 927      BINDING AFFINITY PREDICTED BY RF-SCORE:    0.00 PKD
ROOT
HETATM    1  C   UNL     1      -8.215   9.584  70.403  1.00  0.00    -0.220 C  
HETATM    2  C   UNL     1      -9.526   9.437  69.638  1.00  0.00    -0.200 C  
ENDROOT
BRANCH   2   3
HETATM    3  C   UNL     1     -10.192   8.075  69.887  1.00  0.00    -0.204 C  
BRANCH   3   4
HETATM    4  N   UNL     1     -10.084   7.156  68.748  1.00  0.00    -0.168 N  
HETATM    5  O   UNL     1      -8.228   5.893  69.376  1.00  0.00    -0.110 OA 
HETATM    6  C   UNL     1     -10.776   7.413  67.511  1.00  0.00    -0.240 C  
HETATM    7  C   UNL     1      -9.117   6.174  68.586  1.00  0.00    -0.125 C  
HETATM    8  C   UNL     1      -9.272   5.589  67.204  1.00  0.00    -0.111 C  
HETATM    9  C   UNL     1     -10.642   6.098  66.773  1.00  0.00    -0.351 C  
ENDBRANCH   3   4
BRANCH   3  10
HETATM   10  C   UNL     1     -11.657   8.227  70.337  1.00  0.00    -0.060 C  
HETATM   11  H2  UNL     1     -11.932   6.157  70.394  1.00  0.00     0.000 HD 
HETATM   12  N   UNL     1     -12.358   7.073  70.536  1.00  0.00    -0.614 N  
HETATM   13  O   UNL     1     -12.198   9.320  70.483  1.00  0.00    -0.125 OA 
HETATM   14  H1  UNL     1     -13.328   7.174  70.833  1.00  0.00     0.000 HD 
ENDBRANCH   3  10
ENDBRANCH   2   3
TORSDOF 3
ENDMDL
MODEL      211
REMARK 921   NORMALIZED FREE ENERGY PREDICTED BY IDOCK:   -2.06 KCAL/MOL
REMARK 922        TOTAL FREE ENERGY PREDICTED BY IDOCK:   -2.78 KCAL/MOL
REMARK 923 INTER-LIGAND FREE ENERGY PREDICTED BY IDOCK:   -2.58 KCAL/MOL
REMARK 924 INTRA-LIGAND FREE ENERGY PREDICTED BY IDOCK:   -0.20 KCAL/MOL
REMARK 927      BINDING AFFINITY PREDICTED BY RF-SCORE:    0.00 PKD
ROOT
HETATM    1  C   UNL     1      -8.729   2.300  67.667  1.00  0.00    -0.139 C  
HETATM    2  C   UNL     1      -9.074   3.521  66.822  1.00  0.00    -0.179 C  
ENDROOT
BRANCH   2   3
HETATM    3  C   UNL     1      -8.672   4.834  67.512  1.00  0.00    -0.103 C  
BRANCH   3   4
HETATM    4  N   UNL     1      -9.657   5.301  68.497  1.00  0.00    -0.128 N  
HETATM    5  O   UNL     1     -11.190   6.377  67.110  1.00  0.00    -0.370 OA 
HETATM    6  C   UNL     1      -9.348   5.334  69.904  1.00  0.00    -0.141 C  
HETATM    7  C   UNL     1     -10.799   6.035  68.216  1.00  0.00    -0.284 C  
HETATM    8  C   UNL     1     -11.422   6.449  69.527  1.00  0.00    -0.412 C  
HETATM    9  C   UNL     1     -10.704   5.563  70.537  1.00  0.00    -0.310 C  
ENDBRANCH   3   4
BRANCH   3  10
HETATM   10  C   UNL     1      -8.344   5.941  66.491  1.00  0.00    -0.112 C  
HETATM   11  H2  UNL     1      -9.319   4.914  64.954  1.00  0.00     0.000 HD 
HETATM   12  N   UNL     1      -8.793   5.748  65.217  1.00  0.00    -0.307 N  
HETATM   13  O   UNL     1      -7.686   6.937  66.779  1.00  0.00    -0.098 OA 
HETATM   14  H1  UNL     1      -8.576   6.480  64.542  1.00  0.00     0.000 HD 
ENDBRANCH   3  10
ENDBRANCH   2   3
TORSDOF 3
ENDMDL
MODEL      212
REMARK 921   NORMALIZED FREE ENERGY PREDICTED BY IDOCK:   -2.06 KCAL/MOL
REMARK 922        TOTAL FREE ENERGY PREDICTED BY IDOCK:   -2.78 KCAL/MOL
REMARK 923 INTER-LIGAND FREE ENERGY PREDICTED BY IDOCK:   -2.86 KCAL/MOL
REMARK 924 INTRA-LIGAND FREE ENERGY PREDICTED BY IDOCK:    0.07 KCAL/MOL
REMARK 927      BINDING AFFINITY PREDICTED BY RF-SCORE:    0.00 PKD
ROOT
HETATM    1  C   UNL     1      -9.911   4.223  70.597  1.00  0.00    -0.218 C  
HETATM    2  C   UNL     1     -10.472   5.530  70.048  1.00  0.00    -0.373 C  
ENDROOT
BRANCH   2   3
HETATM    3  C   UNL     1      -9.669   6.750  70.526  1.00  0.00    -0.176 C  
BRANCH   3   4
HETATM    4  N   UNL     1     -10.484   7.962  70.675  1.00  0.00    -0.211 N  
HETATM    5  O   UNL     1     -10.606   8.684  68.462  1.00  0.00    -0.196 OA 
HETATM    6  C   UNL     1     -10.689   8.572  71.964  1.00  0.00    -0.340 C  
HETATM    7  C   UNL     1     -10.859   8.818  69.649  1.00  0.00    -0.169 C  
HETATM    8  C   UNL     1     -11.532  10.019  70.267  1.00  0.00    -0.372 C  
HETATM    9  C   UNL     1     -11.805   9.558  71.693  1.00  0.00    -0.468 C  
ENDBRANCH   3   4
BRANCH   3  10
HETATM   10  C   UNL     1      -8.442   7.015  69.633  1.00  0.00    -0.134 C  
HETATM   11  H2  UNL     1      -7.547   8.213  71.092  1.00  0.00     0.000 HD 
HETATM   12  N   UNL     1      -7.467   7.813  70.157  1.00  0.00    -0.081 N  
HETATM   13  O   UNL     1      -8.340   6.569  68.493  1.00  0.00    -0.120 OA 
HETATM   14  H1  UNL     1      -6.655   7.988  69.566  1.00  0.00     0.000 HD 
ENDBRANCH   3  10
ENDBRANCH   2   3
TORSDOF 3
ENDMDL
MODEL      213
REMARK 921   NORMALIZED FREE ENERGY PREDICTED BY IDOCK:   -2.06 KCAL/MOL
REMARK 922        TOTAL FREE ENERGY PREDICTED BY IDOCK:   -2.78 KCAL/MOL
REMARK 923 INTER-LIGAND FREE ENERGY PREDICTED BY IDOCK:   -3.06 KCAL/MOL
REMARK 924 INTRA-LIGAND FREE ENERGY PREDICTED BY IDOCK:    0.28 KCAL/MOL
REMARK 927      BINDING AFFINITY PREDICTED BY RF-SCORE:    0.00 PKD
ROOT
HETATM    1  C   UNL     1      -8.030  16.500  66.378  1.00  0.00    -0.352 C  
HETATM    2  C   UNL     1      -8.428  17.004  67.761  1.00  0.00    -0.199 C  
ENDROOT
BRANCH   2   3
HETATM    3  C   UNL     1      -7.680  18.290  68.146  1.00  0.00    -0.279 C  
BRANCH   3   4
HETATM    4  N   UNL     1      -7.106  18.998  66.994  1.00  0.00    -0.204 N  
HETATM    5  O   UNL     1      -9.022  19.933  66.053  1.00  0.00    -0.369 OA 
HETATM    6  C   UNL     1      -5.771  18.714  66.532  1.00  0.00    -0.151 C  
HETATM    7  C   UNL     1      -7.818  19.729  66.055  1.00  0.00    -0.336 C  
HETATM    8  C   UNL     1      -6.863  20.132  64.957  1.00  0.00    -0.270 C  
HETATM    9  C   UNL     1      -5.499  19.856  65.576  1.00  0.00    -0.185 C  
ENDBRANCH   3   4
BRANCH   3  10
HETATM   10  C   UNL     1      -6.611  18.031  69.224  1.00  0.00    -0.232 C  
HETATM   11  H2  UNL     1      -6.763  15.961  68.984  1.00  0.00     0.000 HD 
HETATM   12  N   UNL     1      -6.306  16.726  69.481  1.00  0.00    -0.224 N  
HETATM   13  O   UNL     1      -6.071  18.935  69.857  1.00  0.00    -0.257 OA 
HETATM   14  H1  UNL     1      -5.599  16.554  70.195  1.00  0.00     0.000 HD 
ENDBRANCH   3  10
ENDBRANCH   2   3
TORSDOF 3
ENDMDL
MODEL      214
REMARK 921   NORMALIZED FREE ENERGY PREDICTED BY IDOCK:   -2.05 KCAL/MOL
REMARK 922        TOTAL FREE ENERGY PREDICTED BY IDOCK:   -2.77 KCAL/MOL
REMARK 923 INTER-LIGAND FREE ENERGY PREDICTED BY IDOCK:   -3.10 KCAL/MOL
REMARK 924 INTRA-LIGAND FREE ENERGY PREDICTED BY IDOCK:    0.33 KCAL/MOL
REMARK 927      BINDING AFFINITY PREDICTED BY RF-SCORE:    0.00 PKD
ROOT
HETATM    1  C   UNL     1      -9.574   8.626  72.147  1.00  0.00    -0.378 C  
HETATM    2  C   UNL     1     -11.037   8.545  72.567  1.00  0.00    -0.328 C  
ENDROOT
BRANCH   2   3
HETATM    3  C   UNL     1     -11.978   8.394  71.362  1.00  0.00    -0.297 C  
BRANCH   3   4
HETATM    4  N   UNL     1     -11.450   8.994  70.131  1.00  0.00    -0.135 N  
HETATM    5  O   UNL     1     -11.708  11.262  70.601  1.00  0.00    -0.318 OA 
HETATM    6  C   UNL     1     -11.266   8.210  68.936  1.00  0.00     0.466 C  
HETATM    7  C   UNL     1     -11.379  10.351  69.856  1.00  0.00    -0.302 C  
HETATM    8  C   UNL     1     -10.940  10.515  68.421  1.00  0.00    -0.310 C  
HETATM    9  C   UNL     1     -10.434   9.123  68.062  1.00  0.00    -0.276 C  
ENDBRANCH   3   4
BRANCH   3  10
HETATM   10  C   UNL     1     -13.393   8.920  71.670  1.00  0.00    -0.365 C  
HETATM   11  H2  UNL     1     -13.237   8.378  73.682  1.00  0.00     0.000 HD 
HETATM   12  N   UNL     1     -13.823   8.796  72.959  1.00  0.00    -0.879 N  
HETATM   13  O   UNL     1     -14.127   9.398  70.809  1.00  0.00     0.023 OA 
HETATM   14  H1  UNL     1     -14.760   9.144  73.163  1.00  0.00     0.000 HD 
ENDBRANCH   3  10
ENDBRANCH   2   3
TORSDOF 3
ENDMDL
MODEL      215
REMARK 921   NORMALIZED FREE ENERGY PREDICTED BY IDOCK:   -2.00 KCAL/MOL
REMARK 922        TOTAL FREE ENERGY PREDICTED BY IDOCK:   -2.71 KCAL/MOL
REMARK 923 INTER-LIGAND FREE ENERGY PREDICTED BY IDOCK:   -2.67 KCAL/MOL
REMARK 924 INTRA-LIGAND FREE ENERGY PREDICTED BY IDOCK:   -0.04 KCAL/MOL
REMARK 927      BINDING AFFINITY PREDICTED BY RF-SCORE:    0.00 PKD
ROOT
HETATM    1  C   UNL     1     -10.905   6.180  68.432  1.00  0.00    -0.382 C  
HETATM    2  C   UNL     1     -10.809   6.580  69.900  1.00  0.00    -0.341 C  
ENDROOT
BRANCH   2   3
HETATM    3  C   UNL     1      -9.643   5.881  70.616  1.00  0.00    -0.173 C  
BRANCH   3   4
HETATM    4  N   UNL     1     -10.055   5.136  71.812  1.00  0.00    -0.193 N  
HETATM    5  O   UNL     1     -11.090   6.822  73.045  1.00  0.00    -0.263 OA 
HETATM    6  C   UNL     1      -9.505   3.838  72.112  1.00  0.00    -0.133 C  
HETATM    7  C   UNL     1     -10.715   5.667  72.911  1.00  0.00    -0.248 C  
HETATM    8  C   UNL     1     -10.783   4.599  73.975  1.00  0.00    -0.352 C  
HETATM    9  C   UNL     1     -10.418   3.334  73.209  1.00  0.00    -0.254 C  
ENDBRANCH   3   4
BRANCH   3  10
HETATM   10  C   UNL     1      -8.500   6.860  70.942  1.00  0.00    -0.135 C  
HETATM   11  H2  UNL     1      -7.051   5.383  70.649  1.00  0.00     0.000 HD 
HETATM   12  N   UNL     1      -7.232   6.358  70.891  1.00  0.00    -0.070 N  
HETATM   13  O   UNL     1      -8.697   8.029  71.265  1.00  0.00    -0.127 OA 
HETATM   14  H1  UNL     1      -6.476   7.006  71.107  1.00  0.00     0.000 HD 
ENDBRANCH   3  10
ENDBRANCH   2   3
TORSDOF 3
ENDMDL
MODEL      216
REMARK 921   NORMALIZED FREE ENERGY PREDICTED BY IDOCK:   -2.00 KCAL/MOL
REMARK 922        TOTAL FREE ENERGY PREDICTED BY IDOCK:   -2.71 KCAL/MOL
REMARK 923 INTER-LIGAND FREE ENERGY PREDICTED BY IDOCK:   -2.77 KCAL/MOL
REMARK 924 INTRA-LIGAND FREE ENERGY PREDICTED BY IDOCK:    0.06 KCAL/MOL
REMARK 927      BINDING AFFINITY PREDICTED BY RF-SCORE:    0.00 PKD
ROOT
HETATM    1  C   UNL     1      -7.999   8.388  69.185  1.00  0.00    -0.110 C  
HETATM    2  C   UNL     1      -9.448   7.917  69.196  1.00  0.00    -0.155 C  
ENDROOT
BRANCH   2   3
HETATM    3  C   UNL     1      -9.565   6.405  69.443  1.00  0.00    -0.142 C  
BRANCH   3   4
HETATM    4  N   UNL     1      -9.702   5.622  68.209  1.00  0.00    -0.124 N  
HETATM    5  O   UNL     1     -11.139   6.984  66.980  1.00  0.00    -0.373 OA 
HETATM    6  C   UNL     1      -9.306   4.237  68.155  1.00  0.00    -0.152 C  
HETATM    7  C   UNL     1     -10.478   5.965  67.112  1.00  0.00    -0.272 C  
HETATM    8  C   UNL     1     -10.468   4.801  66.151  1.00  0.00    -0.332 C  
HETATM    9  C   UNL     1      -9.321   3.943  66.670  1.00  0.00    -0.201 C  
ENDBRANCH   3   4
BRANCH   3  10
HETATM   10  C   UNL     1     -10.693   6.071  70.438  1.00  0.00    -0.292 C  
HETATM   11  H2  UNL     1      -9.454   4.791  71.528  1.00  0.00     0.000 HD 
HETATM   12  N   UNL     1     -10.384   5.200  71.441  1.00  0.00    -0.214 N  
HETATM   13  O   UNL     1     -11.829   6.528  70.333  1.00  0.00    -0.400 OA 
HETATM   14  H1  UNL     1     -11.131   4.979  72.099  1.00  0.00     0.000 HD 
ENDBRANCH   3  10
ENDBRANCH   2   3
TORSDOF 3
ENDMDL
MODEL      217
REMARK 921   NORMALIZED FREE ENERGY PREDICTED BY IDOCK:   -1.98 KCAL/MOL
REMARK 922        TOTAL FREE ENERGY PREDICTED BY IDOCK:   -2.69 KCAL/MOL
REMARK 923 INTER-LIGAND FREE ENERGY PREDICTED BY IDOCK:   -2.48 KCAL/MOL
REMARK 924 INTRA-LIGAND FREE ENERGY PREDICTED BY IDOCK:   -0.21 KCAL/MOL
REMARK 927      BINDING AFFINITY PREDICTED BY RF-SCORE:    0.00 PKD
ROOT
HETATM    1  C   UNL     1      -8.897   7.771  67.017  1.00  0.00    -0.136 C  
HETATM    2  C   UNL     1      -8.898   8.537  65.699  1.00  0.00    -0.214 C  
ENDROOT
BRANCH   2   3
HETATM    3  C   UNL     1      -8.186   9.893  65.816  1.00  0.00    -0.125 C  
BRANCH   3   4
HETATM    4  N   UNL     1      -9.096  11.041  65.711  1.00  0.00    -0.198 N  
HETATM    5  O   UNL     1      -8.209  12.456  67.336  1.00  0.00    -0.162 OA 
HETATM    6  C   UNL     1     -10.358  10.933  65.024  1.00  0.00    -0.288 C  
HETATM    7  C   UNL     1      -9.040  12.194  66.480  1.00  0.00    -0.199 C  
HETATM    8  C   UNL     1     -10.260  13.025  66.164  1.00  0.00    -0.288 C  
HETATM    9  C   UNL     1     -10.789  12.378  64.890  1.00  0.00    -0.333 C  
ENDBRANCH   3   4
BRANCH   3  10
HETATM   10  C   UNL     1      -7.021  10.018  64.816  1.00  0.00    -0.137 C  
HETATM   11  H2  UNL     1      -8.262  10.861  63.362  1.00  0.00     0.000 HD 
HETATM   12  N   UNL     1      -7.317  10.557  63.598  1.00  0.00    -0.342 N  
HETATM   13  O   UNL     1      -5.883   9.629  65.068  1.00  0.00    -0.063 OA 
HETATM   14  H1  UNL     1      -6.547  10.639  62.936  1.00  0.00     0.000 HD 
ENDBRANCH   3  10
ENDBRANCH   2   3
TORSDOF 3
ENDMDL
MODEL      218
REMARK 921   NORMALIZED FREE ENERGY PREDICTED BY IDOCK:   -1.97 KCAL/MOL
REMARK 922        TOTAL FREE ENERGY PREDICTED BY IDOCK:   -2.68 KCAL/MOL
REMARK 923 INTER-LIGAND FREE ENERGY PREDICTED BY IDOCK:   -2.35 KCAL/MOL
REMARK 924 INTRA-LIGAND FREE ENERGY PREDICTED BY IDOCK:   -0.33 KCAL/MOL
REMARK 927      BINDING AFFINITY PREDICTED BY RF-SCORE:    0.00 PKD
ROOT
HETATM    1  C   UNL     1     -10.472   6.333  66.988  1.00  0.00    -0.341 C  
HETATM    2  C   UNL     1     -10.661   7.845  66.959  1.00  0.00    -0.381 C  
ENDROOT
BRANCH   2   3
HETATM    3  C   UNL     1      -9.379   8.596  67.352  1.00  0.00    -0.144 C  
BRANCH   3   4
HETATM    4  N   UNL     1      -9.573  10.045  67.497  1.00  0.00    -0.151 N  
HETATM    5  O   UNL     1      -8.031  10.529  69.176  1.00  0.00    -0.124 OA 
HETATM    6  C   UNL     1     -10.733  10.702  66.951  1.00  0.00    -0.237 C  
HETATM    7  C   UNL     1      -8.906  10.866  68.394  1.00  0.00    -0.147 C  
HETATM    8  C   UNL     1      -9.536  12.236  68.328  1.00  0.00    -0.212 C  
HETATM    9  C   UNL     1     -10.365  12.167  67.052  1.00  0.00    -0.232 C  
ENDBRANCH   3   4
BRANCH   3  10
HETATM   10  C   UNL     1      -8.216   8.289  66.389  1.00  0.00    -0.107 C  
HETATM   11  H2  UNL     1      -9.292   9.002  64.745  1.00  0.00     0.000 HD 
HETATM   12  N   UNL     1      -8.417   8.592  65.073  1.00  0.00    -0.184 N  
HETATM   13  O   UNL     1      -7.168   7.767  66.757  1.00  0.00    -0.084 OA 
HETATM   14  H1  UNL     1      -7.648   8.388  64.436  1.00  0.00     0.000 HD 
ENDBRANCH   3  10
ENDBRANCH   2   3
TORSDOF 3
ENDMDL
MODEL      219
REMARK 921   NORMALIZED FREE ENERGY PREDICTED BY IDOCK:   -1.97 KCAL/MOL
REMARK 922        TOTAL FREE ENERGY PREDICTED BY IDOCK:   -2.67 KCAL/MOL
REMARK 923 INTER-LIGAND FREE ENERGY PREDICTED BY IDOCK:   -2.45 KCAL/MOL
REMARK 924 INTRA-LIGAND FREE ENERGY PREDICTED BY IDOCK:   -0.22 KCAL/MOL
REMARK 927      BINDING AFFINITY PREDICTED BY RF-SCORE:    0.00 PKD
ROOT
HETATM    1  C   UNL     1     -11.799   6.380  70.274  1.00  0.00    -0.283 C  
HETATM    2  C   UNL     1     -11.080   6.668  71.587  1.00  0.00    -0.290 C  
ENDROOT
BRANCH   2   3
HETATM    3  C   UNL     1      -9.750   7.405  71.369  1.00  0.00    -0.167 C  
BRANCH   3   4
HETATM    4  N   UNL     1      -8.827   7.289  72.505  1.00  0.00    -0.122 N  
HETATM    5  O   UNL     1      -7.367   5.651  71.719  1.00  0.00    -0.087 OA 
HETATM    6  C   UNL     1      -9.161   7.828  73.799  1.00  0.00    -0.256 C  
HETATM    7  C   UNL     1      -7.746   6.424  72.586  1.00  0.00    -0.104 C  
HETATM    8  C   UNL     1      -7.184   6.509  73.984  1.00  0.00    -0.084 C  
HETATM    9  C   UNL     1      -7.841   7.767  74.537  1.00  0.00    -0.250 C  
ENDBRANCH   3   4
BRANCH   3  10
HETATM   10  C   UNL     1      -9.969   8.881  70.984  1.00  0.00    -0.256 C  
HETATM   11  H2  UNL     1      -8.413   8.824  69.590  1.00  0.00     0.000 HD 
HETATM   12  N   UNL     1      -9.140   9.391  70.028  1.00  0.00    -0.202 N  
HETATM   13  O   UNL     1     -10.817   9.590  71.520  1.00  0.00    -0.355 OA 
HETATM   14  H1  UNL     1      -9.284  10.368  69.773  1.00  0.00     0.000 HD 
ENDBRANCH   3  10
ENDBRANCH   2   3
TORSDOF 3
ENDMDL
MODEL      220
REMARK 921   NORMALIZED FREE ENERGY PREDICTED BY IDOCK:   -1.94 KCAL/MOL
REMARK 922        TOTAL FREE ENERGY PREDICTED BY IDOCK:   -2.64 KCAL/MOL
REMARK 923 INTER-LIGAND FREE ENERGY PREDICTED BY IDOCK:   -2.65 KCAL/MOL
REMARK 924 INTRA-LIGAND FREE ENERGY PREDICTED BY IDOCK:    0.01 KCAL/MOL
REMARK 927      BINDING AFFINITY PREDICTED BY RF-SCORE:    0.00 PKD
ROOT
HETATM    1  C   UNL     1     -10.408  16.729  66.853  1.00  0.00    -0.294 C  
HETATM    2  C   UNL     1      -9.616  15.638  66.141  1.00  0.00    -0.362 C  
ENDROOT
BRANCH   2   3
HETATM    3  C   UNL     1      -8.657  14.905  67.091  1.00  0.00    -0.225 C  
BRANCH   3   4
HETATM    4  N   UNL     1      -8.847  13.449  67.103  1.00  0.00    -0.217 N  
HETATM    5  O   UNL     1      -6.686  12.727  67.591  1.00  0.00    -0.116 OA 
HETATM    6  C   UNL     1     -10.026  12.845  66.536  1.00  0.00    -0.259 C  
HETATM    7  C   UNL     1      -7.858  12.504  67.330  1.00  0.00    -0.175 C  
HETATM    8  C   UNL     1      -8.451  11.139  67.077  1.00  0.00    -0.146 C  
HETATM    9  C   UNL     1      -9.947  11.421  67.043  1.00  0.00    -0.227 C  
ENDBRANCH   3   4
BRANCH   3  10
HETATM   10  C   UNL     1      -8.711  15.482  68.518  1.00  0.00    -0.184 C  
HETATM   11  H2  UNL     1      -7.024  16.669  68.183  1.00  0.00     0.000 HD 
HETATM   12  N   UNL     1      -7.746  16.387  68.848  1.00  0.00    -0.219 N  
HETATM   13  O   UNL     1      -9.551  15.134  69.345  1.00  0.00    -0.223 OA 
HETATM   14  H1  UNL     1      -7.781  16.769  69.793  1.00  0.00     0.000 HD 
ENDBRANCH   3  10
ENDBRANCH   2   3
TORSDOF 3
ENDMDL
MODEL      221
REMARK 921   NORMALIZED FREE ENERGY PREDICTED BY IDOCK:   -1.93 KCAL/MOL
REMARK 922        TOTAL FREE ENERGY PREDICTED BY IDOCK:   -2.63 KCAL/MOL
REMARK 923 INTER-LIGAND FREE ENERGY PREDICTED BY IDOCK:   -2.43 KCAL/MOL
REMARK 924 INTRA-LIGAND FREE ENERGY PREDICTED BY IDOCK:   -0.20 KCAL/MOL
REMARK 927      BINDING AFFINITY PREDICTED BY RF-SCORE:    0.00 PKD
ROOT
HETATM    1  C   UNL     1      -8.899   8.563  68.660  1.00  0.00    -0.136 C  
HETATM    2  C   UNL     1      -8.547   7.090  68.492  1.00  0.00    -0.123 C  
ENDROOT
BRANCH   2   3
HETATM    3  C   UNL     1      -9.499   6.174  69.278  1.00  0.00    -0.133 C  
BRANCH   3   4
HETATM    4  N   UNL     1      -9.389   4.759  68.902  1.00  0.00    -0.125 N  
HETATM    5  O   UNL     1     -10.017   3.724  70.893  1.00  0.00    -0.168 OA 
HETATM    6  C   UNL     1      -8.675   4.353  67.717  1.00  0.00    -0.105 C  
HETATM    7  C   UNL     1      -9.635   3.677  69.734  1.00  0.00    -0.158 C  
HETATM    8  C   UNL     1      -9.232   2.422  68.999  1.00  0.00    -0.205 C  
HETATM    9  C   UNL     1      -9.083   2.904  67.562  1.00  0.00    -0.215 C  
ENDBRANCH   3   4
BRANCH   3  10
HETATM   10  C   UNL     1     -10.960   6.656  69.192  1.00  0.00    -0.287 C  
HETATM   11  H2  UNL     1     -11.116   6.065  67.194  1.00  0.00     0.000 HD 
HETATM   12  N   UNL     1     -11.589   6.488  67.993  1.00  0.00    -0.527 N  
HETATM   13  O   UNL     1     -11.538   7.197  70.131  1.00  0.00    -0.249 OA 
HETATM   14  H1  UNL     1     -12.555   6.808  67.936  1.00  0.00     0.000 HD 
ENDBRANCH   3  10
ENDBRANCH   2   3
TORSDOF 3
ENDMDL
MODEL      222
REMARK 921   NORMALIZED FREE ENERGY PREDICTED BY IDOCK:   -1.91 KCAL/MOL
REMARK 922        TOTAL FREE ENERGY PREDICTED BY IDOCK:   -2.61 KCAL/MOL
REMARK 923 INTER-LIGAND FREE ENERGY PREDICTED BY IDOCK:   -2.60 KCAL/MOL
REMARK 924 INTRA-LIGAND FREE ENERGY PREDICTED BY IDOCK:   -0.01 KCAL/MOL
REMARK 927      BINDING AFFINITY PREDICTED BY RF-SCORE:    0.00 PKD
ROOT
HETATM    1  C   UNL     1      -7.432   7.748  67.283  1.00  0.00    -0.093 C  
HETATM    2  C   UNL     1      -7.824   8.173  68.694  1.00  0.00    -0.114 C  
ENDROOT
BRANCH   2   3
HETATM    3  C   UNL     1      -9.236   8.778  68.744  1.00  0.00    -0.141 C  
BRANCH   3   4
HETATM    4  N   UNL     1     -10.176   7.996  69.557  1.00  0.00    -0.205 N  
HETATM    5  O   UNL     1     -11.444   9.698  70.521  1.00  0.00    -0.259 OA 
HETATM    6  C   UNL     1      -9.934   6.607  69.852  1.00  0.00    -0.171 C  
HETATM    7  C   UNL     1     -11.169   8.517  70.374  1.00  0.00    -0.211 C  
HETATM    8  C   UNL     1     -11.777   7.376  71.154  1.00  0.00    -0.322 C  
HETATM    9  C   UNL     1     -11.263   6.148  70.414  1.00  0.00    -0.423 C  
ENDBRANCH   3   4
BRANCH   3  10
HETATM   10  C   UNL     1      -9.802   9.031  67.334  1.00  0.00    -0.190 C  
HETATM   11  H2  UNL     1      -8.919  10.922  67.238  1.00  0.00     0.000 HD 
HETATM   12  N   UNL     1      -9.495  10.229  66.759  1.00  0.00    -0.160 N  
HETATM   13  O   UNL     1     -10.523   8.224  66.752  1.00  0.00    -0.318 OA 
HETATM   14  H1  UNL     1      -9.870  10.397  65.826  1.00  0.00     0.000 HD 
ENDBRANCH   3  10
ENDBRANCH   2   3
TORSDOF 3
ENDMDL
MODEL      223
REMARK 921   NORMALIZED FREE ENERGY PREDICTED BY IDOCK:   -1.90 KCAL/MOL
REMARK 922        TOTAL FREE ENERGY PREDICTED BY IDOCK:   -2.60 KCAL/MOL
REMARK 923 INTER-LIGAND FREE ENERGY PREDICTED BY IDOCK:   -2.32 KCAL/MOL
REMARK 924 INTRA-LIGAND FREE ENERGY PREDICTED BY IDOCK:   -0.28 KCAL/MOL
REMARK 927      BINDING AFFINITY PREDICTED BY RF-SCORE:    0.00 PKD
ROOT
HETATM    1  C   UNL     1     -10.899   5.840  66.743  1.00  0.00    -0.327 C  
HETATM    2  C   UNL     1     -10.719   7.276  67.221  1.00  0.00    -0.391 C  
ENDROOT
BRANCH   2   3
HETATM    3  C   UNL     1      -9.250   7.724  67.167  1.00  0.00    -0.146 C  
BRANCH   3   4
HETATM    4  N   UNL     1      -8.731   8.178  68.464  1.00  0.00    -0.134 N  
HETATM    5  O   UNL     1      -9.912  10.170  68.737  1.00  0.00    -0.165 OA 
HETATM    6  C   UNL     1      -7.534   7.611  69.030  1.00  0.00    -0.095 C  
HETATM    7  C   UNL     1      -9.088   9.350  69.114  1.00  0.00    -0.148 C  
HETATM    8  C   UNL     1      -8.190   9.507  70.318  1.00  0.00    -0.209 C  
HETATM    9  C   UNL     1      -7.561   8.126  70.453  1.00  0.00    -0.076 C  
ENDBRANCH   3   4
BRANCH   3  10
HETATM   10  C   UNL     1      -9.014   8.785  66.075  1.00  0.00    -0.192 C  
HETATM   11  H2  UNL     1     -11.040   9.291  66.024  1.00  0.00     0.000 HD 
HETATM   12  N   UNL     1     -10.111   9.471  65.643  1.00  0.00    -0.341 N  
HETATM   13  O   UNL     1      -7.909   8.996  65.581  1.00  0.00    -0.098 OA 
HETATM   14  H1  UNL     1      -9.954  10.173  64.920  1.00  0.00     0.000 HD 
ENDBRANCH   3  10
ENDBRANCH   2   3
TORSDOF 3
ENDMDL
MODEL      224
REMARK 921   NORMALIZED FREE ENERGY PREDICTED BY IDOCK:   -1.89 KCAL/MOL
REMARK 922        TOTAL FREE ENERGY PREDICTED BY IDOCK:   -2.58 KCAL/MOL
REMARK 923 INTER-LIGAND FREE ENERGY PREDICTED BY IDOCK:   -2.43 KCAL/MOL
REMARK 924 INTRA-LIGAND FREE ENERGY PREDICTED BY IDOCK:   -0.15 KCAL/MOL
REMARK 927      BINDING AFFINITY PREDICTED BY RF-SCORE:    0.00 PKD
ROOT
HETATM    1  C   UNL     1      -7.516  13.084  67.394  1.00  0.00    -0.136 C  
HETATM    2  C   UNL     1      -7.832  11.611  67.628  1.00  0.00    -0.135 C  
ENDROOT
BRANCH   2   3
HETATM    3  C   UNL     1      -9.260  11.249  67.191  1.00  0.00    -0.163 C  
BRANCH   3   4
HETATM    4  N   UNL     1      -9.800  10.072  67.883  1.00  0.00    -0.143 N  
HETATM    5  O   UNL     1     -10.807  11.073  69.732  1.00  0.00    -0.231 OA 
HETATM    6  C   UNL     1      -9.356   8.741  67.554  1.00  0.00    -0.136 C  
HETATM    7  C   UNL     1     -10.498  10.086  69.082  1.00  0.00    -0.219 C  
HETATM    8  C   UNL     1     -10.708   8.655  69.516  1.00  0.00    -0.189 C  
HETATM    9  C   UNL     1     -10.373   7.867  68.256  1.00  0.00    -0.239 C  
ENDBRANCH   3   4
BRANCH   3  10
HETATM   10  C   UNL     1      -9.369  11.089  65.663  1.00  0.00    -0.214 C  
HETATM   11  H2  UNL     1      -7.320  10.720  65.480  1.00  0.00     0.000 HD 
HETATM   12  N   UNL     1      -8.212  10.815  64.993  1.00  0.00    -0.350 N  
HETATM   13  O   UNL     1     -10.426  11.230  65.053  1.00  0.00    -0.278 OA 
HETATM   14  H1  UNL     1      -8.284  10.710  63.982  1.00  0.00     0.000 HD 
ENDBRANCH   3  10
ENDBRANCH   2   3
TORSDOF 3
ENDMDL
MODEL      225
REMARK 921   NORMALIZED FREE ENERGY PREDICTED BY IDOCK:   -1.89 KCAL/MOL
REMARK 922        TOTAL FREE ENERGY PREDICTED BY IDOCK:   -2.58 KCAL/MOL
REMARK 923 INTER-LIGAND FREE ENERGY PREDICTED BY IDOCK:   -2.30 KCAL/MOL
REMARK 924 INTRA-LIGAND FREE ENERGY PREDICTED BY IDOCK:   -0.27 KCAL/MOL
REMARK 927      BINDING AFFINITY PREDICTED BY RF-SCORE:    0.00 PKD
ROOT
HETATM    1  C   UNL     1     -11.313  12.238  69.280  1.00  0.00    -0.317 C  
HETATM    2  C   UNL     1     -10.936  10.801  68.936  1.00  0.00    -0.289 C  
ENDROOT
BRANCH   2   3
HETATM    3  C   UNL     1      -9.759  10.293  69.782  1.00  0.00    -0.144 C  
BRANCH   3   4
HETATM    4  N   UNL     1      -8.489  10.246  69.046  1.00  0.00    -0.140 N  
HETATM    5  O   UNL     1      -6.959  10.300  70.803  1.00  0.00    -0.332 OA 
HETATM    6  C   UNL     1      -8.434  10.516  67.631  1.00  0.00    -0.115 C  
HETATM    7  C   UNL     1      -7.223  10.272  69.611  1.00  0.00    -0.140 C  
HETATM    8  C   UNL     1      -6.215  10.385  68.492  1.00  0.00    -0.047 C  
HETATM    9  C   UNL     1      -7.043  10.053  67.257  1.00  0.00    -0.085 C  
ENDBRANCH   3   4
BRANCH   3  10
HETATM   10  C   UNL     1     -10.068   8.934  70.438  1.00  0.00    -0.196 C  
HETATM   11  H2  UNL     1     -11.084   9.844  72.020  1.00  0.00     0.000 HD 
HETATM   12  N   UNL     1     -10.775   8.965  71.604  1.00  0.00    -0.321 N  
HETATM   13  O   UNL     1      -9.679   7.866  69.971  1.00  0.00    -0.178 OA 
HETATM   14  H1  UNL     1     -10.980   8.066  72.038  1.00  0.00     0.000 HD 
ENDBRANCH   3  10
ENDBRANCH   2   3
TORSDOF 3
ENDMDL
MODEL      226
REMARK 921   NORMALIZED FREE ENERGY PREDICTED BY IDOCK:   -1.88 KCAL/MOL
REMARK 922        TOTAL FREE ENERGY PREDICTED BY IDOCK:   -2.57 KCAL/MOL
REMARK 923 INTER-LIGAND FREE ENERGY PREDICTED BY IDOCK:   -2.30 KCAL/MOL
REMARK 924 INTRA-LIGAND FREE ENERGY PREDICTED BY IDOCK:   -0.27 KCAL/MOL
REMARK 927      BINDING AFFINITY PREDICTED BY RF-SCORE:    0.00 PKD
ROOT
HETATM    1  C   UNL     1      -9.911   8.635  71.245  1.00  0.00    -0.307 C  
HETATM    2  C   UNL     1     -10.048   7.315  70.495  1.00  0.00    -0.195 C  
ENDROOT
BRANCH   2   3
HETATM    3  C   UNL     1      -9.034   7.193  69.348  1.00  0.00    -0.136 C  
BRANCH   3   4
HETATM    4  N   UNL     1      -9.329   8.076  68.213  1.00  0.00    -0.140 N  
HETATM    5  O   UNL     1     -11.032   6.886  67.158  1.00  0.00    -0.361 OA 
HETATM    6  C   UNL     1      -8.417   9.122  67.823  1.00  0.00    -0.117 C  
HETATM    7  C   UNL     1     -10.273   7.840  67.224  1.00  0.00    -0.273 C  
HETATM    8  C   UNL     1     -10.119   8.907  66.168  1.00  0.00    -0.209 C  
HETATM    9  C   UNL     1      -9.245   9.945  66.860  1.00  0.00    -0.171 C  
ENDBRANCH   3   4
BRANCH   3  10
HETATM   10  C   UNL     1      -8.867   5.733  68.883  1.00  0.00    -0.110 C  
HETATM   11  H2  UNL     1     -10.650   5.157  69.808  1.00  0.00     0.000 HD 
HETATM   12  N   UNL     1      -9.848   4.859  69.252  1.00  0.00    -0.189 N  
HETATM   13  O   UNL     1      -7.894   5.347  68.241  1.00  0.00    -0.087 OA 
HETATM   14  H1  UNL     1      -9.737   3.893  68.945  1.00  0.00     0.000 HD 
ENDBRANCH   3  10
ENDBRANCH   2   3
TORSDOF 3
ENDMDL
MODEL      227
REMARK 921   NORMALIZED FREE ENERGY PREDICTED BY IDOCK:   -1.88 KCAL/MOL
REMARK 922        TOTAL FREE ENERGY PREDICTED BY IDOCK:   -2.56 KCAL/MOL
REMARK 923 INTER-LIGAND FREE ENERGY PREDICTED BY IDOCK:   -2.22 KCAL/MOL
REMARK 924 INTRA-LIGAND FREE ENERGY PREDICTED BY IDOCK:   -0.34 KCAL/MOL
REMARK 927      BINDING AFFINITY PREDICTED BY RF-SCORE:    0.00 PKD
ROOT
HETATM    1  C   UNL     1      -9.362   3.528  68.938  1.00  0.00    -0.236 C  
HETATM    2  C   UNL     1      -9.976   4.662  69.751  1.00  0.00    -0.295 C  
ENDROOT
BRANCH   2   3
HETATM    3  C   UNL     1      -9.536   6.044  69.241  1.00  0.00    -0.136 C  
BRANCH   3   4
HETATM    4  N   UNL     1      -8.398   6.603  69.982  1.00  0.00    -0.133 N  
HETATM    5  O   UNL     1      -6.684   6.332  68.426  1.00  0.00    -0.062 OA 
HETATM    6  C   UNL     1      -8.466   6.818  71.405  1.00  0.00    -0.120 C  
HETATM    7  C   UNL     1      -7.091   6.680  69.524  1.00  0.00    -0.076 C  
HETATM    8  C   UNL     1      -6.225   7.156  70.665  1.00  0.00    -0.035 C  
HETATM    9  C   UNL     1      -7.245   7.672  71.672  1.00  0.00    -0.064 C  
ENDBRANCH   3   4
BRANCH   3  10
HETATM   10  C   UNL     1     -10.711   7.039  69.198  1.00  0.00    -0.218 C  
HETATM   11  H2  UNL     1     -11.956   5.731  70.248  1.00  0.00     0.000 HD 
HETATM   12  N   UNL     1     -11.871   6.641  69.795  1.00  0.00    -0.654 N  
HETATM   13  O   UNL     1     -10.640   8.127  68.631  1.00  0.00    -0.193 OA 
HETATM   14  H1  UNL     1     -12.648   7.300  69.766  1.00  0.00     0.000 HD 
ENDBRANCH   3  10
ENDBRANCH   2   3
TORSDOF 3
ENDMDL
MODEL      228
REMARK 921   NORMALIZED FREE ENERGY PREDICTED BY IDOCK:   -1.87 KCAL/MOL
REMARK 922        TOTAL FREE ENERGY PREDICTED BY IDOCK:   -2.56 KCAL/MOL
REMARK 923 INTER-LIGAND FREE ENERGY PREDICTED BY IDOCK:   -2.48 KCAL/MOL
REMARK 924 INTRA-LIGAND FREE ENERGY PREDICTED BY IDOCK:   -0.09 KCAL/MOL
REMARK 927      BINDING AFFINITY PREDICTED BY RF-SCORE:    0.00 PKD
ROOT
HETATM    1  C   UNL     1     -11.246   9.895  70.769  1.00  0.00    -0.427 C  
HETATM    2  C   UNL     1     -10.925  10.076  69.290  1.00  0.00    -0.264 C  
ENDROOT
BRANCH   2   3
HETATM    3  C   UNL     1     -10.250   8.834  68.687  1.00  0.00    -0.194 C  
BRANCH   3   4
HETATM    4  N   UNL     1      -8.848   8.678  69.092  1.00  0.00    -0.137 N  
HETATM    5  O   UNL     1      -7.915  10.621  68.206  1.00  0.00    -0.107 OA 
HETATM    6  C   UNL     1      -8.336   7.407  69.540  1.00  0.00    -0.132 C  
HETATM    7  C   UNL     1      -7.817   9.561  68.805  1.00  0.00    -0.084 C  
HETATM    8  C   UNL     1      -6.522   8.928  69.253  1.00  0.00    -0.042 C  
HETATM    9  C   UNL     1      -6.994   7.779  70.134  1.00  0.00    -0.050 C  
ENDBRANCH   3   4
BRANCH   3  10
HETATM   10  C   UNL     1     -10.391   8.793  67.154  1.00  0.00    -0.293 C  
HETATM   11  H2  UNL     1     -10.467   6.705  67.143  1.00  0.00     0.000 HD 
HETATM   12  N   UNL     1     -10.486   7.558  66.583  1.00  0.00    -0.511 N  
HETATM   13  O   UNL     1     -10.385   9.805  66.458  1.00  0.00    -0.234 OA 
HETATM   14  H1  UNL     1     -10.579   7.530  65.568  1.00  0.00     0.000 HD 
ENDBRANCH   3  10
ENDBRANCH   2   3
TORSDOF 3
ENDMDL
MODEL      229
REMARK 921   NORMALIZED FREE ENERGY PREDICTED BY IDOCK:   -1.87 KCAL/MOL
REMARK 922        TOTAL FREE ENERGY PREDICTED BY IDOCK:   -2.55 KCAL/MOL
REMARK 923 INTER-LIGAND FREE ENERGY PREDICTED BY IDOCK:   -2.34 KCAL/MOL
REMARK 924 INTRA-LIGAND FREE ENERGY PREDICTED BY IDOCK:   -0.21 KCAL/MOL
REMARK 927      BINDING AFFINITY PREDICTED BY RF-SCORE:    0.00 PKD
ROOT
HETATM    1  C   UNL     1      -9.435  10.523  66.172  1.00  0.00    -0.222 C  
HETATM    2  C   UNL     1     -10.298  10.410  67.423  1.00  0.00    -0.275 C  
ENDROOT
BRANCH   2   3
HETATM    3  C   UNL     1      -9.574   9.674  68.561  1.00  0.00    -0.145 C  
BRANCH   3   4
HETATM    4  N   UNL     1      -8.928   8.428  68.132  1.00  0.00    -0.139 N  
HETATM    5  O   UNL     1     -10.787   7.141  67.564  1.00  0.00    -0.257 OA 
HETATM    6  C   UNL     1      -7.550   8.152  68.449  1.00  0.00    -0.105 C  
HETATM    7  C   UNL     1      -9.581   7.284  67.696  1.00  0.00    -0.135 C  
HETATM    8  C   UNL     1      -8.550   6.194  67.527  1.00  0.00    -0.106 C  
HETATM    9  C   UNL     1      -7.235   6.963  67.567  1.00  0.00    -0.090 C  
ENDBRANCH   3   4
BRANCH   3  10
HETATM   10  C   UNL     1     -10.502   9.428  69.767  1.00  0.00    -0.226 C  
HETATM   11  H2  UNL     1     -12.151  10.213  68.752  1.00  0.00     0.000 HD 
HETATM   12  N   UNL     1     -11.807   9.796  69.618  1.00  0.00    -0.445 N  
HETATM   13  O   UNL     1     -10.102   8.957  70.828  1.00  0.00    -0.195 OA 
HETATM   14  H1  UNL     1     -12.421   9.634  70.415  1.00  0.00     0.000 HD 
ENDBRANCH   3  10
ENDBRANCH   2   3
TORSDOF 3
ENDMDL
MODEL      230
REMARK 921   NORMALIZED FREE ENERGY PREDICTED BY IDOCK:   -1.85 KCAL/MOL
REMARK 922        TOTAL FREE ENERGY PREDICTED BY IDOCK:   -2.54 KCAL/MOL
REMARK 923 INTER-LIGAND FREE ENERGY PREDICTED BY IDOCK:   -2.61 KCAL/MOL
REMARK 924 INTRA-LIGAND FREE ENERGY PREDICTED BY IDOCK:    0.07 KCAL/MOL
REMARK 927      BINDING AFFINITY PREDICTED BY RF-SCORE:    0.00 PKD
ROOT
HETATM    1  C   UNL     1      -9.733   4.854  67.843  1.00  0.00    -0.202 C  
HETATM    2  C   UNL     1     -10.800   5.736  67.203  1.00  0.00    -0.308 C  
ENDROOT
BRANCH   2   3
HETATM    3  C   UNL     1     -10.933   7.092  67.914  1.00  0.00    -0.130 C  
BRANCH   3   4
HETATM    4  N   UNL     1     -10.124   8.153  67.302  1.00  0.00    -0.214 N  
HETATM    5  O   UNL     1     -11.446  10.022  67.740  1.00  0.00    -0.211 OA 
HETATM    6  C   UNL     1      -9.058   7.845  66.383  1.00  0.00    -0.179 C  
HETATM    7  C   UNL     1     -10.455   9.499  67.254  1.00  0.00    -0.262 C  
HETATM    8  C   UNL     1      -9.438  10.199  66.385  1.00  0.00    -0.223 C  
HETATM    9  C   UNL     1      -8.325   9.164  66.267  1.00  0.00    -0.121 C  
ENDBRANCH   3   4
BRANCH   3  10
HETATM   10  C   UNL     1     -10.645   6.978  69.424  1.00  0.00    -0.230 C  
HETATM   11  H2  UNL     1      -8.794   7.926  69.217  1.00  0.00     0.000 HD 
HETATM   12  N   UNL     1      -9.458   7.490  69.859  1.00  0.00    -0.161 N  
HETATM   13  O   UNL     1     -11.415   6.430  70.208  1.00  0.00    -0.370 OA 
HETATM   14  H1  UNL     1      -9.267   7.415  70.858  1.00  0.00     0.000 HD 
ENDBRANCH   3  10
ENDBRANCH   2   3
TORSDOF 3
ENDMDL
MODEL      231
REMARK 921   NORMALIZED FREE ENERGY PREDICTED BY IDOCK:   -1.84 KCAL/MOL
REMARK 922        TOTAL FREE ENERGY PREDICTED BY IDOCK:   -2.52 KCAL/MOL
REMARK 923 INTER-LIGAND FREE ENERGY PREDICTED BY IDOCK:   -2.24 KCAL/MOL
REMARK 924 INTRA-LIGAND FREE ENERGY PREDICTED BY IDOCK:   -0.28 KCAL/MOL
REMARK 927      BINDING AFFINITY PREDICTED BY RF-SCORE:    0.00 PKD
ROOT
HETATM    1  C   UNL     1      -8.146   6.123  67.297  1.00  0.00    -0.106 C  
HETATM    2  C   UNL     1      -9.310   7.103  67.209  1.00  0.00    -0.156 C  
ENDROOT
BRANCH   2   3
HETATM    3  C   UNL     1      -8.889   8.535  67.574  1.00  0.00    -0.135 C  
BRANCH   3   4
HETATM    4  N   UNL     1      -9.631   9.088  68.714  1.00  0.00    -0.151 N  
HETATM    5  O   UNL     1      -8.457   8.155  70.498  1.00  0.00    -0.119 OA 
HETATM    6  C   UNL     1     -10.934   9.679  68.543  1.00  0.00    -0.108 C  
HETATM    7  C   UNL     1      -9.365   8.839  70.052  1.00  0.00    -0.168 C  
HETATM    8  C   UNL     1     -10.471   9.460  70.871  1.00  0.00    -0.381 C  
HETATM    9  C   UNL     1     -11.162  10.375  69.868  1.00  0.00    -0.371 C  
ENDBRANCH   3   4
BRANCH   3  10
HETATM   10  C   UNL     1      -8.959   9.480  66.359  1.00  0.00    -0.154 C  
HETATM   11  H2  UNL     1      -7.616  10.822  67.233  1.00  0.00     0.000 HD 
HETATM   12  N   UNL     1      -8.200  10.612  66.422  1.00  0.00    -0.140 N  
HETATM   13  O   UNL     1      -9.678   9.263  65.388  1.00  0.00    -0.251 OA 
HETATM   14  H1  UNL     1      -8.246  11.238  65.619  1.00  0.00     0.000 HD 
ENDBRANCH   3  10
ENDBRANCH   2   3
TORSDOF 3
ENDMDL
MODEL      232
REMARK 921   NORMALIZED FREE ENERGY PREDICTED BY IDOCK:   -1.81 KCAL/MOL
REMARK 922        TOTAL FREE ENERGY PREDICTED BY IDOCK:   -2.48 KCAL/MOL
REMARK 923 INTER-LIGAND FREE ENERGY PREDICTED BY IDOCK:   -2.14 KCAL/MOL
REMARK 924 INTRA-LIGAND FREE ENERGY PREDICTED BY IDOCK:   -0.35 KCAL/MOL
REMARK 927      BINDING AFFINITY PREDICTED BY RF-SCORE:    0.00 PKD
ROOT
HETATM    1  C   UNL     1      -6.824   9.261  69.945  1.00  0.00    -0.055 C  
HETATM    2  C   UNL     1      -7.629  10.502  69.574  1.00  0.00    -0.148 C  
ENDROOT
BRANCH   2   3
HETATM    3  C   UNL     1      -9.101  10.172  69.287  1.00  0.00    -0.198 C  
BRANCH   3   4
HETATM    4  N   UNL     1      -9.289   9.317  68.108  1.00  0.00    -0.134 N  
HETATM    5  O   UNL     1      -8.438  10.691  66.429  1.00  0.00    -0.141 OA 
HETATM    6  C   UNL     1     -10.154   8.166  68.150  1.00  0.00    -0.198 C  
HETATM    7  C   UNL     1      -8.963   9.653  66.803  1.00  0.00    -0.138 C  
HETATM    8  C   UNL     1      -9.484   8.564  65.897  1.00  0.00    -0.207 C  
HETATM    9  C   UNL     1      -9.801   7.436  66.871  1.00  0.00    -0.284 C  
ENDBRANCH   3   4
BRANCH   3  10
HETATM   10  C   UNL     1      -9.965  11.444  69.190  1.00  0.00     0.019 C  
HETATM   11  H2  UNL     1      -8.351  12.577  68.499  1.00  0.00     0.000 HD 
HETATM   12  N   UNL     1      -9.340  12.575  68.750  1.00  0.00    -0.406 N  
HETATM   13  O   UNL     1     -11.149  11.471  69.518  1.00  0.00    -0.244 OA 
HETATM   14  H1  UNL     1      -9.912  13.416  68.686  1.00  0.00     0.000 HD 
ENDBRANCH   3  10
ENDBRANCH   2   3
TORSDOF 3
ENDMDL
MODEL      233
REMARK 921   NORMALIZED FREE ENERGY PREDICTED BY IDOCK:   -1.78 KCAL/MOL
REMARK 922        TOTAL FREE ENERGY PREDICTED BY IDOCK:   -2.46 KCAL/MOL
REMARK 923 INTER-LIGAND FREE ENERGY PREDICTED BY IDOCK:   -2.86 KCAL/MOL
REMARK 924 INTRA-LIGAND FREE ENERGY PREDICTED BY IDOCK:    0.40 KCAL/MOL
REMARK 927      BINDING AFFINITY PREDICTED BY RF-SCORE:    0.00 PKD
ROOT
HETATM    1  C   UNL     1      -8.125   7.873  68.778  1.00  0.00    -0.126 C  
HETATM    2  C   UNL     1      -8.783   9.118  69.361  1.00  0.00    -0.140 C  
ENDROOT
BRANCH   2   3
HETATM    3  C   UNL     1     -10.262   8.885  69.705  1.00  0.00    -0.206 C  
BRANCH   3   4
HETATM    4  N   UNL     1     -11.034  10.128  69.833  1.00  0.00    -0.273 N  
HETATM    5  O   UNL     1     -10.114  11.397  68.109  1.00  0.00    -0.178 OA 
HETATM    6  C   UNL     1     -11.798  10.414  71.021  1.00  0.00    -0.361 C  
HETATM    7  C   UNL     1     -10.882  11.262  69.049  1.00  0.00    -0.222 C  
HETATM    8  C   UNL     1     -11.744  12.353  69.635  1.00  0.00    -0.377 C  
HETATM    9  C   UNL     1     -12.649  11.591  70.595  1.00  0.00    -0.337 C  
ENDBRANCH   3   4
BRANCH   3  10
HETATM   10  C   UNL     1     -10.428   8.000  70.955  1.00  0.00    -0.202 C  
HETATM   11  H2  UNL     1      -8.655   8.722  71.792  1.00  0.00     0.000 HD 
HETATM   12  N   UNL     1      -9.453   8.096  71.904  1.00  0.00    -0.178 N  
HETATM   13  O   UNL     1     -11.364   7.217  71.096  1.00  0.00    -0.257 OA 
HETATM   14  H1  UNL     1      -9.562   7.510  72.731  1.00  0.00     0.000 HD 
ENDBRANCH   3  10
ENDBRANCH   2   3
TORSDOF 3
ENDMDL
MODEL      234
REMARK 921   NORMALIZED FREE ENERGY PREDICTED BY IDOCK:   -1.76 KCAL/MOL
REMARK 922        TOTAL FREE ENERGY PREDICTED BY IDOCK:   -2.43 KCAL/MOL
REMARK 923 INTER-LIGAND FREE ENERGY PREDICTED BY IDOCK:   -2.27 KCAL/MOL
REMARK 924 INTRA-LIGAND FREE ENERGY PREDICTED BY IDOCK:   -0.17 KCAL/MOL
REMARK 927      BINDING AFFINITY PREDICTED BY RF-SCORE:    0.00 PKD
ROOT
HETATM    1  C   UNL     1     -11.634   7.918  70.207  1.00  0.00    -0.022 C  
HETATM    2  C   UNL     1     -11.499   6.490  70.725  1.00  0.00    -0.419 C  
ENDROOT
BRANCH   2   3
HETATM    3  C   UNL     1     -10.562   6.400  71.940  1.00  0.00    -0.214 C  
BRANCH   3   4
HETATM    4  N   UNL     1      -9.176   6.775  71.636  1.00  0.00    -0.145 N  
HETATM    5  O   UNL     1      -8.870   8.559  73.105  1.00  0.00    -0.320 OA 
HETATM    6  C   UNL     1      -8.519   6.309  70.441  1.00  0.00    -0.134 C  
HETATM    7  C   UNL     1      -8.470   7.815  72.222  1.00  0.00    -0.128 C  
HETATM    8  C   UNL     1      -7.155   7.956  71.494  1.00  0.00    -0.065 C  
HETATM    9  C   UNL     1      -7.070   6.660  70.697  1.00  0.00    -0.069 C  
ENDBRANCH   3   4
BRANCH   3  10
HETATM   10  C   UNL     1     -10.626   5.015  72.612  1.00  0.00    -0.220 C  
HETATM   11  H2  UNL     1     -11.492   5.811  74.339  1.00  0.00     0.000 HD 
HETATM   12  N   UNL     1     -11.155   4.971  73.868  1.00  0.00    -0.355 N  
HETATM   13  O   UNL     1     -10.197   3.996  72.076  1.00  0.00    -0.176 OA 
HETATM   14  H1  UNL     1     -11.196   4.054  74.313  1.00  0.00     0.000 HD 
ENDBRANCH   3  10
ENDBRANCH   2   3
TORSDOF 3
ENDMDL
MODEL      235
REMARK 921   NORMALIZED FREE ENERGY PREDICTED BY IDOCK:   -1.75 KCAL/MOL
REMARK 922        TOTAL FREE ENERGY PREDICTED BY IDOCK:   -2.42 KCAL/MOL
REMARK 923 INTER-LIGAND FREE ENERGY PREDICTED BY IDOCK:   -2.11 KCAL/MOL
REMARK 924 INTRA-LIGAND FREE ENERGY PREDICTED BY IDOCK:   -0.31 KCAL/MOL
REMARK 927      BINDING AFFINITY PREDICTED BY RF-SCORE:    0.00 PKD
ROOT
HETATM    1  C   UNL     1     -10.501   5.412  66.207  1.00  0.00    -0.277 C  
HETATM    2  C   UNL     1     -10.961   5.874  67.585  1.00  0.00    -0.247 C  
ENDROOT
BRANCH   2   3
HETATM    3  C   UNL     1      -9.941   6.810  68.252  1.00  0.00    -0.146 C  
BRANCH   3   4
HETATM    4  N   UNL     1      -8.630   6.185  68.469  1.00  0.00    -0.113 N  
HETATM    5  O   UNL     1      -7.383   7.176  66.767  1.00  0.00    -0.080 OA 
HETATM    6  C   UNL     1      -8.489   5.011  69.292  1.00  0.00    -0.088 C  
HETATM    7  C   UNL     1      -7.491   6.405  67.709  1.00  0.00    -0.093 C  
HETATM    8  C   UNL     1      -6.430   5.433  68.166  1.00  0.00    -0.044 C  
HETATM    9  C   UNL     1      -6.990   4.916  69.485  1.00  0.00    -0.054 C  
ENDBRANCH   3   4
BRANCH   3  10
HETATM   10  C   UNL     1     -10.487   7.416  69.559  1.00  0.00    -0.232 C  
HETATM   11  H2  UNL     1     -12.096   6.084  69.591  1.00  0.00     0.000 HD 
HETATM   12  N   UNL     1     -11.628   6.861  70.059  1.00  0.00    -0.550 N  
HETATM   13  O   UNL     1      -9.957   8.371  70.121  1.00  0.00    -0.183 OA 
HETATM   14  H1  UNL     1     -11.990   7.262  70.924  1.00  0.00     0.000 HD 
ENDBRANCH   3  10
ENDBRANCH   2   3
TORSDOF 3
ENDMDL
MODEL      236
REMARK 921   NORMALIZED FREE ENERGY PREDICTED BY IDOCK:   -1.73 KCAL/MOL
REMARK 922        TOTAL FREE ENERGY PREDICTED BY IDOCK:   -2.39 KCAL/MOL
REMARK 923 INTER-LIGAND FREE ENERGY PREDICTED BY IDOCK:   -2.64 KCAL/MOL
REMARK 924 INTRA-LIGAND FREE ENERGY PREDICTED BY IDOCK:    0.25 KCAL/MOL
REMARK 927      BINDING AFFINITY PREDICTED BY RF-SCORE:    0.00 PKD
ROOT
HETATM    1  C   UNL     1      -8.699   7.815  67.936  1.00  0.00    -0.124 C  
HETATM    2  C   UNL     1      -8.158   6.390  67.888  1.00  0.00    -0.115 C  
ENDROOT
BRANCH   2   3
HETATM    3  C   UNL     1      -9.279   5.342  67.956  1.00  0.00    -0.110 C  
BRANCH   3   4
HETATM    4  N   UNL     1      -9.162   4.295  66.933  1.00  0.00    -0.136 N  
HETATM    5  O   UNL     1      -9.466   2.381  68.228  1.00  0.00    -0.205 OA 
HETATM    6  C   UNL     1      -8.601   4.576  65.636  1.00  0.00    -0.121 C  
HETATM    7  C   UNL     1      -9.245   2.929  67.158  1.00  0.00    -0.159 C  
HETATM    8  C   UNL     1      -8.893   2.222  65.872  1.00  0.00    -0.124 C  
HETATM    9  C   UNL     1      -8.965   3.341  64.841  1.00  0.00    -0.135 C  
ENDBRANCH   3   4
BRANCH   3  10
HETATM   10  C   UNL     1     -10.676   5.993  67.922  1.00  0.00    -0.284 C  
HETATM   11  H2  UNL     1     -10.660   6.091  65.834  1.00  0.00     0.000 HD 
HETATM   12  N   UNL     1     -11.181   6.290  66.689  1.00  0.00    -0.753 N  
HETATM   13  O   UNL     1     -11.305   6.270  68.939  1.00  0.00    -0.373 OA 
HETATM   14  H1  UNL     1     -12.104   6.721  66.667  1.00  0.00     0.000 HD 
ENDBRANCH   3  10
ENDBRANCH   2   3
TORSDOF 3
ENDMDL
MODEL      237
REMARK 921   NORMALIZED FREE ENERGY PREDICTED BY IDOCK:   -1.69 KCAL/MOL
REMARK 922        TOTAL FREE ENERGY PREDICTED BY IDOCK:   -2.35 KCAL/MOL
REMARK 923 INTER-LIGAND FREE ENERGY PREDICTED BY IDOCK:   -1.99 KCAL/MOL
REMARK 924 INTRA-LIGAND FREE ENERGY PREDICTED BY IDOCK:   -0.35 KCAL/MOL
REMARK 927      BINDING AFFINITY PREDICTED BY RF-SCORE:    0.00 PKD
ROOT
HETATM    1  C   UNL     1     -11.718   7.405  71.331  1.00  0.00    -0.316 C  
HETATM    2  C   UNL     1     -10.204   7.549  71.232  1.00  0.00    -0.198 C  
ENDROOT
BRANCH   2   3
HETATM    3  C   UNL     1      -9.715   7.542  69.775  1.00  0.00    -0.171 C  
BRANCH   3   4
HETATM    4  N   UNL     1      -9.454   6.194  69.255  1.00  0.00    -0.133 N  
HETATM    5  O   UNL     1     -11.195   5.969  67.721  1.00  0.00    -0.236 OA 
HETATM    6  C   UNL     1      -8.569   5.286  69.940  1.00  0.00    -0.102 C  
HETATM    7  C   UNL     1     -10.215   5.530  68.304  1.00  0.00    -0.178 C  
HETATM    8  C   UNL     1      -9.698   4.116  68.196  1.00  0.00    -0.152 C  
HETATM    9  C   UNL     1      -8.358   4.190  68.918  1.00  0.00    -0.089 C  
ENDBRANCH   3   4
BRANCH   3  10
HETATM   10  C   UNL     1      -8.492   8.457  69.576  1.00  0.00    -0.124 C  
HETATM   11  H2  UNL     1      -8.821   9.418  71.402  1.00  0.00     0.000 HD 
HETATM   12  N   UNL     1      -8.234   9.356  70.570  1.00  0.00    -0.183 N  
HETATM   13  O   UNL     1      -7.792   8.421  68.568  1.00  0.00    -0.115 OA 
HETATM   14  H1  UNL     1      -7.425   9.962  70.437  1.00  0.00     0.000 HD 
ENDBRANCH   3  10
ENDBRANCH   2   3
TORSDOF 3
ENDMDL
MODEL      238
REMARK 921   NORMALIZED FREE ENERGY PREDICTED BY IDOCK:   -1.69 KCAL/MOL
REMARK 922        TOTAL FREE ENERGY PREDICTED BY IDOCK:   -2.34 KCAL/MOL
REMARK 923 INTER-LIGAND FREE ENERGY PREDICTED BY IDOCK:   -2.79 KCAL/MOL
REMARK 924 INTRA-LIGAND FREE ENERGY PREDICTED BY IDOCK:    0.45 KCAL/MOL
REMARK 927      BINDING AFFINITY PREDICTED BY RF-SCORE:    0.00 PKD
ROOT
HETATM    1  C   UNL     1      -8.346  10.033  68.393  1.00  0.00    -0.111 C  
HETATM    2  C   UNL     1      -9.048  10.817  67.291  1.00  0.00    -0.151 C  
ENDROOT
BRANCH   2   3
HETATM    3  C   UNL     1      -9.106  12.321  67.597  1.00  0.00    -0.184 C  
BRANCH   3   4
HETATM    4  N   UNL     1      -9.752  13.108  66.539  1.00  0.00    -0.264 N  
HETATM    5  O   UNL     1      -9.901  11.520  64.839  1.00  0.00    -0.242 OA 
HETATM    6  C   UNL     1      -9.809  14.546  66.605  1.00  0.00    -0.273 C  
HETATM    7  C   UNL     1     -10.071  12.651  65.269  1.00  0.00    -0.253 C  
HETATM    8  C   UNL     1     -10.554  13.828  64.457  1.00  0.00    -0.405 C  
HETATM    9  C   UNL     1     -10.806  14.891  65.519  1.00  0.00    -0.365 C  
ENDBRANCH   3   4
BRANCH   3  10
HETATM   10  C   UNL     1      -7.715  12.891  67.937  1.00  0.00    -0.143 C  
HETATM   11  H2  UNL     1      -6.919  12.231  66.121  1.00  0.00     0.000 HD 
HETATM   12  N   UNL     1      -6.738  12.715  67.001  1.00  0.00    -0.350 N  
HETATM   13  O   UNL     1      -7.467  13.449  69.002  1.00  0.00    -0.055 OA 
HETATM   14  H1  UNL     1      -5.818  13.091  67.225  1.00  0.00     0.000 HD 
ENDBRANCH   3  10
ENDBRANCH   2   3
TORSDOF 3
ENDMDL
MODEL      239
REMARK 921   NORMALIZED FREE ENERGY PREDICTED BY IDOCK:   -1.69 KCAL/MOL
REMARK 922        TOTAL FREE ENERGY PREDICTED BY IDOCK:   -2.34 KCAL/MOL
REMARK 923 INTER-LIGAND FREE ENERGY PREDICTED BY IDOCK:   -2.18 KCAL/MOL
REMARK 924 INTRA-LIGAND FREE ENERGY PREDICTED BY IDOCK:   -0.16 KCAL/MOL
REMARK 927      BINDING AFFINITY PREDICTED BY RF-SCORE:    0.00 PKD
ROOT
HETATM    1  C   UNL     1     -12.027  12.170  68.666  1.00  0.00    -0.290 C  
HETATM    2  C   UNL     1     -10.509  12.242  68.787  1.00  0.00    -0.187 C  
ENDROOT
BRANCH   2   3
HETATM    3  C   UNL     1      -9.829  10.949  68.312  1.00  0.00    -0.170 C  
BRANCH   3   4
HETATM    4  N   UNL     1      -8.413  11.127  67.969  1.00  0.00    -0.130 N  
HETATM    5  O   UNL     1      -7.696   8.911  67.895  1.00  0.00    -0.099 OA 
HETATM    6  C   UNL     1      -7.767  12.409  68.099  1.00  0.00    -0.139 C  
HETATM    7  C   UNL     1      -7.482  10.111  67.811  1.00  0.00    -0.089 C  
HETATM    8  C   UNL     1      -6.123  10.745  67.639  1.00  0.00    -0.047 C  
HETATM    9  C   UNL     1      -6.463  12.203  67.358  1.00  0.00    -0.149 C  
ENDBRANCH   3   4
BRANCH   3  10
HETATM   10  C   UNL     1     -10.600  10.287  67.154  1.00  0.00    -0.260 C  
HETATM   11  H2  UNL     1     -10.812   8.501  68.217  1.00  0.00     0.000 HD 
HETATM   12  N   UNL     1     -11.007   9.000  67.349  1.00  0.00    -0.415 N  
HETATM   13  O   UNL     1     -10.818  10.858  66.088  1.00  0.00    -0.202 OA 
HETATM   14  H1  UNL     1     -11.517   8.562  66.582  1.00  0.00     0.000 HD 
ENDBRANCH   3  10
ENDBRANCH   2   3
TORSDOF 3
ENDMDL
MODEL      240
REMARK 921   NORMALIZED FREE ENERGY PREDICTED BY IDOCK:   -1.65 KCAL/MOL
REMARK 922        TOTAL FREE ENERGY PREDICTED BY IDOCK:   -2.30 KCAL/MOL
REMARK 923 INTER-LIGAND FREE ENERGY PREDICTED BY IDOCK:   -2.33 KCAL/MOL
REMARK 924 INTRA-LIGAND FREE ENERGY PREDICTED BY IDOCK:    0.03 KCAL/MOL
REMARK 927      BINDING AFFINITY PREDICTED BY RF-SCORE:    0.00 PKD
ROOT
HETATM    1  C   UNL     1      -8.570  12.928  67.773  1.00  0.00    -0.185 C  
HETATM    2  C   UNL     1      -9.062  11.621  68.384  1.00  0.00    -0.180 C  
ENDROOT
BRANCH   2   3
HETATM    3  C   UNL     1      -9.796  10.743  67.358  1.00  0.00    -0.177 C  
BRANCH   3   4
HETATM    4  N   UNL     1      -9.045   9.542  66.974  1.00  0.00    -0.133 N  
HETATM    5  O   UNL     1     -10.746   7.949  66.943  1.00  0.00    -0.333 OA 
HETATM    6  C   UNL     1      -7.606   9.503  67.053  1.00  0.00    -0.091 C  
HETATM    7  C   UNL     1      -9.573   8.269  66.821  1.00  0.00    -0.224 C  
HETATM    8  C   UNL     1      -8.428   7.312  66.597  1.00  0.00    -0.124 C  
HETATM    9  C   UNL     1      -7.264   8.244  66.285  1.00  0.00    -0.074 C  
ENDBRANCH   3   4
BRANCH   3  10
HETATM   10  C   UNL     1     -10.224  11.548  66.116  1.00  0.00    -0.232 C  
HETATM   11  H2  UNL     1     -12.109  11.941  66.927  1.00  0.00     0.000 HD 
HETATM   12  N   UNL     1     -11.483  12.074  66.133  1.00  0.00    -0.357 N  
HETATM   13  O   UNL     1      -9.498  11.694  65.136  1.00  0.00    -0.216 OA 
HETATM   14  H1  UNL     1     -11.765  12.606  65.311  1.00  0.00     0.000 HD 
ENDBRANCH   3  10
ENDBRANCH   2   3
TORSDOF 3
ENDMDL
MODEL      241
REMARK 921   NORMALIZED FREE ENERGY PREDICTED BY IDOCK:   -1.65 KCAL/MOL
REMARK 922        TOTAL FREE ENERGY PREDICTED BY IDOCK:   -2.30 KCAL/MOL
REMARK 923 INTER-LIGAND FREE ENERGY PREDICTED BY IDOCK:   -2.56 KCAL/MOL
REMARK 924 INTRA-LIGAND FREE ENERGY PREDICTED BY IDOCK:    0.26 KCAL/MOL
REMARK 927      BINDING AFFINITY PREDICTED BY RF-SCORE:    0.00 PKD
ROOT
HETATM    1  C   UNL     1      -6.915   9.696  66.241  1.00  0.00    -0.092 C  
HETATM    2  C   UNL     1      -7.379   8.382  65.624  1.00  0.00    -0.076 C  
ENDROOT
BRANCH   2   3
HETATM    3  C   UNL     1      -8.903   8.207  65.711  1.00  0.00    -0.135 C  
BRANCH   3   4
HETATM    4  N   UNL     1      -9.625   9.472  65.898  1.00  0.00    -0.242 N  
HETATM    5  O   UNL     1      -9.664  10.283  63.713  1.00  0.00    -0.302 OA 
HETATM    6  C   UNL     1      -9.798  10.048  67.207  1.00  0.00    -0.181 C  
HETATM    7  C   UNL     1      -9.920  10.392  64.903  1.00  0.00    -0.339 C  
HETATM    8  C   UNL     1     -10.508  11.618  65.559  1.00  0.00    -0.321 C  
HETATM    9  C   UNL     1     -10.833  11.125  66.964  1.00  0.00    -0.338 C  
ENDBRANCH   3   4
BRANCH   3  10
HETATM   10  C   UNL     1      -9.302   7.179  66.786  1.00  0.00    -0.161 C  
HETATM   11  H2  UNL     1      -7.349   7.078  67.521  1.00  0.00     0.000 HD 
HETATM   12  N   UNL     1      -8.308   6.741  67.611  1.00  0.00    -0.122 N  
HETATM   13  O   UNL     1     -10.443   6.737  66.893  1.00  0.00    -0.251 OA 
HETATM   14  H1  UNL     1      -8.572   6.061  68.323  1.00  0.00     0.000 HD 
ENDBRANCH   3  10
ENDBRANCH   2   3
TORSDOF 3
ENDMDL
MODEL      242
REMARK 921   NORMALIZED FREE ENERGY PREDICTED BY IDOCK:   -1.65 KCAL/MOL
REMARK 922        TOTAL FREE ENERGY PREDICTED BY IDOCK:   -2.30 KCAL/MOL
REMARK 923 INTER-LIGAND FREE ENERGY PREDICTED BY IDOCK:   -2.88 KCAL/MOL
REMARK 924 INTRA-LIGAND FREE ENERGY PREDICTED BY IDOCK:    0.58 KCAL/MOL
REMARK 927      BINDING AFFINITY PREDICTED BY RF-SCORE:    0.00 PKD
ROOT
HETATM    1  C   UNL     1      -8.009   8.917  68.592  1.00  0.00    -0.103 C  
HETATM    2  C   UNL     1      -9.356   9.083  69.287  1.00  0.00    -0.150 C  
ENDROOT
BRANCH   2   3
HETATM    3  C   UNL     1     -10.111   7.751  69.409  1.00  0.00    -0.195 C  
BRANCH   3   4
HETATM    4  N   UNL     1     -11.274   7.820  70.304  1.00  0.00    -0.243 N  
HETATM    5  O   UNL     1     -11.117  10.019  71.060  1.00  0.00    -0.343 OA 
HETATM    6  C   UNL     1     -11.940   6.625  70.758  1.00  0.00    -0.353 C  
HETATM    7  C   UNL     1     -11.657   8.923  71.052  1.00  0.00    -0.293 C  
HETATM    8  C   UNL     1     -12.790   8.503  71.956  1.00  0.00    -0.414 C  
HETATM    9  C   UNL     1     -13.217   7.165  71.364  1.00  0.00    -0.391 C  
ENDBRANCH   3   4
BRANCH   3  10
HETATM   10  C   UNL     1      -9.174   6.594  69.809  1.00  0.00    -0.146 C  
HETATM   11  H2  UNL     1      -9.629   5.527  68.072  1.00  0.00     0.000 HD 
HETATM   12  N   UNL     1      -9.096   5.545  68.941  1.00  0.00    -0.117 N  
HETATM   13  O   UNL     1      -8.547   6.581  70.865  1.00  0.00    -0.133 OA 
HETATM   14  H1  UNL     1      -8.476   4.780  69.206  1.00  0.00     0.000 HD 
ENDBRANCH   3  10
ENDBRANCH   2   3
TORSDOF 3
ENDMDL
MODEL      243
REMARK 921   NORMALIZED FREE ENERGY PREDICTED BY IDOCK:   -1.65 KCAL/MOL
REMARK 922        TOTAL FREE ENERGY PREDICTED BY IDOCK:   -2.30 KCAL/MOL
REMARK 923 INTER-LIGAND FREE ENERGY PREDICTED BY IDOCK:   -2.80 KCAL/MOL
REMARK 924 INTRA-LIGAND FREE ENERGY PREDICTED BY IDOCK:    0.50 KCAL/MOL
REMARK 927      BINDING AFFINITY PREDICTED BY RF-SCORE:    0.00 PKD
ROOT
HETATM    1  C   UNL     1     -11.214  15.706  67.938  1.00  0.00    -0.328 C  
HETATM    2  C   UNL     1     -11.384  14.316  67.335  1.00  0.00    -0.349 C  
ENDROOT
BRANCH   2   3
HETATM    3  C   UNL     1     -10.049  13.725  66.856  1.00  0.00    -0.260 C  
BRANCH   3   4
HETATM    4  N   UNL     1      -9.867  12.316  67.229  1.00  0.00    -0.203 N  
HETATM    5  O   UNL     1     -11.147  12.207  69.174  1.00  0.00    -0.232 OA 
HETATM    6  C   UNL     1      -8.819  11.518  66.647  1.00  0.00    -0.187 C  
HETATM    7  C   UNL     1     -10.408  11.697  68.346  1.00  0.00    -0.204 C  
HETATM    8  C   UNL     1      -9.826  10.307  68.436  1.00  0.00    -0.168 C  
HETATM    9  C   UNL     1      -9.199  10.113  67.061  1.00  0.00    -0.166 C  
ENDBRANCH   3   4
BRANCH   3  10
HETATM   10  C   UNL     1      -8.849  14.576  67.312  1.00  0.00    -0.208 C  
HETATM   11  H2  UNL     1      -8.635  15.425  65.414  1.00  0.00     0.000 HD 
HETATM   12  N   UNL     1      -8.282  15.385  66.371  1.00  0.00    -0.348 N  
HETATM   13  O   UNL     1      -8.387  14.521  68.449  1.00  0.00    -0.140 OA 
HETATM   14  H1  UNL     1      -7.487  15.948  66.672  1.00  0.00     0.000 HD 
ENDBRANCH   3  10
ENDBRANCH   2   3
TORSDOF 3
ENDMDL
MODEL      244
REMARK 921   NORMALIZED FREE ENERGY PREDICTED BY IDOCK:   -1.63 KCAL/MOL
REMARK 922        TOTAL FREE ENERGY PREDICTED BY IDOCK:   -2.28 KCAL/MOL
REMARK 923 INTER-LIGAND FREE ENERGY PREDICTED BY IDOCK:   -2.30 KCAL/MOL
REMARK 924 INTRA-LIGAND FREE ENERGY PREDICTED BY IDOCK:    0.02 KCAL/MOL
REMARK 927      BINDING AFFINITY PREDICTED BY RF-SCORE:    0.00 PKD
ROOT
HETATM    1  C   UNL     1      -7.835  12.958  68.406  1.00  0.00    -0.133 C  
HETATM    2  C   UNL     1      -7.807  12.205  67.080  1.00  0.00    -0.160 C  
ENDROOT
BRANCH   2   3
HETATM    3  C   UNL     1      -9.175  11.598  66.731  1.00  0.00    -0.186 C  
BRANCH   3   4
HETATM    4  N   UNL     1      -9.100  10.191  66.317  1.00  0.00    -0.151 N  
HETATM    5  O   UNL     1      -7.471  10.309  64.654  1.00  0.00    -0.142 OA 
HETATM    6  C   UNL     1     -10.129   9.249  66.679  1.00  0.00    -0.271 C  
HETATM    7  C   UNL     1      -8.282   9.682  65.319  1.00  0.00    -0.131 C  
HETATM    8  C   UNL     1      -8.652   8.234  65.106  1.00  0.00    -0.132 C  
HETATM    9  C   UNL     1      -9.499   7.917  66.332  1.00  0.00    -0.258 C  
ENDBRANCH   3   4
BRANCH   3  10
HETATM   10  C   UNL     1      -9.927  12.443  65.684  1.00  0.00    -0.244 C  
HETATM   11  H2  UNL     1      -8.409  13.878  65.643  1.00  0.00     0.000 HD 
HETATM   12  N   UNL     1      -9.317  13.592  65.275  1.00  0.00    -0.201 N  
HETATM   13  O   UNL     1     -11.034  12.134  65.252  1.00  0.00    -0.288 OA 
HETATM   14  H1  UNL     1      -9.814  14.151  64.583  1.00  0.00     0.000 HD 
ENDBRANCH   3  10
ENDBRANCH   2   3
TORSDOF 3
ENDMDL
MODEL      245
REMARK 921   NORMALIZED FREE ENERGY PREDICTED BY IDOCK:   -1.63 KCAL/MOL
REMARK 922        TOTAL FREE ENERGY PREDICTED BY IDOCK:   -2.27 KCAL/MOL
REMARK 923 INTER-LIGAND FREE ENERGY PREDICTED BY IDOCK:   -2.47 KCAL/MOL
REMARK 924 INTRA-LIGAND FREE ENERGY PREDICTED BY IDOCK:    0.19 KCAL/MOL
REMARK 927      BINDING AFFINITY PREDICTED BY RF-SCORE:    0.00 PKD
ROOT
HETATM    1  C   UNL     1     -11.070  12.778  66.168  1.00  0.00    -0.322 C  
HETATM    2  C   UNL     1     -11.622  13.147  67.540  1.00  0.00    -0.398 C  
ENDROOT
BRANCH   2   3
HETATM    3  C   UNL     1     -10.791  14.244  68.223  1.00  0.00    -0.246 C  
BRANCH   3   4
HETATM    4  N   UNL     1     -11.378  14.721  69.482  1.00  0.00    -0.269 N  
HETATM    5  O   UNL     1      -9.508  15.655  70.513  1.00  0.00     0.459 OA 
HETATM    6  C   UNL     1     -12.671  14.265  69.925  1.00  0.00    -0.046 C  
HETATM    7  C   UNL     1     -10.692  15.357  70.506  1.00  0.00    -0.261 C  
HETATM    8  C   UNL     1     -11.637  15.512  71.674  1.00  0.00    -0.502 C  
HETATM    9  C   UNL     1     -12.996  15.224  71.049  1.00  0.00    -0.526 C  
ENDBRANCH   3   4
BRANCH   3  10
HETATM   10  C   UNL     1     -10.498  15.418  67.270  1.00  0.00    -0.282 C  
HETATM   11  H2  UNL     1     -12.346  15.205  66.319  1.00  0.00     0.000 HD 
HETATM   12  N   UNL     1     -11.470  15.726  66.363  1.00  0.00     0.141 N  
HETATM   13  O   UNL     1      -9.437  16.038  67.285  1.00  0.00    -0.213 OA 
HETATM   14  H1  UNL     1     -11.276  16.502  65.732  1.00  0.00     0.000 HD 
ENDBRANCH   3  10
ENDBRANCH   2   3
TORSDOF 3
ENDMDL
MODEL      246
REMARK 921   NORMALIZED FREE ENERGY PREDICTED BY IDOCK:   -1.62 KCAL/MOL
REMARK 922        TOTAL FREE ENERGY PREDICTED BY IDOCK:   -2.27 KCAL/MOL
REMARK 923 INTER-LIGAND FREE ENERGY PREDICTED BY IDOCK:   -1.94 KCAL/MOL
REMARK 924 INTRA-LIGAND FREE ENERGY PREDICTED BY IDOCK:   -0.33 KCAL/MOL
REMARK 927      BINDING AFFINITY PREDICTED BY RF-SCORE:    0.00 PKD
ROOT
HETATM    1  C   UNL     1      -7.261   5.395  65.271  1.00  0.00    -0.067 C  
HETATM    2  C   UNL     1      -8.440   5.746  66.171  1.00  0.00    -0.130 C  
ENDROOT
BRANCH   2   3
HETATM    3  C   UNL     1      -7.996   6.075  67.604  1.00  0.00    -0.102 C  
BRANCH   3   4
HETATM    4  N   UNL     1      -9.086   5.996  68.585  1.00  0.00    -0.117 N  
HETATM    5  O   UNL     1      -7.932   5.243  70.465  1.00  0.00    -0.094 OA 
HETATM    6  C   UNL     1     -10.466   6.023  68.173  1.00  0.00    -0.236 C  
HETATM    7  C   UNL     1      -8.964   5.577  69.902  1.00  0.00    -0.127 C  
HETATM    8  C   UNL     1     -10.350   5.482  70.492  1.00  0.00    -0.342 C  
HETATM    9  C   UNL     1     -11.201   6.237  69.479  1.00  0.00    -0.500 C  
ENDBRANCH   3   4
BRANCH   3  10
HETATM   10  C   UNL     1      -7.278   7.436  67.684  1.00  0.00    -0.094 C  
HETATM   11  H2  UNL     1      -8.749   8.363  66.524  1.00  0.00     0.000 HD 
HETATM   12  N   UNL     1      -7.873   8.479  67.035  1.00  0.00    -0.096 N  
HETATM   13  O   UNL     1      -6.209   7.591  68.267  1.00  0.00    -0.034 OA 
HETATM   14  H1  UNL     1      -7.399   9.379  67.088  1.00  0.00     0.000 HD 
ENDBRANCH   3  10
ENDBRANCH   2   3
TORSDOF 3
ENDMDL
MODEL      247
REMARK 921   NORMALIZED FREE ENERGY PREDICTED BY IDOCK:   -1.62 KCAL/MOL
REMARK 922        TOTAL FREE ENERGY PREDICTED BY IDOCK:   -2.26 KCAL/MOL
REMARK 923 INTER-LIGAND FREE ENERGY PREDICTED BY IDOCK:   -1.92 KCAL/MOL
REMARK 924 INTRA-LIGAND FREE ENERGY PREDICTED BY IDOCK:   -0.34 KCAL/MOL
REMARK 927      BINDING AFFINITY PREDICTED BY RF-SCORE:    0.00 PKD
ROOT
HETATM    1  C   UNL     1      -8.571   3.655  68.764  1.00  0.00    -0.118 C  
HETATM    2  C   UNL     1      -9.764   4.485  69.227  1.00  0.00    -0.260 C  
ENDROOT
BRANCH   2   3
HETATM    3  C   UNL     1      -9.333   5.722  70.029  1.00  0.00    -0.146 C  
BRANCH   3   4
HETATM    4  N   UNL     1      -8.762   5.396  71.342  1.00  0.00    -0.130 N  
HETATM    5  O   UNL     1      -6.490   5.708  70.924  1.00  0.00    -0.033 OA 
HETATM    6  C   UNL     1      -9.534   4.702  72.341  1.00  0.00    -0.135 C  
HETATM    7  C   UNL     1      -7.413   5.400  71.663  1.00  0.00    -0.091 C  
HETATM    8  C   UNL     1      -7.263   4.835  73.055  1.00  0.00    -0.081 C  
HETATM    9  C   UNL     1      -8.690   4.865  73.587  1.00  0.00    -0.103 C  
ENDBRANCH   3   4
BRANCH   3  10
HETATM   10  C   UNL     1     -10.476   6.746  70.162  1.00  0.00    -0.209 C  
HETATM   11  H2  UNL     1      -9.139   8.295  70.584  1.00  0.00     0.000 HD 
HETATM   12  N   UNL     1     -10.116   8.028  70.458  1.00  0.00    -0.191 N  
HETATM   13  O   UNL     1     -11.660   6.440  70.046  1.00  0.00    -0.425 OA 
HETATM   14  H1  UNL     1     -10.872   8.706  70.547  1.00  0.00     0.000 HD 
ENDBRANCH   3  10
ENDBRANCH   2   3
TORSDOF 3
ENDMDL
MODEL      248
REMARK 921   NORMALIZED FREE ENERGY PREDICTED BY IDOCK:   -1.61 KCAL/MOL
REMARK 922        TOTAL FREE ENERGY PREDICTED BY IDOCK:   -2.26 KCAL/MOL
REMARK 923 INTER-LIGAND FREE ENERGY PREDICTED BY IDOCK:   -1.96 KCAL/MOL
REMARK 924 INTRA-LIGAND FREE ENERGY PREDICTED BY IDOCK:   -0.30 KCAL/MOL
REMARK 927      BINDING AFFINITY PREDICTED BY RF-SCORE:    0.00 PKD
ROOT
HETATM    1  C   UNL     1      -9.244   3.211  67.928  1.00  0.00    -0.243 C  
HETATM    2  C   UNL     1      -9.796   4.554  67.462  1.00  0.00    -0.191 C  
ENDROOT
BRANCH   2   3
HETATM    3  C   UNL     1      -8.711   5.641  67.416  1.00  0.00    -0.107 C  
BRANCH   3   4
HETATM    4  N   UNL     1      -9.122   6.902  68.044  1.00  0.00    -0.121 N  
HETATM    5  O   UNL     1      -7.056   7.766  68.690  1.00  0.00    -0.072 OA 
HETATM    6  C   UNL     1     -10.494   7.139  68.418  1.00  0.00    -0.197 C  
HETATM    7  C   UNL     1      -8.275   7.829  68.633  1.00  0.00    -0.128 C  
HETATM    8  C   UNL     1      -9.126   8.879  69.305  1.00  0.00    -0.145 C  
HETATM    9  C   UNL     1     -10.507   8.624  68.715  1.00  0.00    -0.209 C  
ENDBRANCH   3   4
BRANCH   3  10
HETATM   10  C   UNL     1      -8.199   5.879  65.983  1.00  0.00    -0.123 C  
HETATM   11  H2  UNL     1      -9.749   7.218  65.572  1.00  0.00     0.000 HD 
HETATM   12  N   UNL     1      -8.916   6.749  65.215  1.00  0.00    -0.358 N  
HETATM   13  O   UNL     1      -7.217   5.301  65.523  1.00  0.00    -0.066 OA 
HETATM   14  H1  UNL     1      -8.577   6.906  64.266  1.00  0.00     0.000 HD 
ENDBRANCH   3  10
ENDBRANCH   2   3
TORSDOF 3
ENDMDL
MODEL      249
REMARK 921   NORMALIZED FREE ENERGY PREDICTED BY IDOCK:   -1.59 KCAL/MOL
REMARK 922        TOTAL FREE ENERGY PREDICTED BY IDOCK:   -2.23 KCAL/MOL
REMARK 923 INTER-LIGAND FREE ENERGY PREDICTED BY IDOCK:   -2.13 KCAL/MOL
REMARK 924 INTRA-LIGAND FREE ENERGY PREDICTED BY IDOCK:   -0.10 KCAL/MOL
REMARK 927      BINDING AFFINITY PREDICTED BY RF-SCORE:    0.00 PKD
ROOT
HETATM    1  C   UNL     1      -7.442   8.793  71.176  1.00  0.00    -0.115 C  
HETATM    2  C   UNL     1      -8.661   7.941  71.509  1.00  0.00    -0.150 C  
ENDROOT
BRANCH   2   3
HETATM    3  C   UNL     1      -8.897   6.836  70.469  1.00  0.00    -0.151 C  
BRANCH   3   4
HETATM    4  N   UNL     1      -8.976   7.338  69.091  1.00  0.00    -0.135 N  
HETATM    5  O   UNL     1     -10.589   9.004  69.323  1.00  0.00    -0.227 OA 
HETATM    6  C   UNL     1      -8.428   6.588  67.989  1.00  0.00    -0.119 C  
HETATM    7  C   UNL     1      -9.814   8.348  68.644  1.00  0.00    -0.170 C  
HETATM    8  C   UNL     1      -9.697   8.419  67.140  1.00  0.00    -0.250 C  
HETATM    9  C   UNL     1      -8.448   7.595  66.859  1.00  0.00    -0.126 C  
ENDBRANCH   3   4
BRANCH   3  10
HETATM   10  C   UNL     1     -10.128   5.976  70.815  1.00  0.00    -0.197 C  
HETATM   11  H2  UNL     1     -10.829   7.395  72.179  1.00  0.00     0.000 HD 
HETATM   12  N   UNL     1     -10.990   6.489  71.739  1.00  0.00    -0.238 N  
HETATM   13  O   UNL     1     -10.326   4.869  70.321  1.00  0.00    -0.254 OA 
HETATM   14  H1  UNL     1     -11.805   5.919  71.968  1.00  0.00     0.000 HD 
ENDBRANCH   3  10
ENDBRANCH   2   3
TORSDOF 3
ENDMDL
MODEL      250
REMARK 921   NORMALIZED FREE ENERGY PREDICTED BY IDOCK:   -1.57 KCAL/MOL
REMARK 922        TOTAL FREE ENERGY PREDICTED BY IDOCK:   -2.21 KCAL/MOL
REMARK 923 INTER-LIGAND FREE ENERGY PREDICTED BY IDOCK:   -2.76 KCAL/MOL
REMARK 924 INTRA-LIGAND FREE ENERGY PREDICTED BY IDOCK:    0.55 KCAL/MOL
REMARK 927      BINDING AFFINITY PREDICTED BY RF-SCORE:    0.00 PKD
ROOT
HETATM    1  C   UNL     1     -10.498  14.807  67.398  1.00  0.00    -0.256 C  
HETATM    2  C   UNL     1      -9.623  13.609  67.047  1.00  0.00    -0.251 C  
ENDROOT
BRANCH   2   3
HETATM    3  C   UNL     1     -10.456  12.353  66.747  1.00  0.00    -0.221 C  
BRANCH   3   4
HETATM    4  N   UNL     1     -10.168  11.763  65.433  1.00  0.00    -0.251 N  
HETATM    5  O   UNL     1     -10.067  13.676  64.105  1.00  0.00    -0.240 OA 
HETATM    6  C   UNL     1     -10.352  10.355  65.189  1.00  0.00    -0.190 C  
HETATM    7  C   UNL     1     -10.020  12.463  64.245  1.00  0.00    -0.206 C  
HETATM    8  C   UNL     1      -9.912  11.460  63.122  1.00  0.00    -0.402 C  
HETATM    9  C   UNL     1      -9.654  10.152  63.861  1.00  0.00    -0.302 C  
ENDBRANCH   3   4
BRANCH   3  10
HETATM   10  C   UNL     1     -11.965  12.610  66.918  1.00  0.00    -0.275 C  
HETATM   11  H2  UNL     1     -12.066  13.660  65.114  1.00  0.00     0.000 HD 
HETATM   12  N   UNL     1     -12.580  13.319  65.927  1.00  0.00    -0.366 N  
HETATM   13  O   UNL     1     -12.596  12.235  67.903  1.00  0.00     0.205 OA 
HETATM   14  H1  UNL     1     -13.578  13.489  66.040  1.00  0.00     0.000 HD 
ENDBRANCH   3  10
ENDBRANCH   2   3
TORSDOF 3
ENDMDL
MODEL      251
REMARK 921   NORMALIZED FREE ENERGY PREDICTED BY IDOCK:   -1.55 KCAL/MOL
REMARK 922        TOTAL FREE ENERGY PREDICTED BY IDOCK:   -2.18 KCAL/MOL
REMARK 923 INTER-LIGAND FREE ENERGY PREDICTED BY IDOCK:   -2.66 KCAL/MOL
REMARK 924 INTRA-LIGAND FREE ENERGY PREDICTED BY IDOCK:    0.47 KCAL/MOL
REMARK 927      BINDING AFFINITY PREDICTED BY RF-SCORE:    0.00 PKD
ROOT
HETATM    1  C   UNL     1     -11.665  13.178  69.178  1.00  0.00    -0.376 C  
HETATM    2  C   UNL     1     -11.843  12.074  68.142  1.00  0.00    -0.352 C  
ENDROOT
BRANCH   2   3
HETATM    3  C   UNL     1     -10.506  11.434  67.743  1.00  0.00    -0.185 C  
BRANCH   3   4
HETATM    4  N   UNL     1     -10.071  10.372  68.659  1.00  0.00    -0.168 N  
HETATM    5  O   UNL     1      -8.934   8.962  67.192  1.00  0.00    -0.125 OA 
HETATM    6  C   UNL     1     -10.651  10.233  69.971  1.00  0.00    -0.269 C  
HETATM    7  C   UNL     1      -9.352   9.240  68.306  1.00  0.00    -0.134 C  
HETATM    8  C   UNL     1      -9.276   8.339  69.515  1.00  0.00    -0.158 C  
HETATM    9  C   UNL     1      -9.713   9.258  70.649  1.00  0.00    -0.334 C  
ENDBRANCH   3   4
BRANCH   3  10
HETATM   10  C   UNL     1      -9.398  12.488  67.554  1.00  0.00    -0.187 C  
HETATM   11  H2  UNL     1      -7.942  11.206  68.331  1.00  0.00     0.000 HD 
HETATM   12  N   UNL     1      -8.140  12.127  67.938  1.00  0.00    -0.142 N  
HETATM   13  O   UNL     1      -9.619  13.613  67.113  1.00  0.00    -0.226 OA 
HETATM   14  H1  UNL     1      -7.407  12.825  67.814  1.00  0.00     0.000 HD 
ENDBRANCH   3  10
ENDBRANCH   2   3
TORSDOF 3
ENDMDL
MODEL      252
REMARK 921   NORMALIZED FREE ENERGY PREDICTED BY IDOCK:   -1.53 KCAL/MOL
REMARK 922        TOTAL FREE ENERGY PREDICTED BY IDOCK:   -2.16 KCAL/MOL
REMARK 923 INTER-LIGAND FREE ENERGY PREDICTED BY IDOCK:   -2.73 KCAL/MOL
REMARK 924 INTRA-LIGAND FREE ENERGY PREDICTED BY IDOCK:    0.58 KCAL/MOL
REMARK 927      BINDING AFFINITY PREDICTED BY RF-SCORE:    0.00 PKD
ROOT
HETATM    1  C   UNL     1     -10.595  14.528  67.242  1.00  0.00    -0.280 C  
HETATM    2  C   UNL     1      -9.777  13.907  66.115  1.00  0.00    -0.289 C  
ENDROOT
BRANCH   2   3
HETATM    3  C   UNL     1      -8.752  12.888  66.637  1.00  0.00    -0.037 C  
BRANCH   3   4
HETATM    4  N   UNL     1      -9.019  11.514  66.195  1.00  0.00    -0.209 N  
HETATM    5  O   UNL     1     -11.254  11.279  66.814  1.00  0.00    -0.286 OA 
HETATM    6  C   UNL     1      -7.944  10.609  65.876  1.00  0.00    -0.157 C  
HETATM    7  C   UNL     1     -10.220  10.835  66.337  1.00  0.00    -0.240 C  
HETATM    8  C   UNL     1     -10.001   9.403  65.912  1.00  0.00    -0.327 C  
HETATM    9  C   UNL     1      -8.662   9.467  65.188  1.00  0.00    -0.200 C  
ENDBRANCH   3   4
BRANCH   3  10
HETATM   10  C   UNL     1      -8.604  12.957  68.169  1.00  0.00    -0.188 C  
HETATM   11  H2  UNL     1     -10.031  11.457  68.449  1.00  0.00     0.000 HD 
HETATM   12  N   UNL     1      -9.384  12.106  68.897  1.00  0.00    -0.393 N  
HETATM   13  O   UNL     1      -7.854  13.752  68.730  1.00  0.00    -0.128 OA 
HETATM   14  H1  UNL     1      -9.286  12.152  69.910  1.00  0.00     0.000 HD 
ENDBRANCH   3  10
ENDBRANCH   2   3
TORSDOF 3
ENDMDL
MODEL      253
REMARK 921   NORMALIZED FREE ENERGY PREDICTED BY IDOCK:   -1.53 KCAL/MOL
REMARK 922        TOTAL FREE ENERGY PREDICTED BY IDOCK:   -2.15 KCAL/MOL
REMARK 923 INTER-LIGAND FREE ENERGY PREDICTED BY IDOCK:   -1.79 KCAL/MOL
REMARK 924 INTRA-LIGAND FREE ENERGY PREDICTED BY IDOCK:   -0.36 KCAL/MOL
REMARK 927      BINDING AFFINITY PREDICTED BY RF-SCORE:    0.00 PKD
ROOT
HETATM    1  C   UNL     1      -8.696  13.863  67.577  1.00  0.00    -0.194 C  
HETATM    2  C   UNL     1      -7.533  12.930  67.891  1.00  0.00    -0.131 C  
ENDROOT
BRANCH   2   3
HETATM    3  C   UNL     1      -7.374  11.826  66.833  1.00  0.00    -0.104 C  
BRANCH   3   4
HETATM    4  N   UNL     1      -8.394  10.774  66.931  1.00  0.00    -0.129 N  
HETATM    5  O   UNL     1      -9.384  10.923  64.827  1.00  0.00    -0.210 OA 
HETATM    6  C   UNL     1      -8.774  10.217  68.205  1.00  0.00    -0.120 C  
HETATM    7  C   UNL     1      -9.306  10.433  65.943  1.00  0.00    -0.182 C  
HETATM    8  C   UNL     1     -10.274   9.432  66.526  1.00  0.00    -0.308 C  
HETATM    9  C   UNL     1      -9.578   8.997  67.810  1.00  0.00    -0.178 C  
ENDBRANCH   3   4
BRANCH   3  10
HETATM   10  C   UNL     1      -5.956  11.224  66.841  1.00  0.00    -0.116 C  
HETATM   11  H2  UNL     1      -6.306  10.190  65.058  1.00  0.00     0.000 HD 
HETATM   12  N   UNL     1      -5.639  10.398  65.802  1.00  0.00    -0.076 N  
HETATM   13  O   UNL     1      -5.149  11.435  67.741  1.00  0.00    -0.043 OA 
HETATM   14  H1  UNL     1      -4.701   9.999  65.807  1.00  0.00     0.000 HD 
ENDBRANCH   3  10
ENDBRANCH   2   3
TORSDOF 3
ENDMDL
MODEL      254
REMARK 921   NORMALIZED FREE ENERGY PREDICTED BY IDOCK:   -1.51 KCAL/MOL
REMARK 922        TOTAL FREE ENERGY PREDICTED BY IDOCK:   -2.14 KCAL/MOL
REMARK 923 INTER-LIGAND FREE ENERGY PREDICTED BY IDOCK:   -2.13 KCAL/MOL
REMARK 924 INTRA-LIGAND FREE ENERGY PREDICTED BY IDOCK:   -0.01 KCAL/MOL
REMARK 927      BINDING AFFINITY PREDICTED BY RF-SCORE:    0.00 PKD
ROOT
HETATM    1  C   UNL     1      -8.781  13.139  67.357  1.00  0.00    -0.206 C  
HETATM    2  C   UNL     1      -8.193  11.773  67.692  1.00  0.00    -0.145 C  
ENDROOT
BRANCH   2   3
HETATM    3  C   UNL     1      -8.409  10.756  66.560  1.00  0.00    -0.146 C  
BRANCH   3   4
HETATM    4  N   UNL     1      -8.973   9.481  67.021  1.00  0.00    -0.133 N  
HETATM    5  O   UNL     1      -7.439   8.894  68.674  1.00  0.00    -0.085 OA 
HETATM    6  C   UNL     1      -9.963   8.778  66.245  1.00  0.00    -0.245 C  
HETATM    7  C   UNL     1      -8.438   8.667  68.008  1.00  0.00    -0.127 C  
HETATM    8  C   UNL     1      -9.232   7.384  68.036  1.00  0.00    -0.132 C  
HETATM    9  C   UNL     1     -10.468   7.733  67.217  1.00  0.00    -0.392 C  
ENDBRANCH   3   4
BRANCH   3  10
HETATM   10  C   UNL     1      -7.125  10.528  65.741  1.00  0.00    -0.124 C  
HETATM   11  H2  UNL     1      -8.186  10.514  63.941  1.00  0.00     0.000 HD 
HETATM   12  N   UNL     1      -7.272  10.436  64.387  1.00  0.00    -0.325 N  
HETATM   13  O   UNL     1      -6.019  10.400  66.260  1.00  0.00    -0.068 OA 
HETATM   14  H1  UNL     1      -6.422  10.285  63.845  1.00  0.00     0.000 HD 
ENDBRANCH   3  10
ENDBRANCH   2   3
TORSDOF 3
ENDMDL
MODEL      255
REMARK 921   NORMALIZED FREE ENERGY PREDICTED BY IDOCK:   -1.46 KCAL/MOL
REMARK 922        TOTAL FREE ENERGY PREDICTED BY IDOCK:   -2.08 KCAL/MOL
REMARK 923 INTER-LIGAND FREE ENERGY PREDICTED BY IDOCK:   -3.12 KCAL/MOL
REMARK 924 INTRA-LIGAND FREE ENERGY PREDICTED BY IDOCK:    1.04 KCAL/MOL
REMARK 927      BINDING AFFINITY PREDICTED BY RF-SCORE:    0.00 PKD
ROOT
HETATM    1  C   UNL     1     -10.592  12.314  65.375  1.00  0.00    -0.309 C  
HETATM    2  C   UNL     1     -10.453  12.083  66.875  1.00  0.00    -0.251 C  
ENDROOT
BRANCH   2   3
HETATM    3  C   UNL     1      -9.472  13.071  67.524  1.00  0.00    -0.198 C  
BRANCH   3   4
HETATM    4  N   UNL     1      -9.453  14.387  66.873  1.00  0.00    -0.247 N  
HETATM    5  O   UNL     1      -7.294  15.101  67.385  1.00  0.00    -0.185 OA 
HETATM    6  C   UNL     1     -10.672  15.030  66.452  1.00  0.00    -0.322 C  
HETATM    7  C   UNL     1      -8.391  15.279  66.876  1.00  0.00    -0.243 C  
HETATM    8  C   UNL     1      -8.861  16.568  66.247  1.00  0.00    -0.364 C  
HETATM    9  C   UNL     1     -10.169  16.160  65.580  1.00  0.00    -0.360 C  
ENDBRANCH   3   4
BRANCH   3  10
HETATM   10  C   UNL     1      -8.051  12.485  67.627  1.00  0.00    -0.171 C  
HETATM   11  H2  UNL     1      -7.939  12.199  65.560  1.00  0.00     0.000 HD 
HETATM   12  N   UNL     1      -7.463  12.103  66.457  1.00  0.00    -0.360 N  
HETATM   13  O   UNL     1      -7.471  12.331  68.699  1.00  0.00    -0.111 OA 
HETATM   14  H1  UNL     1      -6.522  11.715  66.525  1.00  0.00     0.000 HD 
ENDBRANCH   3  10
ENDBRANCH   2   3
TORSDOF 3
ENDMDL
MODEL      256
REMARK 921   NORMALIZED FREE ENERGY PREDICTED BY IDOCK:   -1.46 KCAL/MOL
REMARK 922        TOTAL FREE ENERGY PREDICTED BY IDOCK:   -2.07 KCAL/MOL
REMARK 923 INTER-LIGAND FREE ENERGY PREDICTED BY IDOCK:   -1.78 KCAL/MOL
REMARK 924 INTRA-LIGAND FREE ENERGY PREDICTED BY IDOCK:   -0.29 KCAL/MOL
REMARK 927      BINDING AFFINITY PREDICTED BY RF-SCORE:    0.00 PKD
ROOT
HETATM    1  C   UNL     1      -5.594   9.687  62.685  1.00  0.00    -0.089 C  
HETATM    2  C   UNL     1      -7.093   9.497  62.884  1.00  0.00    -0.105 C  
ENDROOT
BRANCH   2   3
HETATM    3  C   UNL     1      -7.524   9.775  64.332  1.00  0.00    -0.132 C  
BRANCH   3   4
HETATM    4  N   UNL     1      -7.460   8.590  65.197  1.00  0.00    -0.088 N  
HETATM    5  O   UNL     1      -5.973   9.323  66.836  1.00  0.00    -0.057 OA 
HETATM    6  C   UNL     1      -7.936   7.307  64.745  1.00  0.00    -0.122 C  
HETATM    7  C   UNL     1      -6.689   8.464  66.343  1.00  0.00    -0.066 C  
HETATM    8  C   UNL     1      -6.787   7.034  66.816  1.00  0.00    -0.068 C  
HETATM    9  C   UNL     1      -7.970   6.495  66.022  1.00  0.00    -0.112 C  
ENDBRANCH   3   4
BRANCH   3  10
HETATM   10  C   UNL     1      -8.916  10.433  64.400  1.00  0.00    -0.223 C  
HETATM   11  H2  UNL     1      -9.591   9.350  62.745  1.00  0.00     0.000 HD 
HETATM   12  N   UNL     1      -9.822  10.043  63.458  1.00  0.00    -0.500 N  
HETATM   13  O   UNL     1      -9.206  11.292  65.229  1.00  0.00    -0.218 OA 
HETATM   14  H1  UNL     1     -10.743  10.479  63.502  1.00  0.00     0.000 HD 
ENDBRANCH   3  10
ENDBRANCH   2   3
TORSDOF 3
ENDMDL
MODEL      257
REMARK 921   NORMALIZED FREE ENERGY PREDICTED BY IDOCK:   -1.41 KCAL/MOL
REMARK 922        TOTAL FREE ENERGY PREDICTED BY IDOCK:   -2.02 KCAL/MOL
REMARK 923 INTER-LIGAND FREE ENERGY PREDICTED BY IDOCK:   -2.35 KCAL/MOL
REMARK 924 INTRA-LIGAND FREE ENERGY PREDICTED BY IDOCK:    0.34 KCAL/MOL
REMARK 927      BINDING AFFINITY PREDICTED BY RF-SCORE:    0.00 PKD
ROOT
HETATM    1  C   UNL     1     -10.649  10.970  64.446  1.00  0.00    -0.395 C  
HETATM    2  C   UNL     1      -9.388  11.549  65.077  1.00  0.00    -0.107 C  
ENDROOT
BRANCH   2   3
HETATM    3  C   UNL     1      -9.494  11.637  66.607  1.00  0.00    -0.201 C  
BRANCH   3   4
HETATM    4  N   UNL     1      -8.206  11.469  67.291  1.00  0.00    -0.148 N  
HETATM    5  O   UNL     1      -7.319   9.658  66.123  1.00  0.00    -0.095 OA 
HETATM    6  C   UNL     1      -7.950  12.090  68.567  1.00  0.00    -0.132 C  
HETATM    7  C   UNL     1      -7.256  10.499  67.006  1.00  0.00    -0.098 C  
HETATM    8  C   UNL     1      -6.177  10.579  68.059  1.00  0.00    -0.054 C  
HETATM    9  C   UNL     1      -6.455  11.920  68.727  1.00  0.00    -0.071 C  
ENDBRANCH   3   4
BRANCH   3  10
HETATM   10  C   UNL     1     -10.548  10.662  67.166  1.00  0.00    -0.260 C  
HETATM   11  H2  UNL     1      -9.233   9.044  67.025  1.00  0.00     0.000 HD 
HETATM   12  N   UNL     1     -10.167   9.357  67.289  1.00  0.00    -0.228 N  
HETATM   13  O   UNL     1     -11.688  11.011  67.460  1.00  0.00    -0.565 OA 
HETATM   14  H1  UNL     1     -10.865   8.712  67.659  1.00  0.00     0.000 HD 
ENDBRANCH   3  10
ENDBRANCH   2   3
TORSDOF 3
ENDMDL
MODEL      258
REMARK 921   NORMALIZED FREE ENERGY PREDICTED BY IDOCK:   -1.40 KCAL/MOL
REMARK 922        TOTAL FREE ENERGY PREDICTED BY IDOCK:   -2.00 KCAL/MOL
REMARK 923 INTER-LIGAND FREE ENERGY PREDICTED BY IDOCK:   -2.09 KCAL/MOL
REMARK 924 INTRA-LIGAND FREE ENERGY PREDICTED BY IDOCK:    0.08 KCAL/MOL
REMARK 927      BINDING AFFINITY PREDICTED BY RF-SCORE:    0.00 PKD
ROOT
HETATM    1  C   UNL     1      -6.050   7.730  66.126  1.00  0.00    -0.038 C  
HETATM    2  C   UNL     1      -6.885   6.984  67.161  1.00  0.00    -0.065 C  
ENDROOT
BRANCH   2   3
HETATM    3  C   UNL     1      -8.390   7.230  66.977  1.00  0.00    -0.118 C  
BRANCH   3   4
HETATM    4  N   UNL     1      -9.070   6.160  66.236  1.00  0.00    -0.153 N  
HETATM    5  O   UNL     1     -11.145   6.140  67.297  1.00  0.00    -0.333 OA 
HETATM    6  C   UNL     1      -8.333   5.238  65.409  1.00  0.00    -0.136 C  
HETATM    7  C   UNL     1     -10.359   5.704  66.469  1.00  0.00    -0.232 C  
HETATM    8  C   UNL     1     -10.587   4.488  65.605  1.00  0.00    -0.231 C  
HETATM    9  C   UNL     1      -9.426   4.549  64.621  1.00  0.00    -0.108 C  
ENDBRANCH   3   4
BRANCH   3  10
HETATM   10  C   UNL     1      -8.674   8.606  66.345  1.00  0.00    -0.130 C  
HETATM   11  H2  UNL     1      -8.969   7.760  64.457  1.00  0.00     0.000 HD 
HETATM   12  N   UNL     1      -8.950   8.618  65.009  1.00  0.00    -0.414 N  
HETATM   13  O   UNL     1      -8.625   9.654  66.984  1.00  0.00    -0.127 OA 
HETATM   14  H1  UNL     1      -9.137   9.529  64.591  1.00  0.00     0.000 HD 
ENDBRANCH   3  10
ENDBRANCH   2   3
TORSDOF 3
ENDMDL
MODEL      259
REMARK 921   NORMALIZED FREE ENERGY PREDICTED BY IDOCK:   -1.36 KCAL/MOL
REMARK 922        TOTAL FREE ENERGY PREDICTED BY IDOCK:   -1.96 KCAL/MOL
REMARK 923 INTER-LIGAND FREE ENERGY PREDICTED BY IDOCK:   -1.94 KCAL/MOL
REMARK 924 INTRA-LIGAND FREE ENERGY PREDICTED BY IDOCK:   -0.02 KCAL/MOL
REMARK 927      BINDING AFFINITY PREDICTED BY RF-SCORE:    0.00 PKD
ROOT
HETATM    1  C   UNL     1     -10.142   6.247  71.614  1.00  0.00    -0.214 C  
HETATM    2  C   UNL     1     -10.836   7.383  70.871  1.00  0.00    -0.255 C  
ENDROOT
BRANCH   2   3
HETATM    3  C   UNL     1     -10.066   7.806  69.611  1.00  0.00    -0.196 C  
BRANCH   3   4
HETATM    4  N   UNL     1      -8.608   7.726  69.764  1.00  0.00    -0.133 N  
HETATM    5  O   UNL     1      -8.199   9.611  71.072  1.00  0.00    -0.270 OA 
HETATM    6  C   UNL     1      -7.813   6.876  68.914  1.00  0.00    -0.111 C  
HETATM    7  C   UNL     1      -7.814   8.630  70.453  1.00  0.00    -0.091 C  
HETATM    8  C   UNL     1      -6.370   8.266  70.207  1.00  0.00    -0.035 C  
HETATM    9  C   UNL     1      -6.471   6.866  69.615  1.00  0.00    -0.044 C  
ENDBRANCH   3   4
BRANCH   3  10
HETATM   10  C   UNL     1     -10.494   9.202  69.119  1.00  0.00    -0.217 C  
HETATM   11  H2  UNL     1      -9.051   9.193  67.607  1.00  0.00     0.000 HD 
HETATM   12  N   UNL     1      -9.808   9.711  68.054  1.00  0.00    -0.146 N  
HETATM   13  O   UNL     1     -11.381   9.856  69.661  1.00  0.00    -0.232 OA 
HETATM   14  H1  UNL     1     -10.091  10.634  67.729  1.00  0.00     0.000 HD 
ENDBRANCH   3  10
ENDBRANCH   2   3
TORSDOF 3
ENDMDL
MODEL      260
REMARK 921   NORMALIZED FREE ENERGY PREDICTED BY IDOCK:   -1.35 KCAL/MOL
REMARK 922        TOTAL FREE ENERGY PREDICTED BY IDOCK:   -1.95 KCAL/MOL
REMARK 923 INTER-LIGAND FREE ENERGY PREDICTED BY IDOCK:   -2.50 KCAL/MOL
REMARK 924 INTRA-LIGAND FREE ENERGY PREDICTED BY IDOCK:    0.56 KCAL/MOL
REMARK 927      BINDING AFFINITY PREDICTED BY RF-SCORE:    0.00 PKD
ROOT
HETATM    1  C   UNL     1      -8.122  10.431  62.802  1.00  0.00    -0.165 C  
HETATM    2  C   UNL     1      -7.885  10.016  64.249  1.00  0.00    -0.144 C  
ENDROOT
BRANCH   2   3
HETATM    3  C   UNL     1      -8.696  10.870  65.236  1.00  0.00    -0.139 C  
BRANCH   3   4
HETATM    4  N   UNL     1      -9.110  10.136  66.439  1.00  0.00    -0.150 N  
HETATM    5  O   UNL     1      -7.056   9.824  67.494  1.00  0.00    -0.086 OA 
HETATM    6  C   UNL     1     -10.412   9.524  66.529  1.00  0.00    -0.131 C  
HETATM    7  C   UNL     1      -8.266   9.669  67.435  1.00  0.00    -0.114 C  
HETATM    8  C   UNL     1      -9.084   8.824  68.382  1.00  0.00    -0.141 C  
HETATM    9  C   UNL     1     -10.516   9.177  67.999  1.00  0.00    -0.276 C  
ENDBRANCH   3   4
BRANCH   3  10
HETATM   10  C   UNL     1      -9.903  11.543  64.556  1.00  0.00    -0.241 C  
HETATM   11  H2  UNL     1      -9.277  13.443  65.157  1.00  0.00     0.000 HD 
HETATM   12  N   UNL     1      -9.982  12.901  64.657  1.00  0.00    -0.563 N  
HETATM   13  O   UNL     1     -10.780  10.907  63.976  1.00  0.00    -0.353 OA 
HETATM   14  H1  UNL     1     -10.781  13.346  64.207  1.00  0.00     0.000 HD 
ENDBRANCH   3  10
ENDBRANCH   2   3
TORSDOF 3
ENDMDL
MODEL      261
REMARK 921   NORMALIZED FREE ENERGY PREDICTED BY IDOCK:   -1.35 KCAL/MOL
REMARK 922        TOTAL FREE ENERGY PREDICTED BY IDOCK:   -1.94 KCAL/MOL
REMARK 923 INTER-LIGAND FREE ENERGY PREDICTED BY IDOCK:   -2.73 KCAL/MOL
REMARK 924 INTRA-LIGAND FREE ENERGY PREDICTED BY IDOCK:    0.78 KCAL/MOL
REMARK 927      BINDING AFFINITY PREDICTED BY RF-SCORE:    0.00 PKD
ROOT
HETATM    1  C   UNL     1     -10.631  10.872  64.443  1.00  0.00    -0.343 C  
HETATM    2  C   UNL     1      -9.419  11.379  65.216  1.00  0.00    -0.233 C  
ENDROOT
BRANCH   2   3
HETATM    3  C   UNL     1      -9.536  11.105  66.723  1.00  0.00    -0.191 C  
BRANCH   3   4
HETATM    4  N   UNL     1      -9.795   9.695  67.041  1.00  0.00    -0.183 N  
HETATM    5  O   UNL     1     -10.542   9.870  69.242  1.00  0.00    -0.202 OA 
HETATM    6  C   UNL     1      -9.270   8.634  66.218  1.00  0.00    -0.202 C  
HETATM    7  C   UNL     1     -10.250   9.208  68.258  1.00  0.00    -0.206 C  
HETATM    8  C   UNL     1     -10.205   7.700  68.203  1.00  0.00    -0.236 C  
HETATM    9  C   UNL     1     -10.026   7.421  66.716  1.00  0.00    -0.300 C  
ENDBRANCH   3   4
BRANCH   3  10
HETATM   10  C   UNL     1     -10.577  12.022  67.393  1.00  0.00    -0.223 C  
HETATM   11  H2  UNL     1     -12.167  10.944  66.570  1.00  0.00     0.000 HD 
HETATM   12  N   UNL     1     -11.889  11.730  67.159  1.00  0.00    -0.185 N  
HETATM   13  O   UNL     1     -10.265  12.992  68.079  1.00  0.00    -0.220 OA 
HETATM   14  H1  UNL     1     -12.578  12.337  67.602  1.00  0.00     0.000 HD 
ENDBRANCH   3  10
ENDBRANCH   2   3
TORSDOF 3
ENDMDL
MODEL      262
REMARK 921   NORMALIZED FREE ENERGY PREDICTED BY IDOCK:   -1.34 KCAL/MOL
REMARK 922        TOTAL FREE ENERGY PREDICTED BY IDOCK:   -1.94 KCAL/MOL
REMARK 923 INTER-LIGAND FREE ENERGY PREDICTED BY IDOCK:   -2.02 KCAL/MOL
REMARK 924 INTRA-LIGAND FREE ENERGY PREDICTED BY IDOCK:    0.08 KCAL/MOL
REMARK 927      BINDING AFFINITY PREDICTED BY RF-SCORE:    0.00 PKD
ROOT
HETATM    1  C   UNL     1      -8.591  13.510  67.910  1.00  0.00    -0.182 C  
HETATM    2  C   UNL     1      -7.417  12.785  68.559  1.00  0.00    -0.120 C  
ENDROOT
BRANCH   2   3
HETATM    3  C   UNL     1      -7.325  11.318  68.113  1.00  0.00    -0.088 C  
BRANCH   3   4
HETATM    4  N   UNL     1      -8.560  10.816  67.498  1.00  0.00    -0.125 N  
HETATM    5  O   UNL     1      -9.907  10.537  69.379  1.00  0.00    -0.221 OA 
HETATM    6  C   UNL     1      -8.573  10.319  66.145  1.00  0.00    -0.139 C  
HETATM    7  C   UNL     1      -9.716  10.459  68.175  1.00  0.00    -0.151 C  
HETATM    8  C   UNL     1     -10.665   9.835  67.180  1.00  0.00    -0.273 C  
HETATM    9  C   UNL     1     -10.052  10.220  65.840  1.00  0.00    -0.319 C  
ENDBRANCH   3   4
BRANCH   3  10
HETATM   10  C   UNL     1      -6.867  10.397  69.261  1.00  0.00    -0.073 C  
HETATM   11  H2  UNL     1      -6.499   8.816  67.945  1.00  0.00     0.000 HD 
HETATM   12  N   UNL     1      -6.484   9.135  68.915  1.00  0.00    -0.048 N  
HETATM   13  O   UNL     1      -6.870  10.750  70.438  1.00  0.00    -0.278 OA 
HETATM   14  H1  UNL     1      -6.181   8.526  69.674  1.00  0.00     0.000 HD 
ENDBRANCH   3  10
ENDBRANCH   2   3
TORSDOF 3
ENDMDL
MODEL      263
REMARK 921   NORMALIZED FREE ENERGY PREDICTED BY IDOCK:   -1.33 KCAL/MOL
REMARK 922        TOTAL FREE ENERGY PREDICTED BY IDOCK:   -1.92 KCAL/MOL
REMARK 923 INTER-LIGAND FREE ENERGY PREDICTED BY IDOCK:   -1.86 KCAL/MOL
REMARK 924 INTRA-LIGAND FREE ENERGY PREDICTED BY IDOCK:   -0.06 KCAL/MOL
REMARK 927      BINDING AFFINITY PREDICTED BY RF-SCORE:    0.00 PKD
ROOT
HETATM    1  C   UNL     1     -10.801   5.799  66.852  1.00  0.00    -0.337 C  
HETATM    2  C   UNL     1     -10.735   7.314  67.009  1.00  0.00    -0.406 C  
ENDROOT
BRANCH   2   3
HETATM    3  C   UNL     1      -9.335   7.867  66.702  1.00  0.00    -0.193 C  
BRANCH   3   4
HETATM    4  N   UNL     1      -8.312   6.823  66.566  1.00  0.00    -0.116 N  
HETATM    5  O   UNL     1      -7.851   6.364  68.804  1.00  0.00    -0.106 OA 
HETATM    6  C   UNL     1      -7.636   6.597  65.314  1.00  0.00    -0.088 C  
HETATM    7  C   UNL     1      -7.658   6.187  67.611  1.00  0.00    -0.097 C  
HETATM    8  C   UNL     1      -6.571   5.321  67.023  1.00  0.00    -0.053 C  
HETATM    9  C   UNL     1      -6.938   5.274  65.545  1.00  0.00    -0.065 C  
ENDBRANCH   3   4
BRANCH   3  10
HETATM   10  C   UNL     1      -8.903   8.933  67.727  1.00  0.00    -0.135 C  
HETATM   11  H2  UNL     1     -10.468   8.433  69.018  1.00  0.00     0.000 HD 
HETATM   12  N   UNL     1      -9.658   9.034  68.859  1.00  0.00    -0.155 N  
HETATM   13  O   UNL     1      -7.952   9.688  67.541  1.00  0.00    -0.105 OA 
HETATM   14  H1  UNL     1      -9.373   9.739  69.537  1.00  0.00     0.000 HD 
ENDBRANCH   3  10
ENDBRANCH   2   3
TORSDOF 3
ENDMDL
MODEL      264
REMARK 921   NORMALIZED FREE ENERGY PREDICTED BY IDOCK:   -1.23 KCAL/MOL
REMARK 922        TOTAL FREE ENERGY PREDICTED BY IDOCK:   -1.81 KCAL/MOL
REMARK 923 INTER-LIGAND FREE ENERGY PREDICTED BY IDOCK:   -1.86 KCAL/MOL
REMARK 924 INTRA-LIGAND FREE ENERGY PREDICTED BY IDOCK:    0.05 KCAL/MOL
REMARK 927      BINDING AFFINITY PREDICTED BY RF-SCORE:    0.00 PKD
ROOT
HETATM    1  C   UNL     1      -7.048   7.072  72.627  1.00  0.00    -0.069 C  
HETATM    2  C   UNL     1      -8.158   7.941  72.046  1.00  0.00    -0.141 C  
ENDROOT
BRANCH   2   3
HETATM    3  C   UNL     1      -9.530   7.253  72.121  1.00  0.00    -0.135 C  
BRANCH   3   4
HETATM    4  N   UNL     1      -9.460   5.858  72.573  1.00  0.00    -0.148 N  
HETATM    5  O   UNL     1      -8.952   4.773  70.573  1.00  0.00    -0.110 OA 
HETATM    6  C   UNL     1      -9.997   5.456  73.848  1.00  0.00    -0.191 C  
HETATM    7  C   UNL     1      -9.200   4.758  71.770  1.00  0.00    -0.138 C  
HETATM    8  C   UNL     1      -9.396   3.514  72.603  1.00  0.00    -0.153 C  
HETATM    9  C   UNL     1      -9.435   4.062  74.024  1.00  0.00    -0.115 C  
ENDBRANCH   3   4
BRANCH   3  10
HETATM   10  C   UNL     1     -10.302   7.365  70.792  1.00  0.00    -0.202 C  
HETATM   11  H2  UNL     1      -8.667   8.243  69.832  1.00  0.00     0.000 HD 
HETATM   12  N   UNL     1      -9.630   7.920  69.742  1.00  0.00    -0.167 N  
HETATM   13  O   UNL     1     -11.472   7.012  70.670  1.00  0.00    -0.292 OA 
HETATM   14  H1  UNL     1     -10.141   7.994  68.863  1.00  0.00     0.000 HD 
ENDBRANCH   3  10
ENDBRANCH   2   3
TORSDOF 3
ENDMDL
MODEL      265
REMARK 921   NORMALIZED FREE ENERGY PREDICTED BY IDOCK:   -1.09 KCAL/MOL
REMARK 922        TOTAL FREE ENERGY PREDICTED BY IDOCK:   -1.64 KCAL/MOL
REMARK 923 INTER-LIGAND FREE ENERGY PREDICTED BY IDOCK:   -2.20 KCAL/MOL
REMARK 924 INTRA-LIGAND FREE ENERGY PREDICTED BY IDOCK:    0.56 KCAL/MOL
REMARK 927      BINDING AFFINITY PREDICTED BY RF-SCORE:    0.00 PKD
ROOT
HETATM    1  C   UNL     1     -10.486   5.033  70.304  1.00  0.00    -0.243 C  
HETATM    2  C   UNL     1     -11.021   6.454  70.447  1.00  0.00    -0.367 C  
ENDROOT
BRANCH   2   3
HETATM    3  C   UNL     1     -10.020   7.381  71.154  1.00  0.00    -0.185 C  
BRANCH   3   4
HETATM    4  N   UNL     1      -8.792   7.610  70.383  1.00  0.00    -0.143 N  
HETATM    5  O   UNL     1      -7.802   9.313  71.628  1.00  0.00    -0.329 OA 
HETATM    6  C   UNL     1      -8.646   7.104  69.041  1.00  0.00    -0.129 C  
HETATM    7  C   UNL     1      -7.817   8.553  70.672  1.00  0.00    -0.091 C  
HETATM    8  C   UNL     1      -6.828   8.567  69.532  1.00  0.00    -0.044 C  
HETATM    9  C   UNL     1      -7.168   7.290  68.774  1.00  0.00    -0.090 C  
ENDBRANCH   3   4
BRANCH   3  10
HETATM   10  C   UNL     1      -9.695   6.893  72.579  1.00  0.00    -0.153 C  
HETATM   11  H2  UNL     1      -8.060   5.780  71.904  1.00  0.00     0.000 HD 
HETATM   12  N   UNL     1      -8.620   6.063  72.709  1.00  0.00    -0.125 N  
HETATM   13  O   UNL     1     -10.374   7.196  73.557  1.00  0.00    -0.304 OA 
HETATM   14  H1  UNL     1      -8.405   5.740  73.652  1.00  0.00     0.000 HD 
ENDBRANCH   3  10
ENDBRANCH   2   3
TORSDOF 3
ENDMDL
MODEL      266
REMARK 921   NORMALIZED FREE ENERGY PREDICTED BY IDOCK:   -0.94 KCAL/MOL
REMARK 922        TOTAL FREE ENERGY PREDICTED BY IDOCK:   -1.46 KCAL/MOL
REMARK 923 INTER-LIGAND FREE ENERGY PREDICTED BY IDOCK:   -3.36 KCAL/MOL
REMARK 924 INTRA-LIGAND FREE ENERGY PREDICTED BY IDOCK:    1.89 KCAL/MOL
REMARK 927      BINDING AFFINITY PREDICTED BY RF-SCORE:    0.00 PKD
ROOT
HETATM    1  C   UNL     1     -14.355   8.102  72.039  1.00  0.00    -0.524 C  
HETATM    2  C   UNL     1     -13.640   7.028  71.228  1.00  0.00    -0.251 C  
ENDROOT
BRANCH   2   3
HETATM    3  C   UNL     1     -12.207   7.440  70.858  1.00  0.00    -0.231 C  
BRANCH   3   4
HETATM    4  N   UNL     1     -11.177   6.698  71.597  1.00  0.00    -0.252 N  
HETATM    5  O   UNL     1     -11.151   7.870  73.611  1.00  0.00    -0.101 OA 
HETATM    6  C   UNL     1     -10.276   5.798  70.924  1.00  0.00    -0.216 C  
HETATM    7  C   UNL     1     -10.735   6.985  72.880  1.00  0.00    -0.288 C  
HETATM    8  C   UNL     1      -9.556   6.090  73.178  1.00  0.00    -0.143 C  
HETATM    9  C   UNL     1      -9.636   5.046  72.071  1.00  0.00    -0.200 C  
ENDBRANCH   3   4
BRANCH   3  10
HETATM   10  C   UNL     1     -11.994   8.960  70.990  1.00  0.00    -0.261 C  
HETATM   11  H2  UNL     1     -13.705   9.372  69.864  1.00  0.00     0.000 HD 
HETATM   12  N   UNL     1     -12.916   9.760  70.381  1.00  0.00    -0.519 N  
HETATM   13  O   UNL     1     -11.034   9.448  71.581  1.00  0.00    -0.369 OA 
HETATM   14  H1  UNL     1     -12.775  10.766  70.468  1.00  0.00     0.000 HD 
ENDBRANCH   3  10
ENDBRANCH   2   3
TORSDOF 3
ENDMDL
MODEL      267
REMARK 921   NORMALIZED FREE ENERGY PREDICTED BY IDOCK:   -0.84 KCAL/MOL
REMARK 922        TOTAL FREE ENERGY PREDICTED BY IDOCK:   -1.34 KCAL/MOL
REMARK 923 INTER-LIGAND FREE ENERGY PREDICTED BY IDOCK:   -1.67 KCAL/MOL
REMARK 924 INTRA-LIGAND FREE ENERGY PREDICTED BY IDOCK:    0.32 KCAL/MOL
REMARK 927      BINDING AFFINITY PREDICTED BY RF-SCORE:    0.00 PKD
ROOT
HETATM    1  C   UNL     1      -9.106   3.862  67.010  1.00  0.00    -0.168 C  
HETATM    2  C   UNL     1      -9.946   5.097  66.704  1.00  0.00    -0.235 C  
ENDROOT
BRANCH   2   3
HETATM    3  C   UNL     1      -9.611   6.271  67.637  1.00  0.00    -0.114 C  
BRANCH   3   4
HETATM    4  N   UNL     1      -8.307   6.885  67.358  1.00  0.00    -0.121 N  
HETATM    5  O   UNL     1      -8.413   8.779  68.713  1.00  0.00    -0.126 OA 
HETATM    6  C   UNL     1      -7.519   6.481  66.221  1.00  0.00    -0.081 C  
HETATM    7  C   UNL     1      -7.838   8.074  67.897  1.00  0.00    -0.126 C  
HETATM    8  C   UNL     1      -6.541   8.419  67.207  1.00  0.00    -0.059 C  
HETATM    9  C   UNL     1      -6.175   7.118  66.504  1.00  0.00    -0.039 C  
ENDBRANCH   3   4
BRANCH   3  10
HETATM   10  C   UNL     1      -9.728   5.874  69.122  1.00  0.00    -0.140 C  
HETATM   11  H2  UNL     1      -7.652   5.836  69.352  1.00  0.00     0.000 HD 
HETATM   12  N   UNL     1      -8.558   5.706  69.802  1.00  0.00    -0.120 N  
HETATM   13  O   UNL     1     -10.808   5.682  69.675  1.00  0.00    -0.337 OA 
HETATM   14  H1  UNL     1      -8.636   5.443  70.784  1.00  0.00     0.000 HD 
ENDBRANCH   3  10
ENDBRANCH   2   3
TORSDOF 3
ENDMDL
MODEL      268
REMARK 921   NORMALIZED FREE ENERGY PREDICTED BY IDOCK:   -0.51 KCAL/MOL
REMARK 922        TOTAL FREE ENERGY PREDICTED BY IDOCK:   -0.96 KCAL/MOL
REMARK 923 INTER-LIGAND FREE ENERGY PREDICTED BY IDOCK:   -1.45 KCAL/MOL
REMARK 924 INTRA-LIGAND FREE ENERGY PREDICTED BY IDOCK:    0.50 KCAL/MOL
REMARK 927      BINDING AFFINITY PREDICTED BY RF-SCORE:    0.00 PKD
ROOT
HETATM    1  C   UNL     1      -7.992  16.065  66.656  1.00  0.00    -0.291 C  
HETATM    2  C   UNL     1      -9.179  15.433  65.938  1.00  0.00    -0.274 C  
ENDROOT
BRANCH   2   3
HETATM    3  C   UNL     1      -9.892  14.388  66.809  1.00  0.00    -0.264 C  
BRANCH   3   4
HETATM    4  N   UNL     1     -10.207  14.871  68.159  1.00  0.00    -0.223 N  
HETATM    5  O   UNL     1     -12.140  16.106  67.745  1.00  0.00     0.373 OA 
HETATM    6  C   UNL     1      -9.231  14.820  69.218  1.00  0.00    -0.031 C  
HETATM    7  C   UNL     1     -11.275  15.688  68.500  1.00  0.00    -0.342 C  
HETATM    8  C   UNL     1     -11.118  16.081  69.949  1.00  0.00    -0.352 C  
HETATM    9  C   UNL     1     -10.061  15.106  70.451  1.00  0.00     0.155 C  
ENDBRANCH   3   4
BRANCH   3  10
HETATM   10  C   UNL     1      -9.114  13.059  66.865  1.00  0.00    -0.227 C  
HETATM   11  H2  UNL     1      -7.430  13.924  65.980  1.00  0.00     0.000 HD 
HETATM   12  N   UNL     1      -7.843  13.075  66.368  1.00  0.00     0.203 N  
HETATM   13  O   UNL     1      -9.603  12.020  67.299  1.00  0.00    -0.180 OA 
HETATM   14  H1  UNL     1      -7.328  12.197  66.405  1.00  0.00     0.000 HD 
ENDBRANCH   3  10
ENDBRANCH   2   3
TORSDOF 3
ENDMDL
MODEL      269
REMARK 921   NORMALIZED FREE ENERGY PREDICTED BY IDOCK:   -0.43 KCAL/MOL
REMARK 922        TOTAL FREE ENERGY PREDICTED BY IDOCK:   -0.87 KCAL/MOL
REMARK 923 INTER-LIGAND FREE ENERGY PREDICTED BY IDOCK:   -1.54 KCAL/MOL
REMARK 924 INTRA-LIGAND FREE ENERGY PREDICTED BY IDOCK:    0.67 KCAL/MOL
REMARK 927      BINDING AFFINITY PREDICTED BY RF-SCORE:    0.00 PKD
ROOT
HETATM    1  C   UNL     1      -7.814   6.279  67.237  1.00  0.00    -0.108 C  
HETATM    2  C   UNL     1      -7.274   5.279  66.221  1.00  0.00    -0.073 C  
ENDROOT
BRANCH   2   3
HETATM    3  C   UNL     1      -8.150   4.021  66.126  1.00  0.00    -0.098 C  
BRANCH   3   4
HETATM    4  N   UNL     1      -8.239   3.474  64.766  1.00  0.00    -0.090 N  
HETATM    5  O   UNL     1      -8.127   5.427  63.498  1.00  0.00    -0.104 OA 
HETATM    6  C   UNL     1      -8.685   2.124  64.530  1.00  0.00    -0.100 C  
HETATM    7  C   UNL     1      -8.239   4.214  63.592  1.00  0.00    -0.093 C  
HETATM    8  C   UNL     1      -8.525   3.273  62.447  1.00  0.00    -0.074 C  
HETATM    9  C   UNL     1      -8.322   1.901  63.078  1.00  0.00    -0.072 C  
ENDBRANCH   3   4
BRANCH   3  10
HETATM   10  C   UNL     1      -9.553   4.251  66.721  1.00  0.00    -0.202 C  
HETATM   11  H2  UNL     1     -10.327   4.824  64.867  1.00  0.00     0.000 HD 
HETATM   12  N   UNL     1     -10.521   4.671  65.857  1.00  0.00    -0.391 N  
HETATM   13  O   UNL     1      -9.801   4.104  67.915  1.00  0.00    -0.132 OA 
HETATM   14  H1  UNL     1     -11.449   4.824  66.251  1.00  0.00     0.000 HD 
ENDBRANCH   3  10
ENDBRANCH   2   3
TORSDOF 3
ENDMDL
MODEL      270
REMARK 921   NORMALIZED FREE ENERGY PREDICTED BY IDOCK:    0.27 KCAL/MOL
REMARK 922        TOTAL FREE ENERGY PREDICTED BY IDOCK:   -0.04 KCAL/MOL
REMARK 923 INTER-LIGAND FREE ENERGY PREDICTED BY IDOCK:    0.04 KCAL/MOL
REMARK 924 INTRA-LIGAND FREE ENERGY PREDICTED BY IDOCK:   -0.08 KCAL/MOL
REMARK 927      BINDING AFFINITY PREDICTED BY RF-SCORE:    0.00 PKD
ROOT
HETATM    1  C   UNL     1      -7.863  11.543  62.793  1.00  0.00     0.681 C  
HETATM    2  C   UNL     1      -7.343  10.709  63.959  1.00  0.00     0.233 C  
ENDROOT
BRANCH   2   3
HETATM    3  C   UNL     1      -7.946  11.151  65.301  1.00  0.00     0.318 C  
BRANCH   3   4
HETATM    4  N   UNL     1      -6.995  11.086  66.418  1.00  0.00    -0.136 N  
HETATM    5  O   UNL     1      -8.066  12.435  67.988  1.00  0.00    -0.141 OA 
HETATM    6  C   UNL     1      -5.650  10.606  66.227  1.00  0.00    -0.089 C  
HETATM    7  C   UNL     1      -7.127  11.737  67.635  1.00  0.00    -0.107 C  
HETATM    8  C   UNL     1      -5.848  11.538  68.412  1.00  0.00    -0.045 C  
HETATM    9  C   UNL     1      -5.158  10.417  67.646  1.00  0.00    -0.033 C  
ENDBRANCH   3   4
BRANCH   3  10
HETATM   10  C   UNL     1      -9.239  10.381  65.631  1.00  0.00    -0.182 C  
HETATM   11  H2  UNL     1      -8.278   9.251  67.103  1.00  0.00     0.000 HD 
HETATM   12  N   UNL     1      -9.153   9.437  66.612  1.00  0.00    -0.145 N  
HETATM   13  O   UNL     1     -10.295  10.566  65.032  1.00  0.00    -0.316 OA 
HETATM   14  H1  UNL     1     -10.009   8.926  66.830  1.00  0.00     0.000 HD 
ENDBRANCH   3  10
ENDBRANCH   2   3
TORSDOF 3
ENDMDL
MODEL      271
REMARK 921   NORMALIZED FREE ENERGY PREDICTED BY IDOCK:    0.46 KCAL/MOL
REMARK 922        TOTAL FREE ENERGY PREDICTED BY IDOCK:    0.18 KCAL/MOL
REMARK 923 INTER-LIGAND FREE ENERGY PREDICTED BY IDOCK:   -0.90 KCAL/MOL
REMARK 924 INTRA-LIGAND FREE ENERGY PREDICTED BY IDOCK:    1.09 KCAL/MOL
REMARK 927      BINDING AFFINITY PREDICTED BY RF-SCORE:    0.00 PKD
ROOT
HETATM    1  C   UNL     1      -7.376  12.572  69.861  1.00  0.00     1.086 C  
HETATM    2  C   UNL     1      -7.505  12.378  68.354  1.00  0.00    -0.123 C  
ENDROOT
BRANCH   2   3
HETATM    3  C   UNL     1      -8.143  13.595  67.667  1.00  0.00    -0.177 C  
BRANCH   3   4
HETATM    4  N   UNL     1      -7.545  14.874  68.071  1.00  0.00    -0.112 N  
HETATM    5  O   UNL     1      -5.277  14.345  67.986  1.00  0.00    -0.114 OA 
HETATM    6  C   UNL     1      -8.335  15.903  68.699  1.00  0.00    -0.195 C  
HETATM    7  C   UNL     1      -6.189  15.127  68.211  1.00  0.00    -0.119 C  
HETATM    8  C   UNL     1      -6.030  16.503  68.811  1.00  0.00    -0.132 C  
HETATM    9  C   UNL     1      -7.419  17.107  68.644  1.00  0.00    -0.245 C  
ENDBRANCH   3   4
BRANCH   3  10
HETATM   10  C   UNL     1      -9.673  13.619  67.848  1.00  0.00    -0.234 C  
HETATM   11  H2  UNL     1      -9.653  11.805  68.885  1.00  0.00     0.000 HD 
HETATM   12  N   UNL     1     -10.224  12.567  68.520  1.00  0.00    -0.289 N  
HETATM   13  O   UNL     1     -10.383  14.510  67.390  1.00  0.00    -0.249 OA 
HETATM   14  H1  UNL     1     -11.237  12.583  68.640  1.00  0.00     0.000 HD 
ENDBRANCH   3  10
ENDBRANCH   2   3
TORSDOF 3
ENDMDL
