MODEL        1
REMARK 921   NORMALIZED FREE ENERGY PREDICTED BY IDOCK:   -4.38 KCAL/MOL
REMARK 922        TOTAL FREE ENERGY PREDICTED BY IDOCK:   -5.37 KCAL/MOL
REMARK 923 INTER-LIGAND FREE ENERGY PREDICTED BY IDOCK:   -5.15 KCAL/MOL
REMARK 924 INTRA-LIGAND FREE ENERGY PREDICTED BY IDOCK:   -0.23 KCAL/MOL
REMARK 927      BINDING AFFINITY PREDICTED BY RF-SCORE:    0.00 PKD
ROOT
HETATM    1  C   UNL     1     -10.861   8.307  72.317  1.00  0.00    -0.338 C  
HETATM    2  N   UNL     1     -12.215   8.245  72.850  1.00  0.00    -0.610 NA 
HETATM    3  H   UNL     1     -12.217   8.416  73.855  1.00  0.00     0.000 HD 
ENDROOT
BRANCH   2   4
HETATM    4  C   UNL     1     -13.153   9.152  72.162  1.00  0.00    -0.446 C  
HETATM    5  C   UNL     1     -14.382   8.399  71.632  1.00  0.00    -0.536 C  
BRANCH   4   6
HETATM    6  C   UNL     1     -12.389   9.863  71.012  1.00  0.00    -0.451 C  
BRANCH   6   7
HETATM    7  C   UNL     1     -12.499  11.371  71.070  1.00  0.00    -0.486 A  
HETATM    8  C   UNL     1     -13.278  11.990  72.058  1.00  0.00    -0.481 A  
HETATM    9  C   UNL     1     -13.474  13.370  72.041  1.00  0.00    -0.584 A  
HETATM   10  C   UNL     1     -12.880  14.147  71.047  1.00  0.00    -0.421 A  
HETATM   11  C   UNL     1     -12.074  13.547  70.082  1.00  0.00    -0.425 A  
HETATM   12  C   UNL     1     -11.880  12.166  70.094  1.00  0.00    -0.368 A  
ENDBRANCH   6   7
ENDBRANCH   4   6
ENDBRANCH   2   4
TORSDOF 3
ENDMDL
MODEL        2
REMARK 921   NORMALIZED FREE ENERGY PREDICTED BY IDOCK:   -4.36 KCAL/MOL
REMARK 922        TOTAL FREE ENERGY PREDICTED BY IDOCK:   -5.35 KCAL/MOL
REMARK 923 INTER-LIGAND FREE ENERGY PREDICTED BY IDOCK:   -5.18 KCAL/MOL
REMARK 924 INTRA-LIGAND FREE ENERGY PREDICTED BY IDOCK:   -0.17 KCAL/MOL
REMARK 927      BINDING AFFINITY PREDICTED BY RF-SCORE:    0.00 PKD
ROOT
HETATM    1  C   UNL     1     -11.082  10.354  67.708  1.00  0.00    -0.299 C  
HETATM    2  N   UNL     1     -12.096  10.574  68.731  1.00  0.00    -0.772 NA 
HETATM    3  H   UNL     1     -12.704   9.760  68.818  1.00  0.00     0.000 HD 
ENDROOT
BRANCH   2   4
HETATM    4  C   UNL     1     -11.530  10.948  70.040  1.00  0.00    -0.329 C  
HETATM    5  C   UNL     1     -10.672   9.819  70.630  1.00  0.00    -0.394 C  
BRANCH   4   6
HETATM    6  C   UNL     1     -12.701  11.321  70.990  1.00  0.00    -0.457 C  
BRANCH   6   7
HETATM    7  C   UNL     1     -12.846  12.813  71.197  1.00  0.00    -0.315 A  
HETATM    8  C   UNL     1     -12.173  13.715  70.362  1.00  0.00    -0.434 A  
HETATM    9  C   UNL     1     -12.212  15.084  70.624  1.00  0.00    -0.381 A  
HETATM   10  C   UNL     1     -12.938  15.565  71.712  1.00  0.00    -0.528 A  
HETATM   11  C   UNL     1     -13.642  14.681  72.526  1.00  0.00    -0.572 A  
HETATM   12  C   UNL     1     -13.601  13.310  72.269  1.00  0.00    -0.703 A  
ENDBRANCH   6   7
ENDBRANCH   4   6
ENDBRANCH   2   4
TORSDOF 3
ENDMDL
MODEL        3
REMARK 921   NORMALIZED FREE ENERGY PREDICTED BY IDOCK:   -4.36 KCAL/MOL
REMARK 922        TOTAL FREE ENERGY PREDICTED BY IDOCK:   -5.35 KCAL/MOL
REMARK 923 INTER-LIGAND FREE ENERGY PREDICTED BY IDOCK:   -5.12 KCAL/MOL
REMARK 924 INTRA-LIGAND FREE ENERGY PREDICTED BY IDOCK:   -0.22 KCAL/MOL
REMARK 927      BINDING AFFINITY PREDICTED BY RF-SCORE:    0.00 PKD
ROOT
HETATM    1  C   UNL     1     -10.587   8.181  72.414  1.00  0.00    -0.323 C  
HETATM    2  N   UNL     1     -11.979   7.891  72.730  1.00  0.00    -0.615 NA 
HETATM    3  H   UNL     1     -12.114   7.815  73.738  1.00  0.00     0.000 HD 
ENDROOT
BRANCH   2   4
HETATM    4  C   UNL     1     -12.922   8.863  72.148  1.00  0.00    -0.416 C  
HETATM    5  C   UNL     1     -14.204   8.179  71.648  1.00  0.00    -0.536 C  
BRANCH   4   6
HETATM    6  C   UNL     1     -12.200   9.616  70.997  1.00  0.00    -0.409 C  
BRANCH   6   7
HETATM    7  C   UNL     1     -12.458  11.107  71.009  1.00  0.00    -0.506 A  
HETATM    8  C   UNL     1     -11.912  11.930  70.014  1.00  0.00    -0.409 A  
HETATM    9  C   UNL     1     -12.051  13.316  70.090  1.00  0.00    -0.403 A  
HETATM   10  C   UNL     1     -12.750  13.890  71.149  1.00  0.00    -0.441 A  
HETATM   11  C   UNL     1     -13.328  13.079  72.124  1.00  0.00    -0.622 A  
HETATM   12  C   UNL     1     -13.187  11.693  72.053  1.00  0.00    -0.443 A  
ENDBRANCH   6   7
ENDBRANCH   4   6
ENDBRANCH   2   4
TORSDOF 3
ENDMDL
MODEL        4
REMARK 921   NORMALIZED FREE ENERGY PREDICTED BY IDOCK:   -4.30 KCAL/MOL
REMARK 922        TOTAL FREE ENERGY PREDICTED BY IDOCK:   -5.28 KCAL/MOL
REMARK 923 INTER-LIGAND FREE ENERGY PREDICTED BY IDOCK:   -5.11 KCAL/MOL
REMARK 924 INTRA-LIGAND FREE ENERGY PREDICTED BY IDOCK:   -0.17 KCAL/MOL
REMARK 927      BINDING AFFINITY PREDICTED BY RF-SCORE:    0.00 PKD
ROOT
HETATM    1  C   UNL     1     -11.294  14.234  66.010  1.00  0.00    -0.335 C  
HETATM    2  N   UNL     1     -12.238  14.380  67.110  1.00  0.00    -0.584 NA 
HETATM    3  H   UNL     1     -12.502  13.469  67.485  1.00  0.00     0.000 HD 
ENDROOT
BRANCH   2   4
HETATM    4  C   UNL     1     -11.750  15.267  68.181  1.00  0.00    -0.279 C  
HETATM    5  C   UNL     1     -10.658  16.221  67.673  1.00  0.00    -0.311 C  
BRANCH   4   6
HETATM    6  C   UNL     1     -11.229  14.384  69.348  1.00  0.00    -0.317 C  
BRANCH   6   7
HETATM    7  C   UNL     1     -11.884  14.704  70.673  1.00  0.00    -0.367 A  
HETATM    8  C   UNL     1     -11.548  15.874  71.369  1.00  0.00    -0.529 A  
HETATM    9  C   UNL     1     -12.063  16.111  72.643  1.00  0.00    -0.652 A  
HETATM   10  C   UNL     1     -12.930  15.190  73.227  1.00  0.00    -0.645 A  
HETATM   11  C   UNL     1     -13.300  14.042  72.530  1.00  0.00    -0.639 A  
HETATM   12  C   UNL     1     -12.784  13.801  71.257  1.00  0.00    -0.450 A  
ENDBRANCH   6   7
ENDBRANCH   4   6
ENDBRANCH   2   4
TORSDOF 3
ENDMDL
MODEL        5
REMARK 921   NORMALIZED FREE ENERGY PREDICTED BY IDOCK:   -4.29 KCAL/MOL
REMARK 922        TOTAL FREE ENERGY PREDICTED BY IDOCK:   -5.27 KCAL/MOL
REMARK 923 INTER-LIGAND FREE ENERGY PREDICTED BY IDOCK:   -5.09 KCAL/MOL
REMARK 924 INTRA-LIGAND FREE ENERGY PREDICTED BY IDOCK:   -0.18 KCAL/MOL
REMARK 927      BINDING AFFINITY PREDICTED BY RF-SCORE:    0.00 PKD
ROOT
HETATM    1  C   UNL     1     -10.296  11.859  68.397  1.00  0.00    -0.209 C  
HETATM    2  N   UNL     1     -10.521  13.172  68.987  1.00  0.00    -0.432 NA 
HETATM    3  H   UNL     1      -9.757  13.808  68.757  1.00  0.00     0.000 HD 
ENDROOT
BRANCH   2   4
HETATM    4  C   UNL     1     -11.822  13.760  68.618  1.00  0.00    -0.374 C  
HETATM    5  C   UNL     1     -12.016  13.794  67.094  1.00  0.00    -0.442 C  
BRANCH   4   6
HETATM    6  C   UNL     1     -11.904  15.186  69.227  1.00  0.00    -0.347 C  
BRANCH   6   7
HETATM    7  C   UNL     1     -12.312  15.186  70.685  1.00  0.00    -0.420 A  
HETATM    8  C   UNL     1     -11.730  16.089  71.585  1.00  0.00    -0.583 A  
HETATM    9  C   UNL     1     -12.017  16.012  72.948  1.00  0.00    -0.611 A  
HETATM   10  C   UNL     1     -12.902  15.044  73.420  1.00  0.00    -0.652 A  
HETATM   11  C   UNL     1     -13.515  14.166  72.529  1.00  0.00    -0.634 A  
HETATM   12  C   UNL     1     -13.225  14.238  71.166  1.00  0.00    -0.387 A  
ENDBRANCH   6   7
ENDBRANCH   4   6
ENDBRANCH   2   4
TORSDOF 3
ENDMDL
MODEL        6
REMARK 921   NORMALIZED FREE ENERGY PREDICTED BY IDOCK:   -4.28 KCAL/MOL
REMARK 922        TOTAL FREE ENERGY PREDICTED BY IDOCK:   -5.26 KCAL/MOL
REMARK 923 INTER-LIGAND FREE ENERGY PREDICTED BY IDOCK:   -5.10 KCAL/MOL
REMARK 924 INTRA-LIGAND FREE ENERGY PREDICTED BY IDOCK:   -0.16 KCAL/MOL
REMARK 927      BINDING AFFINITY PREDICTED BY RF-SCORE:    0.00 PKD
ROOT
HETATM    1  C   UNL     1     -12.230  12.201  63.455  1.00  0.00    -0.567 C  
HETATM    2  N   UNL     1     -12.991  12.567  64.643  1.00  0.00    -0.844 NA 
HETATM    3  H   UNL     1     -13.472  11.755  65.029  1.00  0.00     0.000 HD 
ENDROOT
BRANCH   2   4
HETATM    4  C   UNL     1     -12.175  13.232  65.675  1.00  0.00    -0.462 C  
HETATM    5  C   UNL     1     -11.110  14.147  65.051  1.00  0.00    -0.372 C  
BRANCH   4   6
HETATM    6  C   UNL     1     -11.526  12.138  66.565  1.00  0.00    -0.430 C  
BRANCH   6   7
HETATM    7  C   UNL     1     -11.760  12.359  68.044  1.00  0.00    -0.414 A  
HETATM    8  C   UNL     1     -11.888  11.267  68.914  1.00  0.00    -0.413 A  
HETATM    9  C   UNL     1     -12.220  11.467  70.253  1.00  0.00    -0.433 A  
HETATM   10  C   UNL     1     -12.410  12.759  70.739  1.00  0.00    -0.375 A  
HETATM   11  C   UNL     1     -12.249  13.853  69.892  1.00  0.00    -0.393 A  
HETATM   12  C   UNL     1     -11.921  13.656  68.551  1.00  0.00    -0.396 A  
ENDBRANCH   6   7
ENDBRANCH   4   6
ENDBRANCH   2   4
TORSDOF 3
ENDMDL
MODEL        7
REMARK 921   NORMALIZED FREE ENERGY PREDICTED BY IDOCK:   -4.25 KCAL/MOL
REMARK 922        TOTAL FREE ENERGY PREDICTED BY IDOCK:   -5.22 KCAL/MOL
REMARK 923 INTER-LIGAND FREE ENERGY PREDICTED BY IDOCK:   -5.02 KCAL/MOL
REMARK 924 INTRA-LIGAND FREE ENERGY PREDICTED BY IDOCK:   -0.20 KCAL/MOL
REMARK 927      BINDING AFFINITY PREDICTED BY RF-SCORE:    0.00 PKD
ROOT
HETATM    1  C   UNL     1     -12.454  15.402  74.141  1.00  0.00    -0.642 C  
HETATM    2  N   UNL     1     -12.067  16.171  72.966  1.00  0.00    -0.515 NA 
HETATM    3  H   UNL     1     -11.270  16.773  73.173  1.00  0.00     0.000 HD 
ENDROOT
BRANCH   2   4
HETATM    4  C   UNL     1     -11.796  15.331  71.785  1.00  0.00    -0.406 C  
HETATM    5  C   UNL     1     -11.310  16.170  70.593  1.00  0.00    -0.394 C  
BRANCH   4   6
HETATM    6  C   UNL     1     -13.091  14.550  71.433  1.00  0.00    -0.423 C  
BRANCH   6   7
HETATM    7  C   UNL     1     -12.848  13.077  71.186  1.00  0.00    -0.331 A  
HETATM    8  C   UNL     1     -13.400  12.112  72.040  1.00  0.00    -0.470 A  
HETATM    9  C   UNL     1     -13.081  10.764  71.883  1.00  0.00    -0.557 A  
HETATM   10  C   UNL     1     -12.222  10.365  70.861  1.00  0.00    -0.484 A  
HETATM   11  C   UNL     1     -11.697  11.311  69.983  1.00  0.00    -0.428 A  
HETATM   12  C   UNL     1     -12.011  12.661  70.140  1.00  0.00    -0.375 A  
ENDBRANCH   6   7
ENDBRANCH   4   6
ENDBRANCH   2   4
TORSDOF 3
ENDMDL
MODEL        8
REMARK 921   NORMALIZED FREE ENERGY PREDICTED BY IDOCK:   -4.25 KCAL/MOL
REMARK 922        TOTAL FREE ENERGY PREDICTED BY IDOCK:   -5.22 KCAL/MOL
REMARK 923 INTER-LIGAND FREE ENERGY PREDICTED BY IDOCK:   -5.15 KCAL/MOL
REMARK 924 INTRA-LIGAND FREE ENERGY PREDICTED BY IDOCK:   -0.07 KCAL/MOL
REMARK 927      BINDING AFFINITY PREDICTED BY RF-SCORE:    0.00 PKD
ROOT
HETATM    1  C   UNL     1     -12.351  16.079  73.818  1.00  0.00    -0.575 C  
HETATM    2  N   UNL     1     -13.159  14.877  73.657  1.00  0.00    -0.558 NA 
HETATM    3  H   UNL     1     -14.131  15.057  73.910  1.00  0.00     0.000 HD 
ENDROOT
BRANCH   2   4
HETATM    4  C   UNL     1     -13.068  14.291  72.307  1.00  0.00    -0.405 C  
HETATM    5  C   UNL     1     -13.679  15.218  71.245  1.00  0.00    -0.570 C  
BRANCH   4   6
HETATM    6  C   UNL     1     -13.778  12.910  72.325  1.00  0.00    -0.553 C  
BRANCH   6   7
HETATM    7  C   UNL     1     -13.037  11.850  71.541  1.00  0.00    -0.377 A  
HETATM    8  C   UNL     1     -13.133  10.499  71.903  1.00  0.00    -0.567 A  
HETATM    9  C   UNL     1     -12.360   9.537  71.255  1.00  0.00    -0.430 A  
HETATM   10  C   UNL     1     -11.495   9.913  70.229  1.00  0.00    -0.349 A  
HETATM   11  C   UNL     1     -11.418  11.247  69.835  1.00  0.00    -0.373 A  
HETATM   12  C   UNL     1     -12.188  12.213  70.485  1.00  0.00    -0.392 A  
ENDBRANCH   6   7
ENDBRANCH   4   6
ENDBRANCH   2   4
TORSDOF 3
ENDMDL
MODEL        9
REMARK 921   NORMALIZED FREE ENERGY PREDICTED BY IDOCK:   -4.25 KCAL/MOL
REMARK 922        TOTAL FREE ENERGY PREDICTED BY IDOCK:   -5.22 KCAL/MOL
REMARK 923 INTER-LIGAND FREE ENERGY PREDICTED BY IDOCK:   -5.03 KCAL/MOL
REMARK 924 INTRA-LIGAND FREE ENERGY PREDICTED BY IDOCK:   -0.19 KCAL/MOL
REMARK 927      BINDING AFFINITY PREDICTED BY RF-SCORE:    0.00 PKD
ROOT
HETATM    1  C   UNL     1     -11.696  14.271  65.974  1.00  0.00    -0.379 C  
HETATM    2  N   UNL     1     -12.304  14.366  67.295  1.00  0.00    -0.594 NA 
HETATM    3  H   UNL     1     -12.980  13.615  67.437  1.00  0.00     0.000 HD 
ENDROOT
BRANCH   2   4
HETATM    4  C   UNL     1     -11.317  14.396  68.389  1.00  0.00    -0.287 C  
HETATM    5  C   UNL     1      -9.905  14.056  67.888  1.00  0.00    -0.233 C  
BRANCH   4   6
HETATM    6  C   UNL     1     -11.777  13.404  69.491  1.00  0.00    -0.385 C  
BRANCH   6   7
HETATM    7  C   UNL     1     -12.143  14.086  70.791  1.00  0.00    -0.417 A  
HETATM    8  C   UNL     1     -13.073  13.504  71.663  1.00  0.00    -0.459 A  
HETATM    9  C   UNL     1     -13.498  14.187  72.801  1.00  0.00    -0.592 A  
HETATM   10  C   UNL     1     -12.985  15.450  73.089  1.00  0.00    -0.628 A  
HETATM   11  C   UNL     1     -12.032  16.023  72.250  1.00  0.00    -0.633 A  
HETATM   12  C   UNL     1     -11.608  15.343  71.107  1.00  0.00    -0.425 A  
ENDBRANCH   6   7
ENDBRANCH   4   6
ENDBRANCH   2   4
TORSDOF 3
ENDMDL
MODEL       10
REMARK 921   NORMALIZED FREE ENERGY PREDICTED BY IDOCK:   -4.24 KCAL/MOL
REMARK 922        TOTAL FREE ENERGY PREDICTED BY IDOCK:   -5.21 KCAL/MOL
REMARK 923 INTER-LIGAND FREE ENERGY PREDICTED BY IDOCK:   -5.00 KCAL/MOL
REMARK 924 INTRA-LIGAND FREE ENERGY PREDICTED BY IDOCK:   -0.22 KCAL/MOL
REMARK 927      BINDING AFFINITY PREDICTED BY RF-SCORE:    0.00 PKD
ROOT
HETATM    1  C   UNL     1     -12.625  15.658  73.856  1.00  0.00    -0.634 C  
HETATM    2  N   UNL     1     -12.271  16.163  72.537  1.00  0.00    -0.506 NA 
HETATM    3  H   UNL     1     -11.259  16.189  72.418  1.00  0.00     0.000 HD 
ENDROOT
BRANCH   2   4
HETATM    4  C   UNL     1     -12.910  15.416  71.437  1.00  0.00    -0.439 C  
HETATM    5  C   UNL     1     -14.394  15.145  71.724  1.00  0.00    -0.696 C  
BRANCH   4   6
HETATM    6  C   UNL     1     -12.126  14.093  71.226  1.00  0.00    -0.363 C  
BRANCH   6   7
HETATM    7  C   UNL     1     -11.922  13.749  69.767  1.00  0.00    -0.406 A  
HETATM    8  C   UNL     1     -11.879  14.761  68.797  1.00  0.00    -0.330 A  
HETATM    9  C   UNL     1     -11.809  14.438  67.443  1.00  0.00    -0.430 A  
HETATM   10  C   UNL     1     -11.764  13.104  67.045  1.00  0.00    -0.431 A  
HETATM   11  C   UNL     1     -11.768  12.091  68.001  1.00  0.00    -0.398 A  
HETATM   12  C   UNL     1     -11.843  12.410  69.357  1.00  0.00    -0.365 A  
ENDBRANCH   6   7
ENDBRANCH   4   6
ENDBRANCH   2   4
TORSDOF 3
ENDMDL
MODEL       11
REMARK 921   NORMALIZED FREE ENERGY PREDICTED BY IDOCK:   -4.22 KCAL/MOL
REMARK 922        TOTAL FREE ENERGY PREDICTED BY IDOCK:   -5.18 KCAL/MOL
REMARK 923 INTER-LIGAND FREE ENERGY PREDICTED BY IDOCK:   -5.02 KCAL/MOL
REMARK 924 INTRA-LIGAND FREE ENERGY PREDICTED BY IDOCK:   -0.16 KCAL/MOL
REMARK 927      BINDING AFFINITY PREDICTED BY RF-SCORE:    0.00 PKD
ROOT
HETATM    1  C   UNL     1      -9.087  13.481  68.069  1.00  0.00    -0.201 C  
HETATM    2  N   UNL     1      -9.860  14.087  69.145  1.00  0.00    -0.426 NA 
HETATM    3  H   UNL     1      -9.534  15.034  69.336  1.00  0.00     0.000 HD 
ENDROOT
BRANCH   2   4
HETATM    4  C   UNL     1     -11.314  14.072  68.897  1.00  0.00    -0.280 C  
HETATM    5  C   UNL     1     -11.635  13.721  67.436  1.00  0.00    -0.393 C  
BRANCH   4   6
HETATM    6  C   UNL     1     -11.889  15.462  69.282  1.00  0.00    -0.365 C  
BRANCH   6   7
HETATM    7  C   UNL     1     -12.430  15.511  70.694  1.00  0.00    -0.483 A  
HETATM    8  C   UNL     1     -13.730  15.067  70.973  1.00  0.00    -0.417 A  
HETATM    9  C   UNL     1     -14.269  15.221  72.250  1.00  0.00    -0.642 A  
HETATM   10  C   UNL     1     -13.510  15.803  73.263  1.00  0.00    -0.580 A  
HETATM   11  C   UNL     1     -12.204  16.214  73.006  1.00  0.00    -0.641 A  
HETATM   12  C   UNL     1     -11.663  16.065  71.729  1.00  0.00    -0.593 A  
ENDBRANCH   6   7
ENDBRANCH   4   6
ENDBRANCH   2   4
TORSDOF 3
ENDMDL
MODEL       12
REMARK 921   NORMALIZED FREE ENERGY PREDICTED BY IDOCK:   -4.18 KCAL/MOL
REMARK 922        TOTAL FREE ENERGY PREDICTED BY IDOCK:   -5.14 KCAL/MOL
REMARK 923 INTER-LIGAND FREE ENERGY PREDICTED BY IDOCK:   -5.09 KCAL/MOL
REMARK 924 INTRA-LIGAND FREE ENERGY PREDICTED BY IDOCK:   -0.05 KCAL/MOL
REMARK 927      BINDING AFFINITY PREDICTED BY RF-SCORE:    0.00 PKD
ROOT
HETATM    1  C   UNL     1     -12.828   8.008  71.583  1.00  0.00    -0.329 C  
HETATM    2  N   UNL     1     -13.636   9.072  71.003  1.00  0.00    -0.566 NA 
HETATM    3  H   UNL     1     -14.450   9.268  71.585  1.00  0.00     0.000 HD 
ENDROOT
BRANCH   2   4
HETATM    4  C   UNL     1     -12.871  10.306  70.739  1.00  0.00    -0.344 C  
HETATM    5  C   UNL     1     -11.411   9.999  70.372  1.00  0.00    -0.389 C  
BRANCH   4   6
HETATM    6  C   UNL     1     -12.957  11.212  71.997  1.00  0.00    -0.385 C  
BRANCH   6   7
HETATM    7  C   UNL     1     -13.133  12.677  71.663  1.00  0.00    -0.421 A  
HETATM    8  C   UNL     1     -12.400  13.262  70.621  1.00  0.00    -0.416 A  
HETATM    9  C   UNL     1     -12.475  14.635  70.390  1.00  0.00    -0.410 A  
HETATM   10  C   UNL     1     -13.294  15.433  71.185  1.00  0.00    -0.580 A  
HETATM   11  C   UNL     1     -14.056  14.857  72.200  1.00  0.00    -0.616 A  
HETATM   12  C   UNL     1     -13.980  13.484  72.436  1.00  0.00    -0.638 A  
ENDBRANCH   6   7
ENDBRANCH   4   6
ENDBRANCH   2   4
TORSDOF 3
ENDMDL
MODEL       13
REMARK 921   NORMALIZED FREE ENERGY PREDICTED BY IDOCK:   -4.13 KCAL/MOL
REMARK 922        TOTAL FREE ENERGY PREDICTED BY IDOCK:   -5.08 KCAL/MOL
REMARK 923 INTER-LIGAND FREE ENERGY PREDICTED BY IDOCK:   -4.91 KCAL/MOL
REMARK 924 INTRA-LIGAND FREE ENERGY PREDICTED BY IDOCK:   -0.17 KCAL/MOL
REMARK 927      BINDING AFFINITY PREDICTED BY RF-SCORE:    0.00 PKD
ROOT
HETATM    1  C   UNL     1     -12.194  12.638  63.519  1.00  0.00    -0.547 C  
HETATM    2  N   UNL     1     -12.835  12.571  64.825  1.00  0.00    -0.820 NA 
HETATM    3  H   UNL     1     -12.773  11.629  65.212  1.00  0.00     0.000 HD 
ENDROOT
BRANCH   2   4
HETATM    4  C   UNL     1     -12.314  13.565  65.781  1.00  0.00    -0.468 C  
HETATM    5  C   UNL     1     -11.679  14.764  65.061  1.00  0.00    -0.364 C  
BRANCH   4   6
HETATM    6  C   UNL     1     -11.289  12.859  66.710  1.00  0.00    -0.367 C  
BRANCH   6   7
HETATM    7  C   UNL     1     -11.713  12.847  68.162  1.00  0.00    -0.395 A  
HETATM    8  C   UNL     1     -12.092  14.035  68.802  1.00  0.00    -0.338 A  
HETATM    9  C   UNL     1     -12.369  14.044  70.169  1.00  0.00    -0.409 A  
HETATM   10  C   UNL     1     -12.287  12.863  70.905  1.00  0.00    -0.365 A  
HETATM   11  C   UNL     1     -11.947  11.670  70.272  1.00  0.00    -0.445 A  
HETATM   12  C   UNL     1     -11.665  11.659  68.905  1.00  0.00    -0.397 A  
ENDBRANCH   6   7
ENDBRANCH   4   6
ENDBRANCH   2   4
TORSDOF 3
ENDMDL
MODEL       14
REMARK 921   NORMALIZED FREE ENERGY PREDICTED BY IDOCK:   -4.12 KCAL/MOL
REMARK 922        TOTAL FREE ENERGY PREDICTED BY IDOCK:   -5.07 KCAL/MOL
REMARK 923 INTER-LIGAND FREE ENERGY PREDICTED BY IDOCK:   -4.85 KCAL/MOL
REMARK 924 INTRA-LIGAND FREE ENERGY PREDICTED BY IDOCK:   -0.21 KCAL/MOL
REMARK 927      BINDING AFFINITY PREDICTED BY RF-SCORE:    0.00 PKD
ROOT
HETATM    1  C   UNL     1     -13.828   7.101  71.657  1.00  0.00    -0.302 C  
HETATM    2  N   UNL     1     -12.837   7.651  70.741  1.00  0.00    -0.546 NA 
HETATM    3  H   UNL     1     -13.280   7.976  69.882  1.00  0.00     0.000 HD 
ENDROOT
BRANCH   2   4
HETATM    4  C   UNL     1     -12.016   8.717  71.344  1.00  0.00    -0.304 C  
HETATM    5  C   UNL     1     -11.066   8.162  72.416  1.00  0.00    -0.437 C  
BRANCH   4   6
HETATM    6  C   UNL     1     -12.968   9.791  71.936  1.00  0.00    -0.535 C  
BRANCH   6   7
HETATM    7  C   UNL     1     -12.765  11.163  71.332  1.00  0.00    -0.524 A  
HETATM    8  C   UNL     1     -11.998  11.322  70.170  1.00  0.00    -0.452 A  
HETATM    9  C   UNL     1     -11.713  12.596  69.680  1.00  0.00    -0.373 A  
HETATM   10  C   UNL     1     -12.207  13.721  70.336  1.00  0.00    -0.433 A  
HETATM   11  C   UNL     1     -13.003  13.574  71.470  1.00  0.00    -0.440 A  
HETATM   12  C   UNL     1     -13.285  12.301  71.965  1.00  0.00    -0.508 A  
ENDBRANCH   6   7
ENDBRANCH   4   6
ENDBRANCH   2   4
TORSDOF 3
ENDMDL
MODEL       15
REMARK 921   NORMALIZED FREE ENERGY PREDICTED BY IDOCK:   -4.08 KCAL/MOL
REMARK 922        TOTAL FREE ENERGY PREDICTED BY IDOCK:   -5.02 KCAL/MOL
REMARK 923 INTER-LIGAND FREE ENERGY PREDICTED BY IDOCK:   -4.82 KCAL/MOL
REMARK 924 INTRA-LIGAND FREE ENERGY PREDICTED BY IDOCK:   -0.20 KCAL/MOL
REMARK 927      BINDING AFFINITY PREDICTED BY RF-SCORE:    0.00 PKD
ROOT
HETATM    1  C   UNL     1     -12.042   6.469  71.737  1.00  0.00    -0.342 C  
HETATM    2  N   UNL     1     -12.585   7.518  70.885  1.00  0.00    -0.554 NA 
HETATM    3  H   UNL     1     -13.598   7.579  70.985  1.00  0.00     0.000 HD 
ENDROOT
BRANCH   2   4
HETATM    4  C   UNL     1     -11.957   8.833  71.109  1.00  0.00    -0.285 C  
HETATM    5  C   UNL     1     -10.796   8.743  72.111  1.00  0.00    -0.400 C  
BRANCH   4   6
HETATM    6  C   UNL     1     -13.051   9.820  71.602  1.00  0.00    -0.516 C  
BRANCH   6   7
HETATM    7  C   UNL     1     -12.754  11.261  71.250  1.00  0.00    -0.510 A  
HETATM    8  C   UNL     1     -13.298  12.305  72.010  1.00  0.00    -0.491 A  
HETATM    9  C   UNL     1     -13.121  13.631  71.617  1.00  0.00    -0.455 A  
HETATM   10  C   UNL     1     -12.385  13.927  70.472  1.00  0.00    -0.439 A  
HETATM   11  C   UNL     1     -11.808  12.899  69.729  1.00  0.00    -0.380 A  
HETATM   12  C   UNL     1     -11.987  11.571  70.117  1.00  0.00    -0.452 A  
ENDBRANCH   6   7
ENDBRANCH   4   6
ENDBRANCH   2   4
TORSDOF 3
ENDMDL
MODEL       16
REMARK 921   NORMALIZED FREE ENERGY PREDICTED BY IDOCK:   -4.04 KCAL/MOL
REMARK 922        TOTAL FREE ENERGY PREDICTED BY IDOCK:   -4.98 KCAL/MOL
REMARK 923 INTER-LIGAND FREE ENERGY PREDICTED BY IDOCK:   -4.98 KCAL/MOL
REMARK 924 INTRA-LIGAND FREE ENERGY PREDICTED BY IDOCK:    0.00 KCAL/MOL
REMARK 927      BINDING AFFINITY PREDICTED BY RF-SCORE:    0.00 PKD
ROOT
HETATM    1  C   UNL     1     -11.411  12.768  66.951  1.00  0.00    -0.321 C  
HETATM    2  N   UNL     1     -12.074  12.130  68.080  1.00  0.00    -0.417 NA 
HETATM    3  H   UNL     1     -11.901  11.124  68.081  1.00  0.00     0.000 HD 
ENDROOT
BRANCH   2   4
HETATM    4  C   UNL     1     -11.712  12.725  69.380  1.00  0.00    -0.319 C  
HETATM    5  C   UNL     1     -12.315  11.936  70.552  1.00  0.00    -0.372 C  
BRANCH   4   6
HETATM    6  C   UNL     1     -12.189  14.202  69.390  1.00  0.00    -0.329 C  
BRANCH   6   7
HETATM    7  C   UNL     1     -12.513  14.712  70.778  1.00  0.00    -0.407 A  
HETATM    8  C   UNL     1     -13.844  14.810  71.207  1.00  0.00    -0.460 A  
HETATM    9  C   UNL     1     -14.148  15.389  72.438  1.00  0.00    -0.645 A  
HETATM   10  C   UNL     1     -13.125  15.859  73.259  1.00  0.00    -0.694 A  
HETATM   11  C   UNL     1     -11.797  15.733  72.860  1.00  0.00    -0.568 A  
HETATM   12  C   UNL     1     -11.490  15.159  71.626  1.00  0.00    -0.445 A  
ENDBRANCH   6   7
ENDBRANCH   4   6
ENDBRANCH   2   4
TORSDOF 3
ENDMDL
MODEL       17
REMARK 921   NORMALIZED FREE ENERGY PREDICTED BY IDOCK:   -3.98 KCAL/MOL
REMARK 922        TOTAL FREE ENERGY PREDICTED BY IDOCK:   -4.91 KCAL/MOL
REMARK 923 INTER-LIGAND FREE ENERGY PREDICTED BY IDOCK:   -4.73 KCAL/MOL
REMARK 924 INTRA-LIGAND FREE ENERGY PREDICTED BY IDOCK:   -0.18 KCAL/MOL
REMARK 927      BINDING AFFINITY PREDICTED BY RF-SCORE:    0.00 PKD
ROOT
HETATM    1  C   UNL     1     -12.719  11.880  63.463  1.00  0.00    -0.405 C  
HETATM    2  N   UNL     1     -13.063  12.623  64.668  1.00  0.00    -0.848 NA 
HETATM    3  H   UNL     1     -13.510  12.015  65.354  1.00  0.00     0.000 HD 
ENDROOT
BRANCH   2   4
HETATM    4  C   UNL     1     -11.914  13.330  65.263  1.00  0.00    -0.388 C  
HETATM    5  C   UNL     1     -10.692  13.309  64.332  1.00  0.00    -0.432 C  
BRANCH   4   6
HETATM    6  C   UNL     1     -11.591  12.671  66.632  1.00  0.00    -0.443 C  
BRANCH   6   7
HETATM    7  C   UNL     1     -11.705  13.632  67.795  1.00  0.00    -0.397 A  
HETATM    8  C   UNL     1     -11.435  14.996  67.620  1.00  0.00    -0.344 A  
HETATM    9  C   UNL     1     -11.425  15.861  68.714  1.00  0.00    -0.393 A  
HETATM   10  C   UNL     1     -11.702  15.373  69.990  1.00  0.00    -0.349 A  
HETATM   11  C   UNL     1     -12.008  14.026  70.171  1.00  0.00    -0.399 A  
HETATM   12  C   UNL     1     -12.014  13.159  69.078  1.00  0.00    -0.329 A  
ENDBRANCH   6   7
ENDBRANCH   4   6
ENDBRANCH   2   4
TORSDOF 3
ENDMDL
MODEL       18
REMARK 921   NORMALIZED FREE ENERGY PREDICTED BY IDOCK:   -3.98 KCAL/MOL
REMARK 922        TOTAL FREE ENERGY PREDICTED BY IDOCK:   -4.90 KCAL/MOL
REMARK 923 INTER-LIGAND FREE ENERGY PREDICTED BY IDOCK:   -4.72 KCAL/MOL
REMARK 924 INTRA-LIGAND FREE ENERGY PREDICTED BY IDOCK:   -0.18 KCAL/MOL
REMARK 927      BINDING AFFINITY PREDICTED BY RF-SCORE:    0.00 PKD
ROOT
HETATM    1  C   UNL     1      -9.888  12.537  66.618  1.00  0.00    -0.241 C  
HETATM    2  N   UNL     1     -10.190  13.220  67.869  1.00  0.00    -0.227 NA 
HETATM    3  H   UNL     1      -9.551  14.000  68.020  1.00  0.00     0.000 HD 
ENDROOT
BRANCH   2   4
HETATM    4  C   UNL     1     -11.593  13.666  67.964  1.00  0.00    -0.333 C  
HETATM    5  C   UNL     1     -12.146  14.092  66.596  1.00  0.00    -0.487 C  
BRANCH   4   6
HETATM    6  C   UNL     1     -11.667  14.830  68.989  1.00  0.00    -0.343 C  
BRANCH   6   7
HETATM    7  C   UNL     1     -12.425  14.468  70.247  1.00  0.00    -0.405 A  
HETATM    8  C   UNL     1     -12.392  13.157  70.744  1.00  0.00    -0.404 A  
HETATM    9  C   UNL     1     -13.183  12.795  71.834  1.00  0.00    -0.511 A  
HETATM   10  C   UNL     1     -14.001  13.742  72.447  1.00  0.00    -0.651 A  
HETATM   11  C   UNL     1     -14.013  15.057  71.985  1.00  0.00    -0.605 A  
HETATM   12  C   UNL     1     -13.226  15.420  70.892  1.00  0.00    -0.512 A  
ENDBRANCH   6   7
ENDBRANCH   4   6
ENDBRANCH   2   4
TORSDOF 3
ENDMDL
MODEL       19
REMARK 921   NORMALIZED FREE ENERGY PREDICTED BY IDOCK:   -3.97 KCAL/MOL
REMARK 922        TOTAL FREE ENERGY PREDICTED BY IDOCK:   -4.90 KCAL/MOL
REMARK 923 INTER-LIGAND FREE ENERGY PREDICTED BY IDOCK:   -4.73 KCAL/MOL
REMARK 924 INTRA-LIGAND FREE ENERGY PREDICTED BY IDOCK:   -0.16 KCAL/MOL
REMARK 927      BINDING AFFINITY PREDICTED BY RF-SCORE:    0.00 PKD
ROOT
HETATM    1  C   UNL     1     -12.307  10.962  70.610  1.00  0.00    -0.376 C  
HETATM    2  N   UNL     1     -12.526  10.559  69.227  1.00  0.00    -0.717 NA 
HETATM    3  H   UNL     1     -13.408  10.932  68.876  1.00  0.00     0.000 HD 
ENDROOT
BRANCH   2   4
HETATM    4  C   UNL     1     -11.411  10.921  68.333  1.00  0.00    -0.304 C  
HETATM    5  C   UNL     1     -10.055  10.819  69.048  1.00  0.00    -0.225 C  
BRANCH   4   6
HETATM    6  C   UNL     1     -11.659  12.359  67.800  1.00  0.00    -0.413 C  
BRANCH   6   7
HETATM    7  C   UNL     1     -11.574  12.456  66.292  1.00  0.00    -0.449 A  
HETATM    8  C   UNL     1     -12.310  13.428  65.600  1.00  0.00    -0.521 A  
HETATM    9  C   UNL     1     -12.324  13.443  64.206  1.00  0.00    -0.396 A  
HETATM   10  C   UNL     1     -11.590  12.499  63.491  1.00  0.00    -0.584 A  
HETATM   11  C   UNL     1     -10.825  11.553  64.168  1.00  0.00    -0.435 A  
HETATM   12  C   UNL     1     -10.812  11.532  65.563  1.00  0.00    -0.313 A  
ENDBRANCH   6   7
ENDBRANCH   4   6
ENDBRANCH   2   4
TORSDOF 3
ENDMDL
MODEL       20
REMARK 921   NORMALIZED FREE ENERGY PREDICTED BY IDOCK:   -3.97 KCAL/MOL
REMARK 922        TOTAL FREE ENERGY PREDICTED BY IDOCK:   -4.89 KCAL/MOL
REMARK 923 INTER-LIGAND FREE ENERGY PREDICTED BY IDOCK:   -4.71 KCAL/MOL
REMARK 924 INTRA-LIGAND FREE ENERGY PREDICTED BY IDOCK:   -0.18 KCAL/MOL
REMARK 927      BINDING AFFINITY PREDICTED BY RF-SCORE:    0.00 PKD
ROOT
HETATM    1  C   UNL     1     -12.983  15.326  71.405  1.00  0.00    -0.431 C  
HETATM    2  N   UNL     1     -11.890  16.142  70.894  1.00  0.00    -0.541 NA 
HETATM    3  H   UNL     1     -11.039  15.987  71.434  1.00  0.00     0.000 HD 
ENDROOT
BRANCH   2   4
HETATM    4  C   UNL     1     -11.641  15.946  69.454  1.00  0.00    -0.349 C  
HETATM    5  C   UNL     1     -11.861  14.484  69.036  1.00  0.00    -0.354 C  
BRANCH   4   6
HETATM    6  C   UNL     1     -10.192  16.409  69.141  1.00  0.00    -0.280 C  
BRANCH   6   7
HETATM    7  C   UNL     1     -10.138  17.621  68.238  1.00  0.00    -0.362 A  
HETATM    8  C   UNL     1     -10.033  18.909  68.782  1.00  0.00    -0.466 A  
HETATM    9  C   UNL     1     -10.101  20.032  67.958  1.00  0.00    -0.557 A  
HETATM   10  C   UNL     1     -10.257  19.878  66.582  1.00  0.00    -0.609 A  
HETATM   11  C   UNL     1     -10.325  18.603  66.026  1.00  0.00    -0.436 A  
HETATM   12  C   UNL     1     -10.261  17.478  66.849  1.00  0.00    -0.329 A  
ENDBRANCH   6   7
ENDBRANCH   4   6
ENDBRANCH   2   4
TORSDOF 3
ENDMDL
MODEL       21
REMARK 921   NORMALIZED FREE ENERGY PREDICTED BY IDOCK:   -3.96 KCAL/MOL
REMARK 922        TOTAL FREE ENERGY PREDICTED BY IDOCK:   -4.88 KCAL/MOL
REMARK 923 INTER-LIGAND FREE ENERGY PREDICTED BY IDOCK:   -4.71 KCAL/MOL
REMARK 924 INTRA-LIGAND FREE ENERGY PREDICTED BY IDOCK:   -0.18 KCAL/MOL
REMARK 927      BINDING AFFINITY PREDICTED BY RF-SCORE:    0.00 PKD
ROOT
HETATM    1  C   UNL     1     -13.744  15.847  72.708  1.00  0.00    -0.495 C  
HETATM    2  N   UNL     1     -13.659  15.586  71.277  1.00  0.00    -0.566 NA 
HETATM    3  H   UNL     1     -12.966  16.192  70.839  1.00  0.00     0.000 HD 
ENDROOT
BRANCH   2   4
HETATM    4  C   UNL     1     -13.394  14.170  70.960  1.00  0.00    -0.225 C  
HETATM    5  C   UNL     1     -13.628  13.263  72.177  1.00  0.00    -0.655 C  
BRANCH   4   6
HETATM    6  C   UNL     1     -11.936  14.051  70.440  1.00  0.00    -0.398 C  
BRANCH   6   7
HETATM    7  C   UNL     1     -11.832  13.311  69.124  1.00  0.00    -0.378 A  
HETATM    8  C   UNL     1     -11.621  11.926  69.102  1.00  0.00    -0.373 A  
HETATM    9  C   UNL     1     -11.408  11.263  67.893  1.00  0.00    -0.367 A  
HETATM   10  C   UNL     1     -11.423  11.975  66.696  1.00  0.00    -0.411 A  
HETATM   11  C   UNL     1     -11.669  13.346  66.703  1.00  0.00    -0.428 A  
HETATM   12  C   UNL     1     -11.878  14.012  67.911  1.00  0.00    -0.411 A  
ENDBRANCH   6   7
ENDBRANCH   4   6
ENDBRANCH   2   4
TORSDOF 3
ENDMDL
MODEL       22
REMARK 921   NORMALIZED FREE ENERGY PREDICTED BY IDOCK:   -3.93 KCAL/MOL
REMARK 922        TOTAL FREE ENERGY PREDICTED BY IDOCK:   -4.85 KCAL/MOL
REMARK 923 INTER-LIGAND FREE ENERGY PREDICTED BY IDOCK:   -4.72 KCAL/MOL
REMARK 924 INTRA-LIGAND FREE ENERGY PREDICTED BY IDOCK:   -0.13 KCAL/MOL
REMARK 927      BINDING AFFINITY PREDICTED BY RF-SCORE:    0.00 PKD
ROOT
HETATM    1  C   UNL     1     -12.124  10.490  69.900  1.00  0.00    -0.245 C  
HETATM    2  N   UNL     1     -12.234  11.083  68.574  1.00  0.00    -0.781 NA 
HETATM    3  H   UNL     1     -13.209  11.138  68.281  1.00  0.00     0.000 HD 
ENDROOT
BRANCH   2   4
HETATM    4  C   UNL     1     -11.580  12.401  68.471  1.00  0.00    -0.313 C  
HETATM    5  C   UNL     1     -11.778  13.233  69.747  1.00  0.00    -0.354 C  
BRANCH   4   6
HETATM    6  C   UNL     1     -12.152  13.133  67.226  1.00  0.00    -0.329 C  
BRANCH   6   7
HETATM    7  C   UNL     1     -11.690  12.530  65.918  1.00  0.00    -0.480 A  
HETATM    8  C   UNL     1     -10.389  12.026  65.787  1.00  0.00    -0.289 A  
HETATM    9  C   UNL     1      -9.925  11.578  64.551  1.00  0.00    -0.306 A  
HETATM   10  C   UNL     1     -10.763  11.614  63.437  1.00  0.00    -0.460 A  
HETATM   11  C   UNL     1     -12.070  12.079  63.563  1.00  0.00    -0.628 A  
HETATM   12  C   UNL     1     -12.535  12.531  64.799  1.00  0.00    -0.532 A  
ENDBRANCH   6   7
ENDBRANCH   4   6
ENDBRANCH   2   4
TORSDOF 3
ENDMDL
MODEL       23
REMARK 921   NORMALIZED FREE ENERGY PREDICTED BY IDOCK:   -3.93 KCAL/MOL
REMARK 922        TOTAL FREE ENERGY PREDICTED BY IDOCK:   -4.84 KCAL/MOL
REMARK 923 INTER-LIGAND FREE ENERGY PREDICTED BY IDOCK:   -4.68 KCAL/MOL
REMARK 924 INTRA-LIGAND FREE ENERGY PREDICTED BY IDOCK:   -0.17 KCAL/MOL
REMARK 927      BINDING AFFINITY PREDICTED BY RF-SCORE:    0.00 PKD
ROOT
HETATM    1  C   UNL     1     -12.724  15.554  71.350  1.00  0.00    -0.451 C  
HETATM    2  N   UNL     1     -11.588  16.347  70.898  1.00  0.00    -0.579 NA 
HETATM    3  H   UNL     1     -10.791  16.227  71.523  1.00  0.00     0.000 HD 
ENDROOT
BRANCH   2   4
HETATM    4  C   UNL     1     -11.206  16.073  69.501  1.00  0.00    -0.348 C  
HETATM    5  C   UNL     1     -11.079  14.565  69.234  1.00  0.00    -0.296 C  
BRANCH   4   6
HETATM    6  C   UNL     1      -9.872  16.811  69.205  1.00  0.00    -0.168 C  
BRANCH   6   7
HETATM    7  C   UNL     1     -10.033  17.967  68.243  1.00  0.00    -0.374 A  
HETATM    8  C   UNL     1     -10.396  17.737  66.909  1.00  0.00    -0.344 A  
HETATM    9  C   UNL     1     -10.430  18.789  65.994  1.00  0.00    -0.483 A  
HETATM   10  C   UNL     1     -10.119  20.083  66.408  1.00  0.00    -0.609 A  
HETATM   11  C   UNL     1      -9.793  20.329  67.740  1.00  0.00    -0.534 A  
HETATM   12  C   UNL     1      -9.754  19.278  68.656  1.00  0.00    -0.494 A  
ENDBRANCH   6   7
ENDBRANCH   4   6
ENDBRANCH   2   4
TORSDOF 3
ENDMDL
MODEL       24
REMARK 921   NORMALIZED FREE ENERGY PREDICTED BY IDOCK:   -3.91 KCAL/MOL
REMARK 922        TOTAL FREE ENERGY PREDICTED BY IDOCK:   -4.82 KCAL/MOL
REMARK 923 INTER-LIGAND FREE ENERGY PREDICTED BY IDOCK:   -4.91 KCAL/MOL
REMARK 924 INTRA-LIGAND FREE ENERGY PREDICTED BY IDOCK:    0.09 KCAL/MOL
REMARK 927      BINDING AFFINITY PREDICTED BY RF-SCORE:    0.00 PKD
ROOT
HETATM    1  C   UNL     1     -11.086   6.071  70.058  1.00  0.00    -0.381 C  
HETATM    2  N   UNL     1     -12.275   6.912  70.102  1.00  0.00    -0.623 NA 
HETATM    3  H   UNL     1     -13.001   6.546  69.487  1.00  0.00     0.000 HD 
ENDROOT
BRANCH   2   4
HETATM    4  C   UNL     1     -12.796   7.112  71.467  1.00  0.00    -0.391 C  
HETATM    5  C   UNL     1     -14.291   7.463  71.456  1.00  0.00    -0.594 C  
BRANCH   4   6
HETATM    6  C   UNL     1     -11.960   8.227  72.151  1.00  0.00    -0.429 C  
BRANCH   6   7
HETATM    7  C   UNL     1     -12.127   9.581  71.496  1.00  0.00    -0.468 A  
HETATM    8  C   UNL     1     -11.375   9.922  70.364  1.00  0.00    -0.376 A  
HETATM    9  C   UNL     1     -11.442  11.209  69.832  1.00  0.00    -0.386 A  
HETATM   10  C   UNL     1     -12.275  12.162  70.415  1.00  0.00    -0.378 A  
HETATM   11  C   UNL     1     -13.056  11.823  71.518  1.00  0.00    -0.389 A  
HETATM   12  C   UNL     1     -12.987  10.538  72.055  1.00  0.00    -0.490 A  
ENDBRANCH   6   7
ENDBRANCH   4   6
ENDBRANCH   2   4
TORSDOF 3
ENDMDL
MODEL       25
REMARK 921   NORMALIZED FREE ENERGY PREDICTED BY IDOCK:   -3.89 KCAL/MOL
REMARK 922        TOTAL FREE ENERGY PREDICTED BY IDOCK:   -4.80 KCAL/MOL
REMARK 923 INTER-LIGAND FREE ENERGY PREDICTED BY IDOCK:   -4.54 KCAL/MOL
REMARK 924 INTRA-LIGAND FREE ENERGY PREDICTED BY IDOCK:   -0.26 KCAL/MOL
REMARK 927      BINDING AFFINITY PREDICTED BY RF-SCORE:    0.00 PKD
ROOT
HETATM    1  C   UNL     1     -12.038  11.350  70.120  1.00  0.00    -0.357 C  
HETATM    2  N   UNL     1     -12.256  10.790  68.793  1.00  0.00    -0.814 NA 
HETATM    3  H   UNL     1     -13.249  10.633  68.624  1.00  0.00     0.000 HD 
ENDROOT
BRANCH   2   4
HETATM    4  C   UNL     1     -11.663  11.603  67.715  1.00  0.00    -0.245 C  
HETATM    5  C   UNL     1     -10.177  11.271  67.507  1.00  0.00    -0.217 C  
BRANCH   4   6
HETATM    6  C   UNL     1     -11.861  13.102  68.068  1.00  0.00    -0.398 C  
BRANCH   6   7
HETATM    7  C   UNL     1     -11.693  14.020  66.877  1.00  0.00    -0.435 A  
HETATM    8  C   UNL     1     -12.409  13.788  65.694  1.00  0.00    -0.517 A  
HETATM    9  C   UNL     1     -12.168  14.563  64.560  1.00  0.00    -0.483 A  
HETATM   10  C   UNL     1     -11.223  15.586  64.602  1.00  0.00    -0.381 A  
HETATM   11  C   UNL     1     -10.533  15.850  65.783  1.00  0.00    -0.386 A  
HETATM   12  C   UNL     1     -10.769  15.074  66.918  1.00  0.00    -0.308 A  
ENDBRANCH   6   7
ENDBRANCH   4   6
ENDBRANCH   2   4
TORSDOF 3
ENDMDL
MODEL       26
REMARK 921   NORMALIZED FREE ENERGY PREDICTED BY IDOCK:   -3.86 KCAL/MOL
REMARK 922        TOTAL FREE ENERGY PREDICTED BY IDOCK:   -4.77 KCAL/MOL
REMARK 923 INTER-LIGAND FREE ENERGY PREDICTED BY IDOCK:   -4.58 KCAL/MOL
REMARK 924 INTRA-LIGAND FREE ENERGY PREDICTED BY IDOCK:   -0.19 KCAL/MOL
REMARK 927      BINDING AFFINITY PREDICTED BY RF-SCORE:    0.00 PKD
ROOT
HETATM    1  C   UNL     1     -11.787  10.119  70.366  1.00  0.00    -0.288 C  
HETATM    2  N   UNL     1     -12.295  10.662  69.113  1.00  0.00    -0.755 NA 
HETATM    3  H   UNL     1     -12.953  11.421  69.287  1.00  0.00     0.000 HD 
ENDROOT
BRANCH   2   4
HETATM    4  C   UNL     1     -11.228  11.095  68.192  1.00  0.00    -0.292 C  
HETATM    5  C   UNL     1      -9.840  10.988  68.843  1.00  0.00    -0.189 C  
BRANCH   4   6
HETATM    6  C   UNL     1     -11.529  12.551  67.745  1.00  0.00    -0.378 C  
BRANCH   6   7
HETATM    7  C   UNL     1     -11.674  12.695  66.246  1.00  0.00    -0.460 A  
HETATM    8  C   UNL     1     -11.144  11.724  65.384  1.00  0.00    -0.336 A  
HETATM    9  C   UNL     1     -11.174  11.914  64.003  1.00  0.00    -0.470 A  
HETATM   10  C   UNL     1     -11.749  13.066  63.470  1.00  0.00    -0.532 A  
HETATM   11  C   UNL     1     -12.312  14.019  64.315  1.00  0.00    -0.393 A  
HETATM   12  C   UNL     1     -12.280  13.834  65.697  1.00  0.00    -0.484 A  
ENDBRANCH   6   7
ENDBRANCH   4   6
ENDBRANCH   2   4
TORSDOF 3
ENDMDL
MODEL       27
REMARK 921   NORMALIZED FREE ENERGY PREDICTED BY IDOCK:   -3.86 KCAL/MOL
REMARK 922        TOTAL FREE ENERGY PREDICTED BY IDOCK:   -4.76 KCAL/MOL
REMARK 923 INTER-LIGAND FREE ENERGY PREDICTED BY IDOCK:   -4.90 KCAL/MOL
REMARK 924 INTRA-LIGAND FREE ENERGY PREDICTED BY IDOCK:    0.14 KCAL/MOL
REMARK 927      BINDING AFFINITY PREDICTED BY RF-SCORE:    0.00 PKD
ROOT
HETATM    1  C   UNL     1     -12.237  15.814  70.033  1.00  0.00    -0.285 C  
HETATM    2  N   UNL     1     -13.445  15.401  70.735  1.00  0.00    -0.760 NA 
HETATM    3  H   UNL     1     -14.248  15.407  70.107  1.00  0.00     0.000 HD 
ENDROOT
BRANCH   2   4
HETATM    4  C   UNL     1     -13.311  14.093  71.402  1.00  0.00    -0.331 C  
HETATM    5  C   UNL     1     -12.942  14.250  72.885  1.00  0.00    -0.548 C  
BRANCH   4   6
HETATM    6  C   UNL     1     -12.242  13.262  70.641  1.00  0.00    -0.417 C  
BRANCH   6   7
HETATM    7  C   UNL     1     -12.357  11.775  70.892  1.00  0.00    -0.420 A  
HETATM    8  C   UNL     1     -13.232  11.284  71.871  1.00  0.00    -0.491 A  
HETATM    9  C   UNL     1     -13.252   9.925  72.183  1.00  0.00    -0.511 A  
HETATM   10  C   UNL     1     -12.410   9.042  71.509  1.00  0.00    -0.397 A  
HETATM   11  C   UNL     1     -11.563   9.513  70.509  1.00  0.00    -0.316 A  
HETATM   12  C   UNL     1     -11.538  10.873  70.197  1.00  0.00    -0.425 A  
ENDBRANCH   6   7
ENDBRANCH   4   6
ENDBRANCH   2   4
TORSDOF 3
ENDMDL
MODEL       28
REMARK 921   NORMALIZED FREE ENERGY PREDICTED BY IDOCK:   -3.85 KCAL/MOL
REMARK 922        TOTAL FREE ENERGY PREDICTED BY IDOCK:   -4.75 KCAL/MOL
REMARK 923 INTER-LIGAND FREE ENERGY PREDICTED BY IDOCK:   -4.57 KCAL/MOL
REMARK 924 INTRA-LIGAND FREE ENERGY PREDICTED BY IDOCK:   -0.19 KCAL/MOL
REMARK 927      BINDING AFFINITY PREDICTED BY RF-SCORE:    0.00 PKD
ROOT
HETATM    1  C   UNL     1      -9.517  11.159  63.019  1.00  0.00    -0.369 C  
HETATM    2  N   UNL     1     -10.046  12.478  63.336  1.00  0.00    -0.603 NA 
HETATM    3  H   UNL     1     -10.336  12.965  62.488  1.00  0.00     0.000 HD 
ENDROOT
BRANCH   2   4
HETATM    4  C   UNL     1     -11.142  12.444  64.322  1.00  0.00    -0.349 C  
HETATM    5  C   UNL     1     -12.502  12.207  63.649  1.00  0.00    -0.658 C  
BRANCH   4   6
HETATM    6  C   UNL     1     -11.130  13.781  65.112  1.00  0.00    -0.330 C  
BRANCH   6   7
HETATM    7  C   UNL     1     -11.362  13.597  66.596  1.00  0.00    -0.343 A  
HETATM    8  C   UNL     1     -11.442  12.311  67.149  1.00  0.00    -0.419 A  
HETATM    9  C   UNL     1     -11.772  12.139  68.492  1.00  0.00    -0.382 A  
HETATM   10  C   UNL     1     -12.007  13.250  69.300  1.00  0.00    -0.354 A  
HETATM   11  C   UNL     1     -11.893  14.533  68.771  1.00  0.00    -0.350 A  
HETATM   12  C   UNL     1     -11.568  14.708  67.426  1.00  0.00    -0.408 A  
ENDBRANCH   6   7
ENDBRANCH   4   6
ENDBRANCH   2   4
TORSDOF 3
ENDMDL
MODEL       29
REMARK 921   NORMALIZED FREE ENERGY PREDICTED BY IDOCK:   -3.84 KCAL/MOL
REMARK 922        TOTAL FREE ENERGY PREDICTED BY IDOCK:   -4.74 KCAL/MOL
REMARK 923 INTER-LIGAND FREE ENERGY PREDICTED BY IDOCK:   -4.55 KCAL/MOL
REMARK 924 INTRA-LIGAND FREE ENERGY PREDICTED BY IDOCK:   -0.19 KCAL/MOL
REMARK 927      BINDING AFFINITY PREDICTED BY RF-SCORE:    0.00 PKD
ROOT
HETATM    1  C   UNL     1     -10.788  15.723  64.962  1.00  0.00    -0.443 C  
HETATM    2  N   UNL     1     -11.457  14.597  64.325  1.00  0.00    -0.639 NA 
HETATM    3  H   UNL     1     -11.387  14.661  63.310  1.00  0.00     0.000 HD 
ENDROOT
BRANCH   2   4
HETATM    4  C   UNL     1     -10.975  13.288  64.802  1.00  0.00    -0.350 C  
HETATM    5  C   UNL     1     -10.518  12.394  63.639  1.00  0.00    -0.460 C  
BRANCH   4   6
HETATM    6  C   UNL     1     -12.113  12.614  65.616  1.00  0.00    -0.502 C  
BRANCH   6   7
HETATM    7  C   UNL     1     -11.887  12.668  67.111  1.00  0.00    -0.399 A  
HETATM    8  C   UNL     1     -11.575  11.503  67.825  1.00  0.00    -0.338 A  
HETATM    9  C   UNL     1     -11.482  11.531  69.216  1.00  0.00    -0.370 A  
HETATM   10  C   UNL     1     -11.684  12.725  69.904  1.00  0.00    -0.321 A  
HETATM   11  C   UNL     1     -11.958  13.897  69.202  1.00  0.00    -0.404 A  
HETATM   12  C   UNL     1     -12.055  13.871  67.811  1.00  0.00    -0.328 A  
ENDBRANCH   6   7
ENDBRANCH   4   6
ENDBRANCH   2   4
TORSDOF 3
ENDMDL
MODEL       30
REMARK 921   NORMALIZED FREE ENERGY PREDICTED BY IDOCK:   -3.84 KCAL/MOL
REMARK 922        TOTAL FREE ENERGY PREDICTED BY IDOCK:   -4.74 KCAL/MOL
REMARK 923 INTER-LIGAND FREE ENERGY PREDICTED BY IDOCK:   -4.53 KCAL/MOL
REMARK 924 INTRA-LIGAND FREE ENERGY PREDICTED BY IDOCK:   -0.21 KCAL/MOL
REMARK 927      BINDING AFFINITY PREDICTED BY RF-SCORE:    0.00 PKD
ROOT
HETATM    1  C   UNL     1     -10.495  17.203  68.403  1.00  0.00    -0.376 C  
HETATM    2  N   UNL     1     -11.343  16.022  68.314  1.00  0.00    -0.350 NA 
HETATM    3  H   UNL     1     -12.320  16.286  68.189  1.00  0.00     0.000 HD 
ENDROOT
BRANCH   2   4
HETATM    4  C   UNL     1     -10.917  15.077  67.266  1.00  0.00    -0.326 C  
HETATM    5  C   UNL     1     -10.408  15.810  66.016  1.00  0.00    -0.356 C  
BRANCH   4   6
HETATM    6  C   UNL     1     -12.116  14.151  66.926  1.00  0.00    -0.466 C  
BRANCH   6   7
HETATM    7  C   UNL     1     -11.809  13.160  65.825  1.00  0.00    -0.442 A  
HETATM    8  C   UNL     1     -10.793  12.207  65.989  1.00  0.00    -0.318 A  
HETATM    9  C   UNL     1     -10.431  11.372  64.933  1.00  0.00    -0.363 A  
HETATM   10  C   UNL     1     -11.090  11.469  63.709  1.00  0.00    -0.471 A  
HETATM   11  C   UNL     1     -12.126  12.387  63.546  1.00  0.00    -0.651 A  
HETATM   12  C   UNL     1     -12.488  13.226  64.600  1.00  0.00    -0.408 A  
ENDBRANCH   6   7
ENDBRANCH   4   6
ENDBRANCH   2   4
TORSDOF 3
ENDMDL
MODEL       31
REMARK 921   NORMALIZED FREE ENERGY PREDICTED BY IDOCK:   -3.81 KCAL/MOL
REMARK 922        TOTAL FREE ENERGY PREDICTED BY IDOCK:   -4.70 KCAL/MOL
REMARK 923 INTER-LIGAND FREE ENERGY PREDICTED BY IDOCK:   -4.53 KCAL/MOL
REMARK 924 INTRA-LIGAND FREE ENERGY PREDICTED BY IDOCK:   -0.17 KCAL/MOL
REMARK 927      BINDING AFFINITY PREDICTED BY RF-SCORE:    0.00 PKD
ROOT
HETATM    1  C   UNL     1      -9.651  11.359  63.085  1.00  0.00    -0.380 C  
HETATM    2  N   UNL     1     -10.010  12.706  63.508  1.00  0.00    -0.683 NA 
HETATM    3  H   UNL     1     -10.008  13.347  62.715  1.00  0.00     0.000 HD 
ENDROOT
BRANCH   2   4
HETATM    4  C   UNL     1     -11.295  12.766  64.229  1.00  0.00    -0.367 C  
HETATM    5  C   UNL     1     -12.409  12.040  63.461  1.00  0.00    -0.661 C  
BRANCH   4   6
HETATM    6  C   UNL     1     -11.653  14.259  64.464  1.00  0.00    -0.397 C  
BRANCH   6   7
HETATM    7  C   UNL     1     -11.216  14.768  65.820  1.00  0.00    -0.337 A  
HETATM    8  C   UNL     1     -11.837  14.303  66.988  1.00  0.00    -0.455 A  
HETATM    9  C   UNL     1     -11.516  14.857  68.227  1.00  0.00    -0.343 A  
HETATM   10  C   UNL     1     -10.561  15.868  68.312  1.00  0.00    -0.276 A  
HETATM   11  C   UNL     1      -9.911  16.312  67.163  1.00  0.00    -0.257 A  
HETATM   12  C   UNL     1     -10.233  15.762  65.922  1.00  0.00    -0.377 A  
ENDBRANCH   6   7
ENDBRANCH   4   6
ENDBRANCH   2   4
TORSDOF 3
ENDMDL
MODEL       32
REMARK 921   NORMALIZED FREE ENERGY PREDICTED BY IDOCK:   -3.80 KCAL/MOL
REMARK 922        TOTAL FREE ENERGY PREDICTED BY IDOCK:   -4.70 KCAL/MOL
REMARK 923 INTER-LIGAND FREE ENERGY PREDICTED BY IDOCK:   -4.49 KCAL/MOL
REMARK 924 INTRA-LIGAND FREE ENERGY PREDICTED BY IDOCK:   -0.20 KCAL/MOL
REMARK 927      BINDING AFFINITY PREDICTED BY RF-SCORE:    0.00 PKD
ROOT
HETATM    1  C   UNL     1     -11.575  13.405  65.807  1.00  0.00    -0.332 C  
HETATM    2  N   UNL     1     -12.504  14.113  66.677  1.00  0.00    -0.548 NA 
HETATM    3  H   UNL     1     -13.346  13.560  66.835  1.00  0.00     0.000 HD 
ENDROOT
BRANCH   2   4
HETATM    4  C   UNL     1     -11.901  14.528  67.957  1.00  0.00    -0.315 C  
HETATM    5  C   UNL     1     -10.901  15.678  67.765  1.00  0.00    -0.307 C  
BRANCH   4   6
HETATM    6  C   UNL     1     -11.219  13.290  68.600  1.00  0.00    -0.311 C  
BRANCH   6   7
HETATM    7  C   UNL     1     -11.920  12.809  69.852  1.00  0.00    -0.368 A  
HETATM    8  C   UNL     1     -12.007  11.438  70.135  1.00  0.00    -0.460 A  
HETATM    9  C   UNL     1     -12.752  10.989  71.225  1.00  0.00    -0.537 A  
HETATM   10  C   UNL     1     -13.403  11.904  72.050  1.00  0.00    -0.425 A  
HETATM   11  C   UNL     1     -13.293  13.270  71.799  1.00  0.00    -0.479 A  
HETATM   12  C   UNL     1     -12.551  13.722  70.708  1.00  0.00    -0.410 A  
ENDBRANCH   6   7
ENDBRANCH   4   6
ENDBRANCH   2   4
TORSDOF 3
ENDMDL
MODEL       33
REMARK 921   NORMALIZED FREE ENERGY PREDICTED BY IDOCK:   -3.80 KCAL/MOL
REMARK 922        TOTAL FREE ENERGY PREDICTED BY IDOCK:   -4.69 KCAL/MOL
REMARK 923 INTER-LIGAND FREE ENERGY PREDICTED BY IDOCK:   -4.52 KCAL/MOL
REMARK 924 INTRA-LIGAND FREE ENERGY PREDICTED BY IDOCK:   -0.18 KCAL/MOL
REMARK 927      BINDING AFFINITY PREDICTED BY RF-SCORE:    0.00 PKD
ROOT
HETATM    1  C   UNL     1     -13.337  15.356  71.516  1.00  0.00    -0.500 C  
HETATM    2  N   UNL     1     -12.771  15.540  70.187  1.00  0.00    -0.609 NA 
HETATM    3  H   UNL     1     -11.982  16.185  70.215  1.00  0.00     0.000 HD 
ENDROOT
BRANCH   2   4
HETATM    4  C   UNL     1     -12.388  14.272  69.537  1.00  0.00    -0.230 C  
HETATM    5  C   UNL     1     -12.164  13.154  70.566  1.00  0.00    -0.405 C  
BRANCH   4   6
HETATM    6  C   UNL     1     -11.110  14.524  68.691  1.00  0.00    -0.272 C  
BRANCH   6   7
HETATM    7  C   UNL     1     -11.354  14.417  67.202  1.00  0.00    -0.356 A  
HETATM    8  C   UNL     1     -10.883  15.410  66.331  1.00  0.00    -0.303 A  
HETATM    9  C   UNL     1     -11.207  15.373  64.976  1.00  0.00    -0.393 A  
HETATM   10  C   UNL     1     -11.990  14.335  64.474  1.00  0.00    -0.478 A  
HETATM   11  C   UNL     1     -12.432  13.322  65.323  1.00  0.00    -0.543 A  
HETATM   12  C   UNL     1     -12.112  13.359  66.680  1.00  0.00    -0.429 A  
ENDBRANCH   6   7
ENDBRANCH   4   6
ENDBRANCH   2   4
TORSDOF 3
ENDMDL
MODEL       34
REMARK 921   NORMALIZED FREE ENERGY PREDICTED BY IDOCK:   -3.78 KCAL/MOL
REMARK 922        TOTAL FREE ENERGY PREDICTED BY IDOCK:   -4.67 KCAL/MOL
REMARK 923 INTER-LIGAND FREE ENERGY PREDICTED BY IDOCK:   -4.47 KCAL/MOL
REMARK 924 INTRA-LIGAND FREE ENERGY PREDICTED BY IDOCK:   -0.20 KCAL/MOL
REMARK 927      BINDING AFFINITY PREDICTED BY RF-SCORE:    0.00 PKD
ROOT
HETATM    1  C   UNL     1      -9.758  17.848  68.192  1.00  0.00    -0.320 C  
HETATM    2  N   UNL     1      -9.006  16.859  68.953  1.00  0.00    -0.247 NA 
HETATM    3  H   UNL     1      -8.651  17.262  69.820  1.00  0.00     0.000 HD 
ENDROOT
BRANCH   2   4
HETATM    4  C   UNL     1      -9.772  15.628  69.223  1.00  0.00    -0.271 C  
HETATM    5  C   UNL     1      -9.628  14.610  68.082  1.00  0.00    -0.213 C  
BRANCH   4   6
HETATM    6  C   UNL     1     -11.259  16.017  69.446  1.00  0.00    -0.349 C  
BRANCH   6   7
HETATM    7  C   UNL     1     -11.853  15.402  70.695  1.00  0.00    -0.388 A  
HETATM    8  C   UNL     1     -12.416  14.119  70.657  1.00  0.00    -0.432 A  
HETATM    9  C   UNL     1     -13.067  13.600  71.775  1.00  0.00    -0.468 A  
HETATM   10  C   UNL     1     -13.147  14.351  72.946  1.00  0.00    -0.612 A  
HETATM   11  C   UNL     1     -12.559  15.612  73.008  1.00  0.00    -0.568 A  
HETATM   12  C   UNL     1     -11.910  16.135  71.889  1.00  0.00    -0.605 A  
ENDBRANCH   6   7
ENDBRANCH   4   6
ENDBRANCH   2   4
TORSDOF 3
ENDMDL
MODEL       35
REMARK 921   NORMALIZED FREE ENERGY PREDICTED BY IDOCK:   -3.78 KCAL/MOL
REMARK 922        TOTAL FREE ENERGY PREDICTED BY IDOCK:   -4.67 KCAL/MOL
REMARK 923 INTER-LIGAND FREE ENERGY PREDICTED BY IDOCK:   -4.45 KCAL/MOL
REMARK 924 INTRA-LIGAND FREE ENERGY PREDICTED BY IDOCK:   -0.22 KCAL/MOL
REMARK 927      BINDING AFFINITY PREDICTED BY RF-SCORE:    0.00 PKD
ROOT
HETATM    1  C   UNL     1     -12.239  13.732  70.097  1.00  0.00    -0.356 C  
HETATM    2  N   UNL     1     -10.877  14.029  69.674  1.00  0.00    -0.454 NA 
HETATM    3  H   UNL     1     -10.210  13.417  70.144  1.00  0.00     0.000 HD 
ENDROOT
BRANCH   2   4
HETATM    4  C   UNL     1     -10.698  13.974  68.212  1.00  0.00    -0.254 C  
HETATM    5  C   UNL     1     -10.570  15.379  67.604  1.00  0.00    -0.280 C  
BRANCH   4   6
HETATM    6  C   UNL     1     -11.899  13.203  67.600  1.00  0.00    -0.405 C  
BRANCH   6   7
HETATM    7  C   UNL     1     -11.691  12.833  66.148  1.00  0.00    -0.458 A  
HETATM    8  C   UNL     1     -12.429  13.469  65.139  1.00  0.00    -0.495 A  
HETATM    9  C   UNL     1     -12.322  13.047  63.815  1.00  0.00    -0.477 A  
HETATM   10  C   UNL     1     -11.466  11.999  63.483  1.00  0.00    -0.536 A  
HETATM   11  C   UNL     1     -10.701  11.385  64.471  1.00  0.00    -0.391 A  
HETATM   12  C   UNL     1     -10.808  11.802  65.798  1.00  0.00    -0.341 A  
ENDBRANCH   6   7
ENDBRANCH   4   6
ENDBRANCH   2   4
TORSDOF 3
ENDMDL
MODEL       36
REMARK 921   NORMALIZED FREE ENERGY PREDICTED BY IDOCK:   -3.78 KCAL/MOL
REMARK 922        TOTAL FREE ENERGY PREDICTED BY IDOCK:   -4.67 KCAL/MOL
REMARK 923 INTER-LIGAND FREE ENERGY PREDICTED BY IDOCK:   -4.45 KCAL/MOL
REMARK 924 INTRA-LIGAND FREE ENERGY PREDICTED BY IDOCK:   -0.22 KCAL/MOL
REMARK 927      BINDING AFFINITY PREDICTED BY RF-SCORE:    0.00 PKD
ROOT
HETATM    1  C   UNL     1     -11.316  14.177  69.232  1.00  0.00    -0.281 C  
HETATM    2  N   UNL     1     -10.658  12.879  69.158  1.00  0.00    -0.441 NA 
HETATM    3  H   UNL     1     -10.253  12.626  70.059  1.00  0.00     0.000 HD 
ENDROOT
BRANCH   2   4
HETATM    4  C   UNL     1     -11.539  11.808  68.660  1.00  0.00    -0.309 C  
HETATM    5  C   UNL     1     -11.960  10.851  69.785  1.00  0.00    -0.423 C  
BRANCH   4   6
HETATM    6  C   UNL     1     -10.796  11.051  67.526  1.00  0.00    -0.314 C  
BRANCH   6   7
HETATM    7  C   UNL     1     -11.076  11.616  66.151  1.00  0.00    -0.335 A  
HETATM    8  C   UNL     1     -12.150  12.494  65.948  1.00  0.00    -0.420 A  
HETATM    9  C   UNL     1     -12.480  12.921  64.663  1.00  0.00    -0.499 A  
HETATM   10  C   UNL     1     -11.729  12.490  63.570  1.00  0.00    -0.595 A  
HETATM   11  C   UNL     1     -10.637  11.648  63.764  1.00  0.00    -0.473 A  
HETATM   12  C   UNL     1     -10.308  11.215  65.049  1.00  0.00    -0.362 A  
ENDBRANCH   6   7
ENDBRANCH   4   6
ENDBRANCH   2   4
TORSDOF 3
ENDMDL
MODEL       37
REMARK 921   NORMALIZED FREE ENERGY PREDICTED BY IDOCK:   -3.77 KCAL/MOL
REMARK 922        TOTAL FREE ENERGY PREDICTED BY IDOCK:   -4.65 KCAL/MOL
REMARK 923 INTER-LIGAND FREE ENERGY PREDICTED BY IDOCK:   -4.44 KCAL/MOL
REMARK 924 INTRA-LIGAND FREE ENERGY PREDICTED BY IDOCK:   -0.21 KCAL/MOL
REMARK 927      BINDING AFFINITY PREDICTED BY RF-SCORE:    0.00 PKD
ROOT
HETATM    1  C   UNL     1      -9.289  12.800  66.531  1.00  0.00    -0.221 C  
HETATM    2  N   UNL     1      -9.845  13.724  65.550  1.00  0.00    -0.504 NA 
HETATM    3  H   UNL     1     -10.273  13.216  64.777  1.00  0.00     0.000 HD 
ENDROOT
BRANCH   2   4
HETATM    4  C   UNL     1     -10.795  14.689  66.134  1.00  0.00    -0.321 C  
HETATM    5  C   UNL     1     -12.248  14.212  65.988  1.00  0.00    -0.464 C  
BRANCH   4   6
HETATM    6  C   UNL     1     -10.581  16.063  65.443  1.00  0.00    -0.428 C  
BRANCH   6   7
HETATM    7  C   UNL     1     -10.407  17.201  66.424  1.00  0.00    -0.307 A  
HETATM    8  C   UNL     1     -10.195  16.940  67.785  1.00  0.00    -0.308 A  
HETATM    9  C   UNL     1     -10.152  17.986  68.707  1.00  0.00    -0.388 A  
HETATM   10  C   UNL     1     -10.303  19.302  68.275  1.00  0.00    -0.478 A  
HETATM   11  C   UNL     1     -10.477  19.576  66.921  1.00  0.00    -0.589 A  
HETATM   12  C   UNL     1     -10.525  18.531  65.997  1.00  0.00    -0.433 A  
ENDBRANCH   6   7
ENDBRANCH   4   6
ENDBRANCH   2   4
TORSDOF 3
ENDMDL
MODEL       38
REMARK 921   NORMALIZED FREE ENERGY PREDICTED BY IDOCK:   -3.77 KCAL/MOL
REMARK 922        TOTAL FREE ENERGY PREDICTED BY IDOCK:   -4.65 KCAL/MOL
REMARK 923 INTER-LIGAND FREE ENERGY PREDICTED BY IDOCK:   -4.47 KCAL/MOL
REMARK 924 INTRA-LIGAND FREE ENERGY PREDICTED BY IDOCK:   -0.19 KCAL/MOL
REMARK 927      BINDING AFFINITY PREDICTED BY RF-SCORE:    0.00 PKD
ROOT
HETATM    1  C   UNL     1     -10.524   5.435  74.059  1.00  0.00    -0.284 C  
HETATM    2  N   UNL     1     -11.622   5.339  73.106  1.00  0.00    -0.522 NA 
HETATM    3  H   UNL     1     -12.521   5.424  73.579  1.00  0.00     0.000 HD 
ENDROOT
BRANCH   2   4
HETATM    4  C   UNL     1     -11.518   6.308  71.999  1.00  0.00    -0.310 C  
HETATM    5  C   UNL     1     -10.632   5.777  70.862  1.00  0.00    -0.329 C  
BRANCH   4   6
HETATM    6  C   UNL     1     -10.963   7.642  72.569  1.00  0.00    -0.377 C  
BRANCH   6   7
HETATM    7  C   UNL     1     -11.510   8.863  71.862  1.00  0.00    -0.442 A  
HETATM    8  C   UNL     1     -10.801   9.449  70.804  1.00  0.00    -0.372 A  
HETATM    9  C   UNL     1     -11.244  10.640  70.230  1.00  0.00    -0.365 A  
HETATM   10  C   UNL     1     -12.409  11.247  70.696  1.00  0.00    -0.477 A  
HETATM   11  C   UNL     1     -13.141  10.654  71.722  1.00  0.00    -0.571 A  
HETATM   12  C   UNL     1     -12.698   9.465  72.300  1.00  0.00    -0.416 A  
ENDBRANCH   6   7
ENDBRANCH   4   6
ENDBRANCH   2   4
TORSDOF 3
ENDMDL
MODEL       39
REMARK 921   NORMALIZED FREE ENERGY PREDICTED BY IDOCK:   -3.75 KCAL/MOL
REMARK 922        TOTAL FREE ENERGY PREDICTED BY IDOCK:   -4.63 KCAL/MOL
REMARK 923 INTER-LIGAND FREE ENERGY PREDICTED BY IDOCK:   -4.52 KCAL/MOL
REMARK 924 INTRA-LIGAND FREE ENERGY PREDICTED BY IDOCK:   -0.11 KCAL/MOL
REMARK 927      BINDING AFFINITY PREDICTED BY RF-SCORE:    0.00 PKD
ROOT
HETATM    1  C   UNL     1     -12.237  14.041  65.428  1.00  0.00    -0.439 C  
HETATM    2  N   UNL     1     -11.286  15.079  65.053  1.00  0.00    -0.390 NA 
HETATM    3  H   UNL     1     -11.760  15.970  64.912  1.00  0.00     0.000 HD 
ENDROOT
BRANCH   2   4
HETATM    4  C   UNL     1     -10.174  15.222  66.012  1.00  0.00    -0.317 C  
HETATM    5  C   UNL     1      -9.549  13.863  66.362  1.00  0.00    -0.292 C  
BRANCH   4   6
HETATM    6  C   UNL     1     -10.713  15.938  67.281  1.00  0.00    -0.306 C  
BRANCH   6   7
HETATM    7  C   UNL     1     -10.336  17.402  67.342  1.00  0.00    -0.343 A  
HETATM    8  C   UNL     1      -9.940  17.984  68.555  1.00  0.00    -0.395 A  
HETATM    9  C   UNL     1      -9.707  19.356  68.637  1.00  0.00    -0.504 A  
HETATM   10  C   UNL     1      -9.849  20.156  67.505  1.00  0.00    -0.574 A  
HETATM   11  C   UNL     1     -10.206  19.583  66.286  1.00  0.00    -0.582 A  
HETATM   12  C   UNL     1     -10.444  18.211  66.202  1.00  0.00    -0.377 A  
ENDBRANCH   6   7
ENDBRANCH   4   6
ENDBRANCH   2   4
TORSDOF 3
ENDMDL
MODEL       40
REMARK 921   NORMALIZED FREE ENERGY PREDICTED BY IDOCK:   -3.73 KCAL/MOL
REMARK 922        TOTAL FREE ENERGY PREDICTED BY IDOCK:   -4.61 KCAL/MOL
REMARK 923 INTER-LIGAND FREE ENERGY PREDICTED BY IDOCK:   -4.37 KCAL/MOL
REMARK 924 INTRA-LIGAND FREE ENERGY PREDICTED BY IDOCK:   -0.24 KCAL/MOL
REMARK 927      BINDING AFFINITY PREDICTED BY RF-SCORE:    0.00 PKD
ROOT
HETATM    1  C   UNL     1     -10.930  16.208  69.485  1.00  0.00    -0.341 C  
HETATM    2  N   UNL     1     -10.662  14.859  69.967  1.00  0.00    -0.443 NA 
HETATM    3  H   UNL     1     -10.540  14.853  70.979  1.00  0.00     0.000 HD 
ENDROOT
BRANCH   2   4
HETATM    4  C   UNL     1     -11.686  13.881  69.556  1.00  0.00    -0.313 C  
HETATM    5  C   UNL     1     -12.374  13.237  70.769  1.00  0.00    -0.425 C  
BRANCH   4   6
HETATM    6  C   UNL     1     -11.008  12.810  68.660  1.00  0.00    -0.295 C  
BRANCH   6   7
HETATM    7  C   UNL     1     -11.460  12.868  67.217  1.00  0.00    -0.388 A  
HETATM    8  C   UNL     1     -11.069  11.875  66.308  1.00  0.00    -0.364 A  
HETATM    9  C   UNL     1     -11.387  11.990  64.956  1.00  0.00    -0.365 A  
HETATM   10  C   UNL     1     -12.112  13.090  64.501  1.00  0.00    -0.468 A  
HETATM   11  C   UNL     1     -12.538  14.064  65.401  1.00  0.00    -0.529 A  
HETATM   12  C   UNL     1     -12.218  13.954  66.754  1.00  0.00    -0.438 A  
ENDBRANCH   6   7
ENDBRANCH   4   6
ENDBRANCH   2   4
TORSDOF 3
ENDMDL
MODEL       41
REMARK 921   NORMALIZED FREE ENERGY PREDICTED BY IDOCK:   -3.73 KCAL/MOL
REMARK 922        TOTAL FREE ENERGY PREDICTED BY IDOCK:   -4.61 KCAL/MOL
REMARK 923 INTER-LIGAND FREE ENERGY PREDICTED BY IDOCK:   -4.37 KCAL/MOL
REMARK 924 INTRA-LIGAND FREE ENERGY PREDICTED BY IDOCK:   -0.24 KCAL/MOL
REMARK 927      BINDING AFFINITY PREDICTED BY RF-SCORE:    0.00 PKD
ROOT
HETATM    1  C   UNL     1      -8.575  13.865  67.532  1.00  0.00    -0.193 C  
HETATM    2  N   UNL     1      -9.318  14.137  66.309  1.00  0.00    -0.463 NA 
HETATM    3  H   UNL     1      -9.563  13.269  65.832  1.00  0.00     0.000 HD 
ENDROOT
BRANCH   2   4
HETATM    4  C   UNL     1     -10.515  14.970  66.528  1.00  0.00    -0.285 C  
HETATM    5  C   UNL     1     -11.804  14.211  66.180  1.00  0.00    -0.420 C  
BRANCH   4   6
HETATM    6  C   UNL     1     -10.374  16.262  65.678  1.00  0.00    -0.385 C  
BRANCH   6   7
HETATM    7  C   UNL     1     -10.392  17.526  66.509  1.00  0.00    -0.325 A  
HETATM    8  C   UNL     1     -10.575  18.775  65.900  1.00  0.00    -0.405 A  
HETATM    9  C   UNL     1     -10.475  19.947  66.648  1.00  0.00    -0.580 A  
HETATM   10  C   UNL     1     -10.209  19.882  68.014  1.00  0.00    -0.572 A  
HETATM   11  C   UNL     1     -10.062  18.644  68.637  1.00  0.00    -0.412 A  
HETATM   12  C   UNL     1     -10.158  17.470  67.890  1.00  0.00    -0.330 A  
ENDBRANCH   6   7
ENDBRANCH   4   6
ENDBRANCH   2   4
TORSDOF 3
ENDMDL
MODEL       42
REMARK 921   NORMALIZED FREE ENERGY PREDICTED BY IDOCK:   -3.71 KCAL/MOL
REMARK 922        TOTAL FREE ENERGY PREDICTED BY IDOCK:   -4.58 KCAL/MOL
REMARK 923 INTER-LIGAND FREE ENERGY PREDICTED BY IDOCK:   -4.40 KCAL/MOL
REMARK 924 INTRA-LIGAND FREE ENERGY PREDICTED BY IDOCK:   -0.18 KCAL/MOL
REMARK 927      BINDING AFFINITY PREDICTED BY RF-SCORE:    0.00 PKD
ROOT
HETATM    1  C   UNL     1     -10.872  12.884  66.484  1.00  0.00    -0.271 C  
HETATM    2  N   UNL     1     -11.900  12.083  67.135  1.00  0.00    -0.604 NA 
HETATM    3  H   UNL     1     -11.768  11.092  66.935  1.00  0.00     0.000 HD 
ENDROOT
BRANCH   2   4
HETATM    4  C   UNL     1     -11.988  12.318  68.588  1.00  0.00    -0.227 C  
HETATM    5  C   UNL     1     -11.785  13.801  68.935  1.00  0.00    -0.374 C  
BRANCH   4   6
HETATM    6  C   UNL     1     -10.931  11.425  69.292  1.00  0.00    -0.282 C  
BRANCH   6   7
HETATM    7  C   UNL     1     -11.527  10.518  70.346  1.00  0.00    -0.427 A  
HETATM    8  C   UNL     1     -12.766  10.822  70.928  1.00  0.00    -0.478 A  
HETATM    9  C   UNL     1     -13.260  10.053  71.981  1.00  0.00    -0.545 A  
HETATM   10  C   UNL     1     -12.530   8.963  72.450  1.00  0.00    -0.405 A  
HETATM   11  C   UNL     1     -11.315   8.629  71.855  1.00  0.00    -0.417 A  
HETATM   12  C   UNL     1     -10.817   9.399  70.804  1.00  0.00    -0.372 A  
ENDBRANCH   6   7
ENDBRANCH   4   6
ENDBRANCH   2   4
TORSDOF 3
ENDMDL
MODEL       43
REMARK 921   NORMALIZED FREE ENERGY PREDICTED BY IDOCK:   -3.69 KCAL/MOL
REMARK 922        TOTAL FREE ENERGY PREDICTED BY IDOCK:   -4.56 KCAL/MOL
REMARK 923 INTER-LIGAND FREE ENERGY PREDICTED BY IDOCK:   -4.33 KCAL/MOL
REMARK 924 INTRA-LIGAND FREE ENERGY PREDICTED BY IDOCK:   -0.23 KCAL/MOL
REMARK 927      BINDING AFFINITY PREDICTED BY RF-SCORE:    0.00 PKD
ROOT
HETATM    1  C   UNL     1     -14.349  14.628  71.850  1.00  0.00    -0.571 C  
HETATM    2  N   UNL     1     -13.554  14.890  70.658  1.00  0.00    -0.628 NA 
HETATM    3  H   UNL     1     -13.507  15.891  70.466  1.00  0.00     0.000 HD 
ENDROOT
BRANCH   2   4
HETATM    4  C   UNL     1     -12.203  14.304  70.719  1.00  0.00    -0.353 C  
HETATM    5  C   UNL     1     -11.113  15.383  70.628  1.00  0.00    -0.364 C  
BRANCH   4   6
HETATM    6  C   UNL     1     -12.067  13.268  69.570  1.00  0.00    -0.315 C  
BRANCH   6   7
HETATM    7  C   UNL     1     -11.671  11.891  70.055  1.00  0.00    -0.366 A  
HETATM    8  C   UNL     1     -10.542  11.248  69.529  1.00  0.00    -0.083 A  
HETATM    9  C   UNL     1     -10.245   9.935  69.889  1.00  0.00    -0.298 A  
HETATM   10  C   UNL     1     -11.062   9.257  70.791  1.00  0.00    -0.349 A  
HETATM   11  C   UNL     1     -12.166   9.898  71.349  1.00  0.00    -0.499 A  
HETATM   12  C   UNL     1     -12.468  11.211  70.987  1.00  0.00    -0.506 A  
ENDBRANCH   6   7
ENDBRANCH   4   6
ENDBRANCH   2   4
TORSDOF 3
ENDMDL
MODEL       44
REMARK 921   NORMALIZED FREE ENERGY PREDICTED BY IDOCK:   -3.69 KCAL/MOL
REMARK 922        TOTAL FREE ENERGY PREDICTED BY IDOCK:   -4.56 KCAL/MOL
REMARK 923 INTER-LIGAND FREE ENERGY PREDICTED BY IDOCK:   -4.34 KCAL/MOL
REMARK 924 INTRA-LIGAND FREE ENERGY PREDICTED BY IDOCK:   -0.21 KCAL/MOL
REMARK 927      BINDING AFFINITY PREDICTED BY RF-SCORE:    0.00 PKD
ROOT
HETATM    1  C   UNL     1     -11.431  15.622  70.390  1.00  0.00    -0.354 C  
HETATM    2  N   UNL     1     -10.559  14.523  69.996  1.00  0.00    -0.453 NA 
HETATM    3  H   UNL     1      -9.950  14.250  70.767  1.00  0.00     0.000 HD 
ENDROOT
BRANCH   2   4
HETATM    4  C   UNL     1     -11.293  13.359  69.469  1.00  0.00    -0.183 C  
HETATM    5  C   UNL     1     -11.911  13.654  68.093  1.00  0.00    -0.390 C  
BRANCH   4   6
HETATM    6  C   UNL     1     -12.382  12.959  70.501  1.00  0.00    -0.362 C  
BRANCH   6   7
HETATM    7  C   UNL     1     -12.288  11.512  70.933  1.00  0.00    -0.460 A  
HETATM    8  C   UNL     1     -11.305  10.671  70.394  1.00  0.00    -0.389 A  
HETATM    9  C   UNL     1     -11.291   9.311  70.703  1.00  0.00    -0.330 A  
HETATM   10  C   UNL     1     -12.248   8.783  71.566  1.00  0.00    -0.382 A  
HETATM   11  C   UNL     1     -13.207   9.616  72.138  1.00  0.00    -0.535 A  
HETATM   12  C   UNL     1     -13.226  10.976  71.827  1.00  0.00    -0.505 A  
ENDBRANCH   6   7
ENDBRANCH   4   6
ENDBRANCH   2   4
TORSDOF 3
ENDMDL
MODEL       45
REMARK 921   NORMALIZED FREE ENERGY PREDICTED BY IDOCK:   -3.68 KCAL/MOL
REMARK 922        TOTAL FREE ENERGY PREDICTED BY IDOCK:   -4.55 KCAL/MOL
REMARK 923 INTER-LIGAND FREE ENERGY PREDICTED BY IDOCK:   -4.36 KCAL/MOL
REMARK 924 INTRA-LIGAND FREE ENERGY PREDICTED BY IDOCK:   -0.20 KCAL/MOL
REMARK 927      BINDING AFFINITY PREDICTED BY RF-SCORE:    0.00 PKD
ROOT
HETATM    1  C   UNL     1      -8.759  10.360  68.602  1.00  0.00    -0.138 C  
HETATM    2  N   UNL     1      -9.345  11.633  68.999  1.00  0.00    -0.408 NA 
HETATM    3  H   UNL     1      -8.977  12.395  68.429  1.00  0.00     0.000 HD 
ENDROOT
BRANCH   2   4
HETATM    4  C   UNL     1     -10.819  11.627  68.977  1.00  0.00    -0.203 C  
HETATM    5  C   UNL     1     -11.364  10.809  67.796  1.00  0.00    -0.354 C  
BRANCH   4   6
HETATM    6  C   UNL     1     -11.314  13.098  68.918  1.00  0.00    -0.335 C  
BRANCH   6   7
HETATM    7  C   UNL     1     -12.208  13.471  70.080  1.00  0.00    -0.400 A  
HETATM    8  C   UNL     1     -12.577  14.806  70.294  1.00  0.00    -0.365 A  
HETATM    9  C   UNL     1     -13.302  15.166  71.429  1.00  0.00    -0.547 A  
HETATM   10  C   UNL     1     -13.681  14.193  72.352  1.00  0.00    -0.645 A  
HETATM   11  C   UNL     1     -13.352  12.857  72.131  1.00  0.00    -0.615 A  
HETATM   12  C   UNL     1     -12.622  12.495  70.999  1.00  0.00    -0.350 A  
ENDBRANCH   6   7
ENDBRANCH   4   6
ENDBRANCH   2   4
TORSDOF 3
ENDMDL
MODEL       46
REMARK 921   NORMALIZED FREE ENERGY PREDICTED BY IDOCK:   -3.66 KCAL/MOL
REMARK 922        TOTAL FREE ENERGY PREDICTED BY IDOCK:   -4.53 KCAL/MOL
REMARK 923 INTER-LIGAND FREE ENERGY PREDICTED BY IDOCK:   -4.68 KCAL/MOL
REMARK 924 INTRA-LIGAND FREE ENERGY PREDICTED BY IDOCK:    0.15 KCAL/MOL
REMARK 927      BINDING AFFINITY PREDICTED BY RF-SCORE:    0.00 PKD
ROOT
HETATM    1  C   UNL     1     -10.972   5.933  69.940  1.00  0.00    -0.374 C  
HETATM    2  N   UNL     1     -12.181   6.728  70.111  1.00  0.00    -0.605 NA 
HETATM    3  H   UNL     1     -12.959   6.321  69.592  1.00  0.00     0.000 HD 
ENDROOT
BRANCH   2   4
HETATM    4  C   UNL     1     -12.545   6.935  71.525  1.00  0.00    -0.367 C  
HETATM    5  C   UNL     1     -14.018   7.346  71.676  1.00  0.00    -0.523 C  
BRANCH   4   6
HETATM    6  C   UNL     1     -11.597   8.010  72.121  1.00  0.00    -0.399 C  
BRANCH   6   7
HETATM    7  C   UNL     1     -11.721   9.356  71.440  1.00  0.00    -0.448 A  
HETATM    8  C   UNL     1     -12.690  10.278  71.858  1.00  0.00    -0.478 A  
HETATM    9  C   UNL     1     -12.882  11.467  71.156  1.00  0.00    -0.414 A  
HETATM   10  C   UNL     1     -12.097  11.754  70.042  1.00  0.00    -0.387 A  
HETATM   11  C   UNL     1     -11.105  10.862  69.640  1.00  0.00    -0.328 A  
HETATM   12  C   UNL     1     -10.913   9.670  70.337  1.00  0.00    -0.356 A  
ENDBRANCH   6   7
ENDBRANCH   4   6
ENDBRANCH   2   4
TORSDOF 3
ENDMDL
MODEL       47
REMARK 921   NORMALIZED FREE ENERGY PREDICTED BY IDOCK:   -3.64 KCAL/MOL
REMARK 922        TOTAL FREE ENERGY PREDICTED BY IDOCK:   -4.51 KCAL/MOL
REMARK 923 INTER-LIGAND FREE ENERGY PREDICTED BY IDOCK:   -4.40 KCAL/MOL
REMARK 924 INTRA-LIGAND FREE ENERGY PREDICTED BY IDOCK:   -0.11 KCAL/MOL
REMARK 927      BINDING AFFINITY PREDICTED BY RF-SCORE:    0.00 PKD
ROOT
HETATM    1  C   UNL     1     -11.118  15.725  64.737  1.00  0.00    -0.400 C  
HETATM    2  N   UNL     1     -10.441  14.887  65.718  1.00  0.00    -0.309 NA 
HETATM    3  H   UNL     1      -9.954  15.458  66.408  1.00  0.00     0.000 HD 
ENDROOT
BRANCH   2   4
HETATM    4  C   UNL     1     -11.340  13.921  66.376  1.00  0.00    -0.328 C  
HETATM    5  C   UNL     1     -12.583  13.630  65.521  1.00  0.00    -0.541 C  
BRANCH   4   6
HETATM    6  C   UNL     1     -11.734  14.490  67.766  1.00  0.00    -0.403 C  
BRANCH   6   7
HETATM    7  C   UNL     1     -11.855  13.423  68.832  1.00  0.00    -0.373 A  
HETATM    8  C   UNL     1     -11.693  12.069  68.505  1.00  0.00    -0.387 A  
HETATM    9  C   UNL     1     -11.920  11.080  69.461  1.00  0.00    -0.413 A  
HETATM   10  C   UNL     1     -12.292  11.433  70.756  1.00  0.00    -0.483 A  
HETATM   11  C   UNL     1     -12.419  12.777  71.103  1.00  0.00    -0.335 A  
HETATM   12  C   UNL     1     -12.197  13.769  70.147  1.00  0.00    -0.425 A  
ENDBRANCH   6   7
ENDBRANCH   4   6
ENDBRANCH   2   4
TORSDOF 3
ENDMDL
MODEL       48
REMARK 921   NORMALIZED FREE ENERGY PREDICTED BY IDOCK:   -3.64 KCAL/MOL
REMARK 922        TOTAL FREE ENERGY PREDICTED BY IDOCK:   -4.50 KCAL/MOL
REMARK 923 INTER-LIGAND FREE ENERGY PREDICTED BY IDOCK:   -4.31 KCAL/MOL
REMARK 924 INTRA-LIGAND FREE ENERGY PREDICTED BY IDOCK:   -0.19 KCAL/MOL
REMARK 927      BINDING AFFINITY PREDICTED BY RF-SCORE:    0.00 PKD
ROOT
HETATM    1  C   UNL     1     -13.441  13.419  72.323  1.00  0.00    -0.586 C  
HETATM    2  N   UNL     1     -13.484  11.982  72.555  1.00  0.00    -0.509 NA 
HETATM    3  H   UNL     1     -14.435  11.627  72.457  1.00  0.00     0.000 HD 
ENDROOT
BRANCH   2   4
HETATM    4  C   UNL     1     -12.551  11.226  71.699  1.00  0.00    -0.251 C  
HETATM    5  C   UNL     1     -12.146  12.031  70.455  1.00  0.00    -0.407 C  
BRANCH   4   6
HETATM    6  C   UNL     1     -13.226   9.884  71.306  1.00  0.00    -0.465 C  
BRANCH   6   7
HETATM    7  C   UNL     1     -12.370   8.675  71.615  1.00  0.00    -0.384 A  
HETATM    8  C   UNL     1     -12.915   7.385  71.558  1.00  0.00    -0.421 A  
HETATM    9  C   UNL     1     -12.162   6.282  71.956  1.00  0.00    -0.270 A  
HETATM   10  C   UNL     1     -10.852   6.455  72.398  1.00  0.00    -0.267 A  
HETATM   11  C   UNL     1     -10.287   7.728  72.423  1.00  0.00    -0.311 A  
HETATM   12  C   UNL     1     -11.041   8.834  72.030  1.00  0.00    -0.441 A  
ENDBRANCH   6   7
ENDBRANCH   4   6
ENDBRANCH   2   4
TORSDOF 3
ENDMDL
MODEL       49
REMARK 921   NORMALIZED FREE ENERGY PREDICTED BY IDOCK:   -3.64 KCAL/MOL
REMARK 922        TOTAL FREE ENERGY PREDICTED BY IDOCK:   -4.50 KCAL/MOL
REMARK 923 INTER-LIGAND FREE ENERGY PREDICTED BY IDOCK:   -4.29 KCAL/MOL
REMARK 924 INTRA-LIGAND FREE ENERGY PREDICTED BY IDOCK:   -0.21 KCAL/MOL
REMARK 927      BINDING AFFINITY PREDICTED BY RF-SCORE:    0.00 PKD
ROOT
HETATM    1  C   UNL     1     -11.661  12.080  67.763  1.00  0.00    -0.330 C  
HETATM    2  N   UNL     1     -12.251  10.895  68.371  1.00  0.00    -0.810 NA 
HETATM    3  H   UNL     1     -11.883  10.046  67.942  1.00  0.00     0.000 HD 
ENDROOT
BRANCH   2   4
HETATM    4  C   UNL     1     -12.091  10.853  69.836  1.00  0.00    -0.354 C  
HETATM    5  C   UNL     1     -12.289  12.239  70.468  1.00  0.00    -0.349 C  
BRANCH   4   6
HETATM    6  C   UNL     1     -10.683  10.283  70.158  1.00  0.00    -0.334 C  
BRANCH   6   7
HETATM    7  C   UNL     1     -10.703   9.221  71.236  1.00  0.00    -0.422 A  
HETATM    8  C   UNL     1     -11.913   8.634  71.633  1.00  0.00    -0.388 A  
HETATM    9  C   UNL     1     -11.947   7.743  72.704  1.00  0.00    -0.257 A  
HETATM   10  C   UNL     1     -10.772   7.417  73.378  1.00  0.00    -0.407 A  
HETATM   11  C   UNL     1      -9.558   7.965  72.968  1.00  0.00    -0.341 A  
HETATM   12  C   UNL     1      -9.522   8.861  71.899  1.00  0.00    -0.301 A  
ENDBRANCH   6   7
ENDBRANCH   4   6
ENDBRANCH   2   4
TORSDOF 3
ENDMDL
MODEL       50
REMARK 921   NORMALIZED FREE ENERGY PREDICTED BY IDOCK:   -3.61 KCAL/MOL
REMARK 922        TOTAL FREE ENERGY PREDICTED BY IDOCK:   -4.47 KCAL/MOL
REMARK 923 INTER-LIGAND FREE ENERGY PREDICTED BY IDOCK:   -4.24 KCAL/MOL
REMARK 924 INTRA-LIGAND FREE ENERGY PREDICTED BY IDOCK:   -0.24 KCAL/MOL
REMARK 927      BINDING AFFINITY PREDICTED BY RF-SCORE:    0.00 PKD
ROOT
HETATM    1  C   UNL     1      -7.957  15.303  69.302  1.00  0.00    -0.223 C  
HETATM    2  N   UNL     1      -9.278  14.769  69.604  1.00  0.00    -0.420 NA 
HETATM    3  H   UNL     1      -9.304  14.376  70.545  1.00  0.00     0.000 HD 
ENDROOT
BRANCH   2   4
HETATM    4  C   UNL     1     -10.360  15.754  69.419  1.00  0.00    -0.263 C  
HETATM    5  C   UNL     1     -11.685  15.259  70.017  1.00  0.00    -0.344 C  
BRANCH   4   6
HETATM    6  C   UNL     1     -10.501  16.044  67.900  1.00  0.00    -0.292 C  
BRANCH   6   7
HETATM    7  C   UNL     1     -10.288  17.501  67.551  1.00  0.00    -0.356 A  
HETATM    8  C   UNL     1      -9.884  18.416  68.533  1.00  0.00    -0.402 A  
HETATM    9  C   UNL     1      -9.801  19.776  68.240  1.00  0.00    -0.537 A  
HETATM   10  C   UNL     1     -10.104  20.233  66.959  1.00  0.00    -0.567 A  
HETATM   11  C   UNL     1     -10.471  19.329  65.965  1.00  0.00    -0.573 A  
HETATM   12  C   UNL     1     -10.559  17.968  66.257  1.00  0.00    -0.262 A  
ENDBRANCH   6   7
ENDBRANCH   4   6
ENDBRANCH   2   4
TORSDOF 3
ENDMDL
MODEL       51
REMARK 921   NORMALIZED FREE ENERGY PREDICTED BY IDOCK:   -3.61 KCAL/MOL
REMARK 922        TOTAL FREE ENERGY PREDICTED BY IDOCK:   -4.46 KCAL/MOL
REMARK 923 INTER-LIGAND FREE ENERGY PREDICTED BY IDOCK:   -4.29 KCAL/MOL
REMARK 924 INTRA-LIGAND FREE ENERGY PREDICTED BY IDOCK:   -0.17 KCAL/MOL
REMARK 927      BINDING AFFINITY PREDICTED BY RF-SCORE:    0.00 PKD
ROOT
HETATM    1  C   UNL     1      -9.299  19.889  66.543  1.00  0.00    -0.401 C  
HETATM    2  N   UNL     1     -10.453  19.024  66.749  1.00  0.00    -0.406 NA 
HETATM    3  H   UNL     1     -10.929  18.839  65.866  1.00  0.00     0.000 HD 
ENDROOT
BRANCH   2   4
HETATM    4  C   UNL     1     -10.120  17.764  67.439  1.00  0.00    -0.338 C  
HETATM    5  C   UNL     1      -9.015  17.968  68.487  1.00  0.00    -0.297 C  
BRANCH   4   6
HETATM    6  C   UNL     1      -9.697  16.719  66.371  1.00  0.00    -0.309 C  
BRANCH   6   7
HETATM    7  C   UNL     1     -10.765  15.682  66.100  1.00  0.00    -0.305 A  
HETATM    8  C   UNL     1     -11.244  14.867  67.134  1.00  0.00    -0.345 A  
HETATM    9  C   UNL     1     -12.141  13.834  66.863  1.00  0.00    -0.454 A  
HETATM   10  C   UNL     1     -12.580  13.618  65.558  1.00  0.00    -0.541 A  
HETATM   11  C   UNL     1     -12.140  14.445  64.528  1.00  0.00    -0.498 A  
HETATM   12  C   UNL     1     -11.239  15.476  64.796  1.00  0.00    -0.399 A  
ENDBRANCH   6   7
ENDBRANCH   4   6
ENDBRANCH   2   4
TORSDOF 3
ENDMDL
MODEL       52
REMARK 921   NORMALIZED FREE ENERGY PREDICTED BY IDOCK:   -3.60 KCAL/MOL
REMARK 922        TOTAL FREE ENERGY PREDICTED BY IDOCK:   -4.46 KCAL/MOL
REMARK 923 INTER-LIGAND FREE ENERGY PREDICTED BY IDOCK:   -4.23 KCAL/MOL
REMARK 924 INTRA-LIGAND FREE ENERGY PREDICTED BY IDOCK:   -0.22 KCAL/MOL
REMARK 927      BINDING AFFINITY PREDICTED BY RF-SCORE:    0.00 PKD
ROOT
HETATM    1  C   UNL     1     -10.716  14.509  64.855  1.00  0.00    -0.429 C  
HETATM    2  N   UNL     1     -10.345  13.358  64.042  1.00  0.00    -0.706 NA 
HETATM    3  H   UNL     1      -9.358  13.132  64.162  1.00  0.00     0.000 HD 
ENDROOT
BRANCH   2   4
HETATM    4  C   UNL     1     -11.189  12.175  64.291  1.00  0.00    -0.347 C  
HETATM    5  C   UNL     1     -12.458  12.192  63.426  1.00  0.00    -0.625 C  
BRANCH   4   6
HETATM    6  C   UNL     1     -11.539  12.133  65.803  1.00  0.00    -0.414 C  
BRANCH   6   7
HETATM    7  C   UNL     1     -10.877  10.986  66.535  1.00  0.00    -0.269 A  
HETATM    8  C   UNL     1     -10.055  10.083  65.847  1.00  0.00    -0.319 A  
HETATM    9  C   UNL     1      -9.541   8.961  66.494  1.00  0.00    -0.297 A  
HETATM   10  C   UNL     1      -9.829   8.739  67.839  1.00  0.00    -0.207 A  
HETATM   11  C   UNL     1     -10.615   9.649  68.543  1.00  0.00    -0.253 A  
HETATM   12  C   UNL     1     -11.134  10.770  67.896  1.00  0.00    -0.369 A  
ENDBRANCH   6   7
ENDBRANCH   4   6
ENDBRANCH   2   4
TORSDOF 3
ENDMDL
MODEL       53
REMARK 921   NORMALIZED FREE ENERGY PREDICTED BY IDOCK:   -3.59 KCAL/MOL
REMARK 922        TOTAL FREE ENERGY PREDICTED BY IDOCK:   -4.45 KCAL/MOL
REMARK 923 INTER-LIGAND FREE ENERGY PREDICTED BY IDOCK:   -4.25 KCAL/MOL
REMARK 924 INTRA-LIGAND FREE ENERGY PREDICTED BY IDOCK:   -0.20 KCAL/MOL
REMARK 927      BINDING AFFINITY PREDICTED BY RF-SCORE:    0.00 PKD
ROOT
HETATM    1  C   UNL     1      -8.598  11.703  68.104  1.00  0.00    -0.158 C  
HETATM    2  N   UNL     1      -9.723  12.345  68.773  1.00  0.00    -0.416 NA 
HETATM    3  H   UNL     1      -9.855  13.296  68.429  1.00  0.00     0.000 HD 
ENDROOT
BRANCH   2   4
HETATM    4  C   UNL     1     -10.975  11.573  68.674  1.00  0.00    -0.223 C  
HETATM    5  C   UNL     1     -11.781  11.959  67.425  1.00  0.00    -0.326 C  
BRANCH   4   6
HETATM    6  C   UNL     1     -11.798  11.809  69.970  1.00  0.00    -0.422 C  
BRANCH   6   7
HETATM    7  C   UNL     1     -11.896  10.577  70.844  1.00  0.00    -0.455 A  
HETATM    8  C   UNL     1     -10.839   9.659  70.899  1.00  0.00    -0.409 A  
HETATM    9  C   UNL     1     -10.974   8.467  71.611  1.00  0.00    -0.362 A  
HETATM   10  C   UNL     1     -12.161   8.191  72.287  1.00  0.00    -0.419 A  
HETATM   11  C   UNL     1     -13.204   9.113  72.270  1.00  0.00    -0.528 A  
HETATM   12  C   UNL     1     -13.073  10.304  71.555  1.00  0.00    -0.534 A  
ENDBRANCH   6   7
ENDBRANCH   4   6
ENDBRANCH   2   4
TORSDOF 3
ENDMDL
MODEL       54
REMARK 921   NORMALIZED FREE ENERGY PREDICTED BY IDOCK:   -3.57 KCAL/MOL
REMARK 922        TOTAL FREE ENERGY PREDICTED BY IDOCK:   -4.43 KCAL/MOL
REMARK 923 INTER-LIGAND FREE ENERGY PREDICTED BY IDOCK:   -4.28 KCAL/MOL
REMARK 924 INTRA-LIGAND FREE ENERGY PREDICTED BY IDOCK:   -0.15 KCAL/MOL
REMARK 927      BINDING AFFINITY PREDICTED BY RF-SCORE:    0.00 PKD
ROOT
HETATM    1  C   UNL     1     -13.725  13.564  72.289  1.00  0.00    -0.602 C  
HETATM    2  N   UNL     1     -12.727  13.500  71.229  1.00  0.00    -0.358 NA 
HETATM    3  H   UNL     1     -13.168  13.335  70.325  1.00  0.00     0.000 HD 
ENDROOT
BRANCH   2   4
HETATM    4  C   UNL     1     -11.856  14.690  71.178  1.00  0.00    -0.323 C  
HETATM    5  C   UNL     1     -11.768  15.385  72.545  1.00  0.00    -0.564 C  
BRANCH   4   6
HETATM    6  C   UNL     1     -12.407  15.652  70.091  1.00  0.00    -0.366 C  
BRANCH   6   7
HETATM    7  C   UNL     1     -11.644  15.575  68.787  1.00  0.00    -0.390 A  
HETATM    8  C   UNL     1     -10.796  16.621  68.397  1.00  0.00    -0.361 A  
HETATM    9  C   UNL     1     -10.184  16.604  67.144  1.00  0.00    -0.290 A  
HETATM   10  C   UNL     1     -10.400  15.535  66.277  1.00  0.00    -0.312 A  
HETATM   11  C   UNL     1     -11.211  14.472  66.669  1.00  0.00    -0.346 A  
HETATM   12  C   UNL     1     -11.828  14.488  67.920  1.00  0.00    -0.370 A  
ENDBRANCH   6   7
ENDBRANCH   4   6
ENDBRANCH   2   4
TORSDOF 3
ENDMDL
MODEL       55
REMARK 921   NORMALIZED FREE ENERGY PREDICTED BY IDOCK:   -3.54 KCAL/MOL
REMARK 922        TOTAL FREE ENERGY PREDICTED BY IDOCK:   -4.38 KCAL/MOL
REMARK 923 INTER-LIGAND FREE ENERGY PREDICTED BY IDOCK:   -4.18 KCAL/MOL
REMARK 924 INTRA-LIGAND FREE ENERGY PREDICTED BY IDOCK:   -0.20 KCAL/MOL
REMARK 927      BINDING AFFINITY PREDICTED BY RF-SCORE:    0.00 PKD
ROOT
HETATM    1  C   UNL     1     -11.279   5.322  72.752  1.00  0.00    -0.284 C  
HETATM    2  N   UNL     1     -12.297   6.319  72.449  1.00  0.00    -0.550 NA 
HETATM    3  H   UNL     1     -12.463   6.924  73.253  1.00  0.00     0.000 HD 
ENDROOT
BRANCH   2   4
HETATM    4  C   UNL     1     -11.991   7.117  71.247  1.00  0.00    -0.337 C  
HETATM    5  C   UNL     1     -11.466   6.237  70.102  1.00  0.00    -0.452 C  
BRANCH   4   6
HETATM    6  C   UNL     1     -10.959   8.210  71.636  1.00  0.00    -0.306 C  
BRANCH   6   7
HETATM    7  C   UNL     1     -11.215   9.538  70.957  1.00  0.00    -0.432 A  
HETATM    8  C   UNL     1     -12.231  10.387  71.418  1.00  0.00    -0.461 A  
HETATM    9  C   UNL     1     -12.545  11.554  70.723  1.00  0.00    -0.390 A  
HETATM   10  C   UNL     1     -11.836  11.892  69.572  1.00  0.00    -0.395 A  
HETATM   11  C   UNL     1     -10.800  11.075  69.126  1.00  0.00    -0.283 A  
HETATM   12  C   UNL     1     -10.487   9.904  69.817  1.00  0.00    -0.292 A  
ENDBRANCH   6   7
ENDBRANCH   4   6
ENDBRANCH   2   4
TORSDOF 3
ENDMDL
MODEL       56
REMARK 921   NORMALIZED FREE ENERGY PREDICTED BY IDOCK:   -3.53 KCAL/MOL
REMARK 922        TOTAL FREE ENERGY PREDICTED BY IDOCK:   -4.38 KCAL/MOL
REMARK 923 INTER-LIGAND FREE ENERGY PREDICTED BY IDOCK:   -4.18 KCAL/MOL
REMARK 924 INTRA-LIGAND FREE ENERGY PREDICTED BY IDOCK:   -0.20 KCAL/MOL
REMARK 927      BINDING AFFINITY PREDICTED BY RF-SCORE:    0.00 PKD
ROOT
HETATM    1  C   UNL     1     -11.851  14.442  69.801  1.00  0.00    -0.320 C  
HETATM    2  N   UNL     1     -10.959  13.380  69.355  1.00  0.00    -0.440 NA 
HETATM    3  H   UNL     1     -10.388  13.038  70.128  1.00  0.00     0.000 HD 
ENDROOT
BRANCH   2   4
HETATM    4  C   UNL     1     -11.664  12.268  68.692  1.00  0.00    -0.328 C  
HETATM    5  C   UNL     1     -12.282  11.301  69.713  1.00  0.00    -0.343 C  
BRANCH   4   6
HETATM    6  C   UNL     1     -10.659  11.537  67.762  1.00  0.00    -0.227 C  
BRANCH   6   7
HETATM    7  C   UNL     1     -10.974  11.712  66.292  1.00  0.00    -0.338 A  
HETATM    8  C   UNL     1     -10.105  11.208  65.314  1.00  0.00    -0.329 A  
HETATM    9  C   UNL     1     -10.334  11.470  63.964  1.00  0.00    -0.406 A  
HETATM   10  C   UNL     1     -11.441  12.223  63.577  1.00  0.00    -0.558 A  
HETATM   11  C   UNL     1     -12.331  12.697  64.538  1.00  0.00    -0.537 A  
HETATM   12  C   UNL     1     -12.103  12.440  65.890  1.00  0.00    -0.352 A  
ENDBRANCH   6   7
ENDBRANCH   4   6
ENDBRANCH   2   4
TORSDOF 3
ENDMDL
MODEL       57
REMARK 921   NORMALIZED FREE ENERGY PREDICTED BY IDOCK:   -3.53 KCAL/MOL
REMARK 922        TOTAL FREE ENERGY PREDICTED BY IDOCK:   -4.38 KCAL/MOL
REMARK 923 INTER-LIGAND FREE ENERGY PREDICTED BY IDOCK:   -4.19 KCAL/MOL
REMARK 924 INTRA-LIGAND FREE ENERGY PREDICTED BY IDOCK:   -0.19 KCAL/MOL
REMARK 927      BINDING AFFINITY PREDICTED BY RF-SCORE:    0.00 PKD
ROOT
HETATM    1  C   UNL     1     -11.767  11.909  69.322  1.00  0.00    -0.328 C  
HETATM    2  N   UNL     1     -12.449  10.623  69.364  1.00  0.00    -0.690 NA 
HETATM    3  H   UNL     1     -12.018   9.963  68.717  1.00  0.00     0.000 HD 
ENDROOT
BRANCH   2   4
HETATM    4  C   UNL     1     -12.528  10.051  70.721  1.00  0.00    -0.295 C  
HETATM    5  C   UNL     1     -13.062  11.072  71.736  1.00  0.00    -0.554 C  
BRANCH   4   6
HETATM    6  C   UNL     1     -11.115   9.545  71.121  1.00  0.00    -0.450 C  
BRANCH   6   7
HETATM    7  C   UNL     1     -11.119   8.125  71.644  1.00  0.00    -0.310 A  
HETATM    8  C   UNL     1     -10.852   7.864  72.995  1.00  0.00    -0.408 A  
HETATM    9  C   UNL     1     -10.739   6.552  73.453  1.00  0.00    -0.295 A  
HETATM   10  C   UNL     1     -10.909   5.489  72.569  1.00  0.00    -0.302 A  
HETATM   11  C   UNL     1     -11.211   5.735  71.231  1.00  0.00    -0.223 A  
HETATM   12  C   UNL     1     -11.320   7.047  70.770  1.00  0.00    -0.339 A  
ENDBRANCH   6   7
ENDBRANCH   4   6
ENDBRANCH   2   4
TORSDOF 3
ENDMDL
MODEL       58
REMARK 921   NORMALIZED FREE ENERGY PREDICTED BY IDOCK:   -3.53 KCAL/MOL
REMARK 922        TOTAL FREE ENERGY PREDICTED BY IDOCK:   -4.38 KCAL/MOL
REMARK 923 INTER-LIGAND FREE ENERGY PREDICTED BY IDOCK:   -4.15 KCAL/MOL
REMARK 924 INTRA-LIGAND FREE ENERGY PREDICTED BY IDOCK:   -0.22 KCAL/MOL
REMARK 927      BINDING AFFINITY PREDICTED BY RF-SCORE:    0.00 PKD
ROOT
HETATM    1  C   UNL     1      -9.896  10.806  69.095  1.00  0.00    -0.175 C  
HETATM    2  N   UNL     1     -10.630  12.041  69.337  1.00  0.00    -0.439 NA 
HETATM    3  H   UNL     1     -10.398  12.426  70.253  1.00  0.00     0.000 HD 
ENDROOT
BRANCH   2   4
HETATM    4  C   UNL     1     -10.437  13.049  68.279  1.00  0.00    -0.250 C  
HETATM    5  C   UNL     1     -10.133  14.435  68.867  1.00  0.00    -0.202 C  
BRANCH   4   6
HETATM    6  C   UNL     1     -11.714  13.080  67.395  1.00  0.00    -0.427 C  
BRANCH   6   7
HETATM    7  C   UNL     1     -11.454  12.670  65.962  1.00  0.00    -0.414 A  
HETATM    8  C   UNL     1     -12.347  13.037  64.945  1.00  0.00    -0.512 A  
HETATM    9  C   UNL     1     -12.171  12.561  63.646  1.00  0.00    -0.642 A  
HETATM   10  C   UNL     1     -11.093  11.731  63.347  1.00  0.00    -0.448 A  
HETATM   11  C   UNL     1     -10.179  11.390  64.342  1.00  0.00    -0.361 A  
HETATM   12  C   UNL     1     -10.355  11.861  65.643  1.00  0.00    -0.285 A  
ENDBRANCH   6   7
ENDBRANCH   4   6
ENDBRANCH   2   4
TORSDOF 3
ENDMDL
MODEL       59
REMARK 921   NORMALIZED FREE ENERGY PREDICTED BY IDOCK:   -3.52 KCAL/MOL
REMARK 922        TOTAL FREE ENERGY PREDICTED BY IDOCK:   -4.36 KCAL/MOL
REMARK 923 INTER-LIGAND FREE ENERGY PREDICTED BY IDOCK:   -4.13 KCAL/MOL
REMARK 924 INTRA-LIGAND FREE ENERGY PREDICTED BY IDOCK:   -0.24 KCAL/MOL
REMARK 927      BINDING AFFINITY PREDICTED BY RF-SCORE:    0.00 PKD
ROOT
HETATM    1  C   UNL     1     -14.390   7.991  71.819  1.00  0.00    -0.478 C  
HETATM    2  N   UNL     1     -13.219   7.281  72.314  1.00  0.00    -0.498 NA 
HETATM    3  H   UNL     1     -13.438   6.301  72.493  1.00  0.00     0.000 HD 
ENDROOT
BRANCH   2   4
HETATM    4  C   UNL     1     -12.047   7.403  71.427  1.00  0.00    -0.327 C  
HETATM    5  C   UNL     1     -11.240   6.097  71.373  1.00  0.00    -0.346 C  
BRANCH   4   6
HETATM    6  C   UNL     1     -11.174   8.584  71.931  1.00  0.00    -0.397 C  
BRANCH   6   7
HETATM    7  C   UNL     1     -11.006   9.680  70.902  1.00  0.00    -0.412 A  
HETATM    8  C   UNL     1     -12.015  10.633  70.706  1.00  0.00    -0.477 A  
HETATM    9  C   UNL     1     -11.912  11.570  69.680  1.00  0.00    -0.407 A  
HETATM   10  C   UNL     1     -10.792  11.576  68.850  1.00  0.00    -0.263 A  
HETATM   11  C   UNL     1      -9.766  10.658  69.059  1.00  0.00    -0.214 A  
HETATM   12  C   UNL     1      -9.868   9.716  70.083  1.00  0.00    -0.310 A  
ENDBRANCH   6   7
ENDBRANCH   4   6
ENDBRANCH   2   4
TORSDOF 3
ENDMDL
MODEL       60
REMARK 921   NORMALIZED FREE ENERGY PREDICTED BY IDOCK:   -3.49 KCAL/MOL
REMARK 922        TOTAL FREE ENERGY PREDICTED BY IDOCK:   -4.32 KCAL/MOL
REMARK 923 INTER-LIGAND FREE ENERGY PREDICTED BY IDOCK:   -4.25 KCAL/MOL
REMARK 924 INTRA-LIGAND FREE ENERGY PREDICTED BY IDOCK:   -0.07 KCAL/MOL
REMARK 927      BINDING AFFINITY PREDICTED BY RF-SCORE:    0.00 PKD
ROOT
HETATM    1  C   UNL     1      -8.105  18.996  66.494  1.00  0.00    -0.289 C  
HETATM    2  N   UNL     1      -9.032  17.968  66.041  1.00  0.00    -0.513 NA 
HETATM    3  H   UNL     1      -8.624  17.039  66.147  1.00  0.00     0.000 HD 
ENDROOT
BRANCH   2   4
HETATM    4  C   UNL     1     -10.349  18.040  66.700  1.00  0.00    -0.371 C  
HETATM    5  C   UNL     1     -10.716  19.484  67.074  1.00  0.00    -0.592 C  
BRANCH   4   6
HETATM    6  C   UNL     1     -10.319  17.124  67.953  1.00  0.00    -0.350 C  
BRANCH   6   7
HETATM    7  C   UNL     1     -10.927  15.761  67.708  1.00  0.00    -0.314 A  
HETATM    8  C   UNL     1     -11.428  15.003  68.775  1.00  0.00    -0.337 A  
HETATM    9  C   UNL     1     -11.881  13.701  68.566  1.00  0.00    -0.406 A  
HETATM   10  C   UNL     1     -11.853  13.150  67.286  1.00  0.00    -0.420 A  
HETATM   11  C   UNL     1     -11.392  13.907  66.212  1.00  0.00    -0.329 A  
HETATM   12  C   UNL     1     -10.935  15.209  66.419  1.00  0.00    -0.329 A  
ENDBRANCH   6   7
ENDBRANCH   4   6
ENDBRANCH   2   4
TORSDOF 3
ENDMDL
MODEL       61
REMARK 921   NORMALIZED FREE ENERGY PREDICTED BY IDOCK:   -3.48 KCAL/MOL
REMARK 922        TOTAL FREE ENERGY PREDICTED BY IDOCK:   -4.32 KCAL/MOL
REMARK 923 INTER-LIGAND FREE ENERGY PREDICTED BY IDOCK:   -4.10 KCAL/MOL
REMARK 924 INTRA-LIGAND FREE ENERGY PREDICTED BY IDOCK:   -0.23 KCAL/MOL
REMARK 927      BINDING AFFINITY PREDICTED BY RF-SCORE:    0.00 PKD
ROOT
HETATM    1  C   UNL     1     -10.530  14.631  65.206  1.00  0.00    -0.398 C  
HETATM    2  N   UNL     1     -10.349  13.250  64.777  1.00  0.00    -0.464 NA 
HETATM    3  H   UNL     1      -9.431  12.903  65.052  1.00  0.00     0.000 HD 
ENDROOT
BRANCH   2   4
HETATM    4  C   UNL     1     -11.415  12.349  65.253  1.00  0.00    -0.344 C  
HETATM    5  C   UNL     1     -12.548  12.219  64.224  1.00  0.00    -0.470 C  
BRANCH   4   6
HETATM    6  C   UNL     1     -11.944  12.891  66.608  1.00  0.00    -0.436 C  
BRANCH   6   7
HETATM    7  C   UNL     1     -11.611  11.993  67.779  1.00  0.00    -0.400 A  
HETATM    8  C   UNL     1     -10.871  10.818  67.586  1.00  0.00    -0.332 A  
HETATM    9  C   UNL     1     -10.664   9.931  68.642  1.00  0.00    -0.256 A  
HETATM   10  C   UNL     1     -11.180  10.218  69.904  1.00  0.00    -0.360 A  
HETATM   11  C   UNL     1     -11.885  11.401  70.117  1.00  0.00    -0.440 A  
HETATM   12  C   UNL     1     -12.097  12.288  69.061  1.00  0.00    -0.197 A  
ENDBRANCH   6   7
ENDBRANCH   4   6
ENDBRANCH   2   4
TORSDOF 3
ENDMDL
MODEL       62
REMARK 921   NORMALIZED FREE ENERGY PREDICTED BY IDOCK:   -3.46 KCAL/MOL
REMARK 922        TOTAL FREE ENERGY PREDICTED BY IDOCK:   -4.30 KCAL/MOL
REMARK 923 INTER-LIGAND FREE ENERGY PREDICTED BY IDOCK:   -4.11 KCAL/MOL
REMARK 924 INTRA-LIGAND FREE ENERGY PREDICTED BY IDOCK:   -0.19 KCAL/MOL
REMARK 927      BINDING AFFINITY PREDICTED BY RF-SCORE:    0.00 PKD
ROOT
HETATM    1  C   UNL     1     -12.891  13.889  65.248  1.00  0.00    -0.398 C  
HETATM    2  N   UNL     1     -12.402  12.611  65.748  1.00  0.00    -0.619 NA 
HETATM    3  H   UNL     1     -12.140  11.997  64.977  1.00  0.00     0.000 HD 
ENDROOT
BRANCH   2   4
HETATM    4  C   UNL     1     -11.293  12.748  66.710  1.00  0.00    -0.313 C  
HETATM    5  C   UNL     1     -10.180  13.656  66.165  1.00  0.00    -0.306 C  
BRANCH   4   6
HETATM    6  C   UNL     1     -10.753  11.330  67.039  1.00  0.00    -0.305 C  
BRANCH   6   7
HETATM    7  C   UNL     1     -11.131  10.857  68.426  1.00  0.00    -0.320 A  
HETATM    8  C   UNL     1     -11.851  11.693  69.290  1.00  0.00    -0.396 A  
HETATM    9  C   UNL     1     -12.097  11.304  70.607  1.00  0.00    -0.480 A  
HETATM   10  C   UNL     1     -11.642  10.070  71.066  1.00  0.00    -0.476 A  
HETATM   11  C   UNL     1     -10.958   9.215  70.204  1.00  0.00    -0.267 A  
HETATM   12  C   UNL     1     -10.706   9.604  68.888  1.00  0.00    -0.230 A  
ENDBRANCH   6   7
ENDBRANCH   4   6
ENDBRANCH   2   4
TORSDOF 3
ENDMDL
MODEL       63
REMARK 921   NORMALIZED FREE ENERGY PREDICTED BY IDOCK:   -3.46 KCAL/MOL
REMARK 922        TOTAL FREE ENERGY PREDICTED BY IDOCK:   -4.29 KCAL/MOL
REMARK 923 INTER-LIGAND FREE ENERGY PREDICTED BY IDOCK:   -4.11 KCAL/MOL
REMARK 924 INTRA-LIGAND FREE ENERGY PREDICTED BY IDOCK:   -0.18 KCAL/MOL
REMARK 927      BINDING AFFINITY PREDICTED BY RF-SCORE:    0.00 PKD
ROOT
HETATM    1  C   UNL     1      -9.491   9.659  70.080  1.00  0.00    -0.253 C  
HETATM    2  N   UNL     1      -9.475  10.864  69.262  1.00  0.00    -0.410 NA 
HETATM    3  H   UNL     1      -8.878  10.738  68.444  1.00  0.00     0.000 HD 
ENDROOT
BRANCH   2   4
HETATM    4  C   UNL     1     -10.821  11.315  68.864  1.00  0.00    -0.208 C  
HETATM    5  C   UNL     1     -11.903  10.764  69.805  1.00  0.00    -0.409 C  
BRANCH   4   6
HETATM    6  C   UNL     1     -11.072  10.872  67.397  1.00  0.00    -0.373 C  
BRANCH   6   7
HETATM    7  C   UNL     1     -11.486  12.013  66.494  1.00  0.00    -0.413 A  
HETATM    8  C   UNL     1     -11.332  11.912  65.105  1.00  0.00    -0.328 A  
HETATM    9  C   UNL     1     -11.604  13.006  64.283  1.00  0.00    -0.437 A  
HETATM   10  C   UNL     1     -12.048  14.203  64.840  1.00  0.00    -0.438 A  
HETATM   11  C   UNL     1     -12.240  14.303  66.216  1.00  0.00    -0.433 A  
HETATM   12  C   UNL     1     -11.965  13.212  67.041  1.00  0.00    -0.412 A  
ENDBRANCH   6   7
ENDBRANCH   4   6
ENDBRANCH   2   4
TORSDOF 3
ENDMDL
MODEL       64
REMARK 921   NORMALIZED FREE ENERGY PREDICTED BY IDOCK:   -3.45 KCAL/MOL
REMARK 922        TOTAL FREE ENERGY PREDICTED BY IDOCK:   -4.28 KCAL/MOL
REMARK 923 INTER-LIGAND FREE ENERGY PREDICTED BY IDOCK:   -4.02 KCAL/MOL
REMARK 924 INTRA-LIGAND FREE ENERGY PREDICTED BY IDOCK:   -0.26 KCAL/MOL
REMARK 927      BINDING AFFINITY PREDICTED BY RF-SCORE:    0.00 PKD
ROOT
HETATM    1  C   UNL     1     -10.252   9.629  66.910  1.00  0.00    -0.237 C  
HETATM    2  N   UNL     1     -10.608  10.898  66.288  1.00  0.00    -0.241 NA 
HETATM    3  H   UNL     1     -11.053  10.746  65.383  1.00  0.00     0.000 HD 
ENDROOT
BRANCH   2   4
HETATM    4  C   UNL     1     -11.449  11.751  67.149  1.00  0.00    -0.295 C  
HETATM    5  C   UNL     1     -11.893  13.028  66.419  1.00  0.00    -0.465 C  
BRANCH   4   6
HETATM    6  C   UNL     1     -10.647  12.088  68.435  1.00  0.00    -0.236 C  
BRANCH   6   7
HETATM    7  C   UNL     1     -11.494  12.053  69.689  1.00  0.00    -0.322 A  
HETATM    8  C   UNL     1     -11.880  10.828  70.252  1.00  0.00    -0.438 A  
HETATM    9  C   UNL     1     -12.755  10.794  71.337  1.00  0.00    -0.544 A  
HETATM   10  C   UNL     1     -13.239  11.983  71.880  1.00  0.00    -0.469 A  
HETATM   11  C   UNL     1     -12.832  13.207  71.352  1.00  0.00    -0.401 A  
HETATM   12  C   UNL     1     -11.960  13.243  70.264  1.00  0.00    -0.372 A  
ENDBRANCH   6   7
ENDBRANCH   4   6
ENDBRANCH   2   4
TORSDOF 3
ENDMDL
MODEL       65
REMARK 921   NORMALIZED FREE ENERGY PREDICTED BY IDOCK:   -3.44 KCAL/MOL
REMARK 922        TOTAL FREE ENERGY PREDICTED BY IDOCK:   -4.27 KCAL/MOL
REMARK 923 INTER-LIGAND FREE ENERGY PREDICTED BY IDOCK:   -4.07 KCAL/MOL
REMARK 924 INTRA-LIGAND FREE ENERGY PREDICTED BY IDOCK:   -0.20 KCAL/MOL
REMARK 927      BINDING AFFINITY PREDICTED BY RF-SCORE:    0.00 PKD
ROOT
HETATM    1  C   UNL     1      -8.887   7.551  66.269  1.00  0.00    -0.160 C  
HETATM    2  N   UNL     1     -10.061   8.396  66.095  1.00  0.00    -0.444 NA 
HETATM    3  H   UNL     1     -10.610   8.434  66.954  1.00  0.00     0.000 HD 
ENDROOT
BRANCH   2   4
HETATM    4  C   UNL     1      -9.735   9.753  65.620  1.00  0.00    -0.288 C  
HETATM    5  C   UNL     1      -8.227  10.032  65.693  1.00  0.00    -0.143 C  
BRANCH   4   6
HETATM    6  C   UNL     1     -10.538  10.774  66.472  1.00  0.00    -0.279 C  
BRANCH   6   7
HETATM    7  C   UNL     1     -11.260  11.808  65.635  1.00  0.00    -0.324 A  
HETATM    8  C   UNL     1     -11.238  11.732  64.235  1.00  0.00    -0.414 A  
HETATM    9  C   UNL     1     -11.802  12.747  63.464  1.00  0.00    -0.618 A  
HETATM   10  C   UNL     1     -12.408  13.838  64.082  1.00  0.00    -0.382 A  
HETATM   11  C   UNL     1     -12.469  13.906  65.472  1.00  0.00    -0.541 A  
HETATM   12  C   UNL     1     -11.902  12.894  66.247  1.00  0.00    -0.477 A  
ENDBRANCH   6   7
ENDBRANCH   4   6
ENDBRANCH   2   4
TORSDOF 3
ENDMDL
MODEL       66
REMARK 921   NORMALIZED FREE ENERGY PREDICTED BY IDOCK:   -3.44 KCAL/MOL
REMARK 922        TOTAL FREE ENERGY PREDICTED BY IDOCK:   -4.27 KCAL/MOL
REMARK 923 INTER-LIGAND FREE ENERGY PREDICTED BY IDOCK:   -4.01 KCAL/MOL
REMARK 924 INTRA-LIGAND FREE ENERGY PREDICTED BY IDOCK:   -0.26 KCAL/MOL
REMARK 927      BINDING AFFINITY PREDICTED BY RF-SCORE:    0.00 PKD
ROOT
HETATM    1  C   UNL     1      -9.813   5.282  72.292  1.00  0.00    -0.168 C  
HETATM    2  N   UNL     1     -10.519   5.021  71.044  1.00  0.00    -0.185 NA 
HETATM    3  H   UNL     1     -11.224   4.296  71.172  1.00  0.00     0.000 HD 
ENDROOT
BRANCH   2   4
HETATM    4  C   UNL     1     -11.114   6.231  70.449  1.00  0.00    -0.352 C  
HETATM    5  C   UNL     1     -10.991   6.228  68.917  1.00  0.00    -0.435 C  
BRANCH   4   6
HETATM    6  C   UNL     1     -10.417   7.474  71.067  1.00  0.00    -0.222 C  
BRANCH   6   7
HETATM    7  C   UNL     1     -11.363   8.630  71.303  1.00  0.00    -0.341 A  
HETATM    8  C   UNL     1     -12.492   8.470  72.119  1.00  0.00    -0.437 A  
HETATM    9  C   UNL     1     -13.426   9.498  72.243  1.00  0.00    -0.521 A  
HETATM   10  C   UNL     1     -13.232  10.701  71.566  1.00  0.00    -0.460 A  
HETATM   11  C   UNL     1     -12.096  10.885  70.782  1.00  0.00    -0.469 A  
HETATM   12  C   UNL     1     -11.162   9.856  70.653  1.00  0.00    -0.416 A  
ENDBRANCH   6   7
ENDBRANCH   4   6
ENDBRANCH   2   4
TORSDOF 3
ENDMDL
MODEL       67
REMARK 921   NORMALIZED FREE ENERGY PREDICTED BY IDOCK:   -3.39 KCAL/MOL
REMARK 922        TOTAL FREE ENERGY PREDICTED BY IDOCK:   -4.21 KCAL/MOL
REMARK 923 INTER-LIGAND FREE ENERGY PREDICTED BY IDOCK:   -4.29 KCAL/MOL
REMARK 924 INTRA-LIGAND FREE ENERGY PREDICTED BY IDOCK:    0.08 KCAL/MOL
REMARK 927      BINDING AFFINITY PREDICTED BY RF-SCORE:    0.00 PKD
ROOT
HETATM    1  C   UNL     1     -10.121   8.959  67.030  1.00  0.00    -0.261 C  
HETATM    2  N   UNL     1     -11.029   8.334  67.983  1.00  0.00    -0.460 NA 
HETATM    3  H   UNL     1     -11.748   7.797  67.499  1.00  0.00     0.000 HD 
ENDROOT
BRANCH   2   4
HETATM    4  C   UNL     1     -10.337   7.502  68.984  1.00  0.00    -0.212 C  
HETATM    5  C   UNL     1     -11.183   6.286  69.391  1.00  0.00    -0.489 C  
BRANCH   4   6
HETATM    6  C   UNL     1     -10.004   8.392  70.212  1.00  0.00    -0.193 C  
BRANCH   6   7
HETATM    7  C   UNL     1     -11.191   9.185  70.712  1.00  0.00    -0.336 A  
HETATM    8  C   UNL     1     -11.389  10.508  70.295  1.00  0.00    -0.407 A  
HETATM    9  C   UNL     1     -12.415  11.276  70.844  1.00  0.00    -0.493 A  
HETATM   10  C   UNL     1     -13.263  10.724  71.802  1.00  0.00    -0.523 A  
HETATM   11  C   UNL     1     -13.099   9.399  72.197  1.00  0.00    -0.526 A  
HETATM   12  C   UNL     1     -12.071   8.629  71.652  1.00  0.00    -0.385 A  
ENDBRANCH   6   7
ENDBRANCH   4   6
ENDBRANCH   2   4
TORSDOF 3
ENDMDL
MODEL       68
REMARK 921   NORMALIZED FREE ENERGY PREDICTED BY IDOCK:   -3.38 KCAL/MOL
REMARK 922        TOTAL FREE ENERGY PREDICTED BY IDOCK:   -4.20 KCAL/MOL
REMARK 923 INTER-LIGAND FREE ENERGY PREDICTED BY IDOCK:   -3.99 KCAL/MOL
REMARK 924 INTRA-LIGAND FREE ENERGY PREDICTED BY IDOCK:   -0.21 KCAL/MOL
REMARK 927      BINDING AFFINITY PREDICTED BY RF-SCORE:    0.00 PKD
ROOT
HETATM    1  C   UNL     1      -9.377  15.408  69.218  1.00  0.00    -0.254 C  
HETATM    2  N   UNL     1     -10.196  15.627  68.032  1.00  0.00    -0.225 NA 
HETATM    3  H   UNL     1      -9.812  15.127  67.230  1.00  0.00     0.000 HD 
ENDROOT
BRANCH   2   4
HETATM    4  C   UNL     1     -11.615  15.284  68.234  1.00  0.00    -0.341 C  
HETATM    5  C   UNL     1     -12.094  15.661  69.645  1.00  0.00    -0.329 C  
BRANCH   4   6
HETATM    6  C   UNL     1     -11.794  13.764  67.967  1.00  0.00    -0.408 C  
BRANCH   6   7
HETATM    7  C   UNL     1     -11.632  13.395  66.509  1.00  0.00    -0.394 A  
HETATM    8  C   UNL     1     -12.383  14.049  65.522  1.00  0.00    -0.503 A  
HETATM    9  C   UNL     1     -12.321  13.629  64.194  1.00  0.00    -0.385 A  
HETATM   10  C   UNL     1     -11.497  12.564  63.836  1.00  0.00    -0.507 A  
HETATM   11  C   UNL     1     -10.718  11.931  64.802  1.00  0.00    -0.356 A  
HETATM   12  C   UNL     1     -10.781  12.346  66.133  1.00  0.00    -0.292 A  
ENDBRANCH   6   7
ENDBRANCH   4   6
ENDBRANCH   2   4
TORSDOF 3
ENDMDL
MODEL       69
REMARK 921   NORMALIZED FREE ENERGY PREDICTED BY IDOCK:   -3.38 KCAL/MOL
REMARK 922        TOTAL FREE ENERGY PREDICTED BY IDOCK:   -4.20 KCAL/MOL
REMARK 923 INTER-LIGAND FREE ENERGY PREDICTED BY IDOCK:   -3.99 KCAL/MOL
REMARK 924 INTRA-LIGAND FREE ENERGY PREDICTED BY IDOCK:   -0.21 KCAL/MOL
REMARK 927      BINDING AFFINITY PREDICTED BY RF-SCORE:    0.00 PKD
ROOT
HETATM    1  C   UNL     1      -7.323  17.133  66.203  1.00  0.00    -0.246 C  
HETATM    2  N   UNL     1      -8.422  17.593  67.042  1.00  0.00    -0.229 NA 
HETATM    3  H   UNL     1      -8.284  18.565  67.318  1.00  0.00     0.000 HD 
ENDROOT
BRANCH   2   4
HETATM    4  C   UNL     1      -9.745  17.407  66.419  1.00  0.00    -0.290 C  
HETATM    5  C   UNL     1     -10.494  18.740  66.272  1.00  0.00    -0.489 C  
BRANCH   4   6
HETATM    6  C   UNL     1     -10.554  16.400  67.282  1.00  0.00    -0.293 C  
BRANCH   6   7
HETATM    7  C   UNL     1     -11.030  15.196  66.499  1.00  0.00    -0.318 A  
HETATM    8  C   UNL     1     -11.139  15.253  65.103  1.00  0.00    -0.412 A  
HETATM    9  C   UNL     1     -11.688  14.186  64.393  1.00  0.00    -0.409 A  
HETATM   10  C   UNL     1     -12.118  13.046  65.069  1.00  0.00    -0.470 A  
HETATM   11  C   UNL     1     -11.980  12.963  66.453  1.00  0.00    -0.462 A  
HETATM   12  C   UNL     1     -11.435  14.031  67.166  1.00  0.00    -0.373 A  
ENDBRANCH   6   7
ENDBRANCH   4   6
ENDBRANCH   2   4
TORSDOF 3
ENDMDL
MODEL       70
REMARK 921   NORMALIZED FREE ENERGY PREDICTED BY IDOCK:   -3.37 KCAL/MOL
REMARK 922        TOTAL FREE ENERGY PREDICTED BY IDOCK:   -4.18 KCAL/MOL
REMARK 923 INTER-LIGAND FREE ENERGY PREDICTED BY IDOCK:   -4.00 KCAL/MOL
REMARK 924 INTRA-LIGAND FREE ENERGY PREDICTED BY IDOCK:   -0.18 KCAL/MOL
REMARK 927      BINDING AFFINITY PREDICTED BY RF-SCORE:    0.00 PKD
ROOT
HETATM    1  C   UNL     1     -12.380  13.181  70.756  1.00  0.00    -0.321 C  
HETATM    2  N   UNL     1     -11.536  12.198  70.090  1.00  0.00    -0.536 NA 
HETATM    3  H   UNL     1     -10.563  12.301  70.378  1.00  0.00     0.000 HD 
ENDROOT
BRANCH   2   4
HETATM    4  C   UNL     1     -11.996  10.810  70.285  1.00  0.00    -0.351 C  
HETATM    5  C   UNL     1     -12.864  10.672  71.545  1.00  0.00    -0.567 C  
BRANCH   4   6
HETATM    6  C   UNL     1     -10.749   9.888  70.356  1.00  0.00    -0.379 C  
BRANCH   6   7
HETATM    7  C   UNL     1     -10.897   8.624  69.537  1.00  0.00    -0.138 A  
HETATM    8  C   UNL     1     -11.254   7.416  70.152  1.00  0.00    -0.239 A  
HETATM    9  C   UNL     1     -11.276   6.230  69.420  1.00  0.00    -0.489 A  
HETATM   10  C   UNL     1     -10.958   6.242  68.063  1.00  0.00    -0.418 A  
HETATM   11  C   UNL     1     -10.637   7.443  67.433  1.00  0.00    -0.371 A  
HETATM   12  C   UNL     1     -10.611   8.630  68.165  1.00  0.00    -0.189 A  
ENDBRANCH   6   7
ENDBRANCH   4   6
ENDBRANCH   2   4
TORSDOF 3
ENDMDL
MODEL       71
REMARK 921   NORMALIZED FREE ENERGY PREDICTED BY IDOCK:   -3.33 KCAL/MOL
REMARK 922        TOTAL FREE ENERGY PREDICTED BY IDOCK:   -4.15 KCAL/MOL
REMARK 923 INTER-LIGAND FREE ENERGY PREDICTED BY IDOCK:   -3.93 KCAL/MOL
REMARK 924 INTRA-LIGAND FREE ENERGY PREDICTED BY IDOCK:   -0.22 KCAL/MOL
REMARK 927      BINDING AFFINITY PREDICTED BY RF-SCORE:    0.00 PKD
ROOT
HETATM    1  C   UNL     1     -10.502   8.676  66.989  1.00  0.00    -0.284 C  
HETATM    2  N   UNL     1     -11.079   8.750  68.324  1.00  0.00    -0.409 NA 
HETATM    3  H   UNL     1     -10.844   7.920  68.867  1.00  0.00     0.000 HD 
ENDROOT
BRANCH   2   4
HETATM    4  C   UNL     1     -10.706   9.976  69.052  1.00  0.00    -0.220 C  
HETATM    5  C   UNL     1     -10.051   9.655  70.404  1.00  0.00    -0.336 C  
BRANCH   4   6
HETATM    6  C   UNL     1     -11.982  10.843  69.237  1.00  0.00    -0.382 C  
BRANCH   6   7
HETATM    7  C   UNL     1     -11.806  12.268  68.760  1.00  0.00    -0.356 A  
HETATM    8  C   UNL     1     -11.790  13.328  69.677  1.00  0.00    -0.391 A  
HETATM    9  C   UNL     1     -11.747  14.648  69.230  1.00  0.00    -0.348 A  
HETATM   10  C   UNL     1     -11.701  14.921  67.865  1.00  0.00    -0.344 A  
HETATM   11  C   UNL     1     -11.679  13.874  66.945  1.00  0.00    -0.425 A  
HETATM   12  C   UNL     1     -11.727  12.553  67.389  1.00  0.00    -0.432 A  
ENDBRANCH   6   7
ENDBRANCH   4   6
ENDBRANCH   2   4
TORSDOF 3
ENDMDL
MODEL       72
REMARK 921   NORMALIZED FREE ENERGY PREDICTED BY IDOCK:   -3.30 KCAL/MOL
REMARK 922        TOTAL FREE ENERGY PREDICTED BY IDOCK:   -4.11 KCAL/MOL
REMARK 923 INTER-LIGAND FREE ENERGY PREDICTED BY IDOCK:   -4.11 KCAL/MOL
REMARK 924 INTRA-LIGAND FREE ENERGY PREDICTED BY IDOCK:    0.00 KCAL/MOL
REMARK 927      BINDING AFFINITY PREDICTED BY RF-SCORE:    0.00 PKD
ROOT
HETATM    1  C   UNL     1      -7.733  19.868  65.922  1.00  0.00    -0.315 C  
HETATM    2  N   UNL     1      -8.830  20.550  66.597  1.00  0.00    -0.564 NA 
HETATM    3  H   UNL     1      -9.597  20.731  65.950  1.00  0.00     0.000 HD 
ENDROOT
BRANCH   2   4
HETATM    4  C   UNL     1      -9.310  19.836  67.794  1.00  0.00    -0.344 C  
HETATM    5  C   UNL     1      -8.305  18.772  68.259  1.00  0.00    -0.360 C  
BRANCH   4   6
HETATM    6  C   UNL     1     -10.690  19.203  67.465  1.00  0.00    -0.555 C  
BRANCH   6   7
HETATM    7  C   UNL     1     -10.618  17.709  67.236  1.00  0.00    -0.297 A  
HETATM    8  C   UNL     1     -10.202  17.198  65.999  1.00  0.00    -0.332 A  
HETATM    9  C   UNL     1     -10.248  15.827  65.749  1.00  0.00    -0.394 A  
HETATM   10  C   UNL     1     -10.694  14.953  66.738  1.00  0.00    -0.312 A  
HETATM   11  C   UNL     1     -11.075  15.446  67.984  1.00  0.00    -0.312 A  
HETATM   12  C   UNL     1     -11.034  16.817  68.235  1.00  0.00    -0.327 A  
ENDBRANCH   6   7
ENDBRANCH   4   6
ENDBRANCH   2   4
TORSDOF 3
ENDMDL
MODEL       73
REMARK 921   NORMALIZED FREE ENERGY PREDICTED BY IDOCK:   -3.29 KCAL/MOL
REMARK 922        TOTAL FREE ENERGY PREDICTED BY IDOCK:   -4.10 KCAL/MOL
REMARK 923 INTER-LIGAND FREE ENERGY PREDICTED BY IDOCK:   -3.92 KCAL/MOL
REMARK 924 INTRA-LIGAND FREE ENERGY PREDICTED BY IDOCK:   -0.18 KCAL/MOL
REMARK 927      BINDING AFFINITY PREDICTED BY RF-SCORE:    0.00 PKD
ROOT
HETATM    1  C   UNL     1     -12.114  13.145  69.831  1.00  0.00    -0.287 C  
HETATM    2  N   UNL     1     -10.983  14.060  69.748  1.00  0.00    -0.459 NA 
HETATM    3  H   UNL     1     -10.482  13.938  68.868  1.00  0.00     0.000 HD 
ENDROOT
BRANCH   2   4
HETATM    4  C   UNL     1     -11.362  15.471  69.945  1.00  0.00    -0.314 C  
HETATM    5  C   UNL     1     -12.675  15.600  70.731  1.00  0.00    -0.483 C  
BRANCH   4   6
HETATM    6  C   UNL     1     -11.471  16.147  68.551  1.00  0.00    -0.324 C  
BRANCH   6   7
HETATM    7  C   UNL     1     -10.424  17.215  68.325  1.00  0.00    -0.373 A  
HETATM    8  C   UNL     1     -10.730  18.364  67.582  1.00  0.00    -0.390 A  
HETATM    9  C   UNL     1      -9.735  19.292  67.274  1.00  0.00    -0.409 A  
HETATM   10  C   UNL     1      -8.430  19.088  67.720  1.00  0.00    -0.323 A  
HETATM   11  C   UNL     1      -8.123  17.969  68.490  1.00  0.00    -0.306 A  
HETATM   12  C   UNL     1      -9.116  17.038  68.796  1.00  0.00    -0.252 A  
ENDBRANCH   6   7
ENDBRANCH   4   6
ENDBRANCH   2   4
TORSDOF 3
ENDMDL
MODEL       74
REMARK 921   NORMALIZED FREE ENERGY PREDICTED BY IDOCK:   -3.29 KCAL/MOL
REMARK 922        TOTAL FREE ENERGY PREDICTED BY IDOCK:   -4.10 KCAL/MOL
REMARK 923 INTER-LIGAND FREE ENERGY PREDICTED BY IDOCK:   -3.90 KCAL/MOL
REMARK 924 INTRA-LIGAND FREE ENERGY PREDICTED BY IDOCK:   -0.20 KCAL/MOL
REMARK 927      BINDING AFFINITY PREDICTED BY RF-SCORE:    0.00 PKD
ROOT
HETATM    1  C   UNL     1      -9.824  19.219  66.994  1.00  0.00    -0.340 C  
HETATM    2  N   UNL     1     -10.794  18.410  67.720  1.00  0.00    -0.328 NA 
HETATM    3  H   UNL     1     -11.541  18.098  67.100  1.00  0.00     0.000 HD 
ENDROOT
BRANCH   2   4
HETATM    4  C   UNL     1     -10.186  17.268  68.426  1.00  0.00    -0.358 C  
HETATM    5  C   UNL     1      -8.680  17.163  68.142  1.00  0.00    -0.232 C  
BRANCH   4   6
HETATM    6  C   UNL     1     -10.932  15.975  67.997  1.00  0.00    -0.341 C  
BRANCH   6   7
HETATM    7  C   UNL     1     -11.587  15.254  69.154  1.00  0.00    -0.349 A  
HETATM    8  C   UNL     1     -11.960  15.956  70.309  1.00  0.00    -0.324 A  
HETATM    9  C   UNL     1     -12.455  15.275  71.420  1.00  0.00    -0.428 A  
HETATM   10  C   UNL     1     -12.600  13.889  71.382  1.00  0.00    -0.444 A  
HETATM   11  C   UNL     1     -12.268  13.186  70.226  1.00  0.00    -0.376 A  
HETATM   12  C   UNL     1     -11.768  13.864  69.114  1.00  0.00    -0.382 A  
ENDBRANCH   6   7
ENDBRANCH   4   6
ENDBRANCH   2   4
TORSDOF 3
ENDMDL
MODEL       75
REMARK 921   NORMALIZED FREE ENERGY PREDICTED BY IDOCK:   -3.28 KCAL/MOL
REMARK 922        TOTAL FREE ENERGY PREDICTED BY IDOCK:   -4.09 KCAL/MOL
REMARK 923 INTER-LIGAND FREE ENERGY PREDICTED BY IDOCK:   -3.92 KCAL/MOL
REMARK 924 INTRA-LIGAND FREE ENERGY PREDICTED BY IDOCK:   -0.17 KCAL/MOL
REMARK 927      BINDING AFFINITY PREDICTED BY RF-SCORE:    0.00 PKD
ROOT
HETATM    1  C   UNL     1      -7.791   8.686  62.964  1.00  0.00    -0.145 C  
HETATM    2  N   UNL     1      -9.050   9.282  63.390  1.00  0.00    -0.410 NA 
HETATM    3  H   UNL     1      -9.710   8.563  63.685  1.00  0.00     0.000 HD 
ENDROOT
BRANCH   2   4
HETATM    4  C   UNL     1      -8.885  10.304  64.440  1.00  0.00    -0.209 C  
HETATM    5  C   UNL     1      -7.655  10.021  65.317  1.00  0.00    -0.137 C  
BRANCH   4   6
HETATM    6  C   UNL     1     -10.184  10.346  65.290  1.00  0.00    -0.332 C  
BRANCH   6   7
HETATM    7  C   UNL     1     -10.969  11.627  65.111  1.00  0.00    -0.326 A  
HETATM    8  C   UNL     1     -11.446  12.330  66.226  1.00  0.00    -0.435 A  
HETATM    9  C   UNL     1     -12.268  13.444  66.060  1.00  0.00    -0.491 A  
HETATM   10  C   UNL     1     -12.607  13.876  64.780  1.00  0.00    -0.329 A  
HETATM   11  C   UNL     1     -12.108  13.208  63.664  1.00  0.00    -0.583 A  
HETATM   12  C   UNL     1     -11.289  12.090  63.827  1.00  0.00    -0.526 A  
ENDBRANCH   6   7
ENDBRANCH   4   6
ENDBRANCH   2   4
TORSDOF 3
ENDMDL
MODEL       76
REMARK 921   NORMALIZED FREE ENERGY PREDICTED BY IDOCK:   -3.28 KCAL/MOL
REMARK 922        TOTAL FREE ENERGY PREDICTED BY IDOCK:   -4.08 KCAL/MOL
REMARK 923 INTER-LIGAND FREE ENERGY PREDICTED BY IDOCK:   -3.87 KCAL/MOL
REMARK 924 INTRA-LIGAND FREE ENERGY PREDICTED BY IDOCK:   -0.21 KCAL/MOL
REMARK 927      BINDING AFFINITY PREDICTED BY RF-SCORE:    0.00 PKD
ROOT
HETATM    1  C   UNL     1     -11.096   5.842  69.789  1.00  0.00    -0.352 C  
HETATM    2  N   UNL     1     -12.114   6.875  69.923  1.00  0.00    -0.600 NA 
HETATM    3  H   UNL     1     -12.920   6.668  69.334  1.00  0.00     0.000 HD 
ENDROOT
BRANCH   2   4
HETATM    4  C   UNL     1     -12.530   7.105  71.319  1.00  0.00    -0.386 C  
HETATM    5  C   UNL     1     -14.040   7.365  71.424  1.00  0.00    -0.491 C  
BRANCH   4   6
HETATM    6  C   UNL     1     -11.713   8.298  71.882  1.00  0.00    -0.381 C  
BRANCH   6   7
HETATM    7  C   UNL     1     -10.515   7.866  72.699  1.00  0.00    -0.384 A  
HETATM    8  C   UNL     1      -9.237   8.361  72.404  1.00  0.00    -0.345 A  
HETATM    9  C   UNL     1      -8.118   7.874  73.079  1.00  0.00    -0.197 A  
HETATM   10  C   UNL     1      -8.267   6.901  74.065  1.00  0.00    -0.151 A  
HETATM   11  C   UNL     1      -9.536   6.429  74.393  1.00  0.00    -0.254 A  
HETATM   12  C   UNL     1     -10.657   6.911  73.716  1.00  0.00    -0.333 A  
ENDBRANCH   6   7
ENDBRANCH   4   6
ENDBRANCH   2   4
TORSDOF 3
ENDMDL
MODEL       77
REMARK 921   NORMALIZED FREE ENERGY PREDICTED BY IDOCK:   -3.27 KCAL/MOL
REMARK 922        TOTAL FREE ENERGY PREDICTED BY IDOCK:   -4.07 KCAL/MOL
REMARK 923 INTER-LIGAND FREE ENERGY PREDICTED BY IDOCK:   -3.99 KCAL/MOL
REMARK 924 INTRA-LIGAND FREE ENERGY PREDICTED BY IDOCK:   -0.08 KCAL/MOL
REMARK 927      BINDING AFFINITY PREDICTED BY RF-SCORE:    0.00 PKD
ROOT
HETATM    1  C   UNL     1     -10.097   4.693  66.195  1.00  0.00    -0.266 C  
HETATM    2  N   UNL     1     -11.156   5.684  66.336  1.00  0.00    -0.758 NA 
HETATM    3  H   UNL     1     -12.043   5.236  66.566  1.00  0.00     0.000 HD 
ENDROOT
BRANCH   2   4
HETATM    4  C   UNL     1     -10.836   6.743  67.310  1.00  0.00    -0.373 C  
HETATM    5  C   UNL     1      -9.627   7.578  66.863  1.00  0.00    -0.242 C  
BRANCH   4   6
HETATM    6  C   UNL     1     -10.581   6.077  68.690  1.00  0.00    -0.327 C  
BRANCH   6   7
HETATM    7  C   UNL     1     -10.983   6.953  69.856  1.00  0.00    -0.318 A  
HETATM    8  C   UNL     1     -10.170   8.024  70.254  1.00  0.00    -0.200 A  
HETATM    9  C   UNL     1     -10.479   8.758  71.399  1.00  0.00    -0.354 A  
HETATM   10  C   UNL     1     -11.611   8.440  72.146  1.00  0.00    -0.442 A  
HETATM   11  C   UNL     1     -12.446   7.402  71.740  1.00  0.00    -0.367 A  
HETATM   12  C   UNL     1     -12.137   6.663  70.597  1.00  0.00    -0.342 A  
ENDBRANCH   6   7
ENDBRANCH   4   6
ENDBRANCH   2   4
TORSDOF 3
ENDMDL
MODEL       78
REMARK 921   NORMALIZED FREE ENERGY PREDICTED BY IDOCK:   -3.26 KCAL/MOL
REMARK 922        TOTAL FREE ENERGY PREDICTED BY IDOCK:   -4.06 KCAL/MOL
REMARK 923 INTER-LIGAND FREE ENERGY PREDICTED BY IDOCK:   -3.84 KCAL/MOL
REMARK 924 INTRA-LIGAND FREE ENERGY PREDICTED BY IDOCK:   -0.22 KCAL/MOL
REMARK 927      BINDING AFFINITY PREDICTED BY RF-SCORE:    0.00 PKD
ROOT
HETATM    1  C   UNL     1      -9.352   4.322  68.015  1.00  0.00    -0.152 C  
HETATM    2  N   UNL     1      -9.809   4.689  69.349  1.00  0.00    -0.206 NA 
HETATM    3  H   UNL     1      -9.020   4.925  69.950  1.00  0.00     0.000 HD 
ENDROOT
BRANCH   2   4
HETATM    4  C   UNL     1     -10.807   5.774  69.343  1.00  0.00    -0.323 C  
HETATM    5  C   UNL     1     -11.011   6.350  67.934  1.00  0.00    -0.416 C  
BRANCH   4   6
HETATM    6  C   UNL     1     -10.342   6.871  70.338  1.00  0.00    -0.221 C  
BRANCH   6   7
HETATM    7  C   UNL     1     -11.474   7.743  70.834  1.00  0.00    -0.294 A  
HETATM    8  C   UNL     1     -11.292   9.125  70.990  1.00  0.00    -0.377 A  
HETATM    9  C   UNL     1     -12.295   9.910  71.556  1.00  0.00    -0.504 A  
HETATM   10  C   UNL     1     -13.495   9.326  71.957  1.00  0.00    -0.519 A  
HETATM   11  C   UNL     1     -13.702   7.961  71.772  1.00  0.00    -0.417 A  
HETATM   12  C   UNL     1     -12.698   7.172  71.210  1.00  0.00    -0.412 A  
ENDBRANCH   6   7
ENDBRANCH   4   6
ENDBRANCH   2   4
TORSDOF 3
ENDMDL
MODEL       79
REMARK 921   NORMALIZED FREE ENERGY PREDICTED BY IDOCK:   -3.25 KCAL/MOL
REMARK 922        TOTAL FREE ENERGY PREDICTED BY IDOCK:   -4.05 KCAL/MOL
REMARK 923 INTER-LIGAND FREE ENERGY PREDICTED BY IDOCK:   -3.86 KCAL/MOL
REMARK 924 INTRA-LIGAND FREE ENERGY PREDICTED BY IDOCK:   -0.19 KCAL/MOL
REMARK 927      BINDING AFFINITY PREDICTED BY RF-SCORE:    0.00 PKD
ROOT
HETATM    1  C   UNL     1     -12.671  13.154  70.986  1.00  0.00    -0.277 C  
HETATM    2  N   UNL     1     -11.650  13.182  69.948  1.00  0.00    -0.501 NA 
HETATM    3  H   UNL     1     -11.993  12.750  69.090  1.00  0.00     0.000 HD 
ENDROOT
BRANCH   2   4
HETATM    4  C   UNL     1     -11.129  14.536  69.680  1.00  0.00    -0.228 C  
HETATM    5  C   UNL     1     -11.176  15.419  70.937  1.00  0.00    -0.397 C  
BRANCH   4   6
HETATM    6  C   UNL     1     -11.957  15.158  68.523  1.00  0.00    -0.243 C  
BRANCH   6   7
HETATM    7  C   UNL     1     -11.605  14.587  67.167  1.00  0.00    -0.406 A  
HETATM    8  C   UNL     1     -12.519  13.777  66.478  1.00  0.00    -0.356 A  
HETATM    9  C   UNL     1     -12.152  13.156  65.285  1.00  0.00    -0.471 A  
HETATM   10  C   UNL     1     -10.876  13.351  64.760  1.00  0.00    -0.387 A  
HETATM   11  C   UNL     1      -9.972  14.183  65.417  1.00  0.00    -0.321 A  
HETATM   12  C   UNL     1     -10.335  14.803  66.614  1.00  0.00    -0.273 A  
ENDBRANCH   6   7
ENDBRANCH   4   6
ENDBRANCH   2   4
TORSDOF 3
ENDMDL
MODEL       80
REMARK 921   NORMALIZED FREE ENERGY PREDICTED BY IDOCK:   -3.24 KCAL/MOL
REMARK 922        TOTAL FREE ENERGY PREDICTED BY IDOCK:   -4.04 KCAL/MOL
REMARK 923 INTER-LIGAND FREE ENERGY PREDICTED BY IDOCK:   -3.90 KCAL/MOL
REMARK 924 INTRA-LIGAND FREE ENERGY PREDICTED BY IDOCK:   -0.14 KCAL/MOL
REMARK 927      BINDING AFFINITY PREDICTED BY RF-SCORE:    0.00 PKD
ROOT
HETATM    1  C   UNL     1     -11.127  11.925  65.436  1.00  0.00    -0.306 C  
HETATM    2  N   UNL     1     -12.163  12.560  66.241  1.00  0.00    -0.584 NA 
HETATM    3  H   UNL     1     -12.190  12.158  67.178  1.00  0.00     0.000 HD 
ENDROOT
BRANCH   2   4
HETATM    4  C   UNL     1     -12.033  14.027  66.304  1.00  0.00    -0.432 C  
HETATM    5  C   UNL     1     -11.969  14.650  64.901  1.00  0.00    -0.402 C  
BRANCH   4   6
HETATM    6  C   UNL     1     -10.765  14.371  67.131  1.00  0.00    -0.283 C  
BRANCH   6   7
HETATM    7  C   UNL     1     -11.082  14.864  68.527  1.00  0.00    -0.275 A  
HETATM    8  C   UNL     1     -12.153  14.318  69.247  1.00  0.00    -0.351 A  
HETATM    9  C   UNL     1     -12.518  14.851  70.483  1.00  0.00    -0.419 A  
HETATM   10  C   UNL     1     -11.805  15.923  71.018  1.00  0.00    -0.468 A  
HETATM   11  C   UNL     1     -10.716  16.449  70.328  1.00  0.00    -0.138 A  
HETATM   12  C   UNL     1     -10.351  15.920  69.089  1.00  0.00    -0.237 A  
ENDBRANCH   6   7
ENDBRANCH   4   6
ENDBRANCH   2   4
TORSDOF 3
ENDMDL
MODEL       81
REMARK 921   NORMALIZED FREE ENERGY PREDICTED BY IDOCK:   -3.23 KCAL/MOL
REMARK 922        TOTAL FREE ENERGY PREDICTED BY IDOCK:   -4.02 KCAL/MOL
REMARK 923 INTER-LIGAND FREE ENERGY PREDICTED BY IDOCK:   -3.80 KCAL/MOL
REMARK 924 INTRA-LIGAND FREE ENERGY PREDICTED BY IDOCK:   -0.22 KCAL/MOL
REMARK 927      BINDING AFFINITY PREDICTED BY RF-SCORE:    0.00 PKD
ROOT
HETATM    1  C   UNL     1      -7.417   8.058  71.817  1.00  0.00    -0.081 C  
HETATM    2  N   UNL     1      -7.957   8.534  73.084  1.00  0.00    -0.390 NA 
HETATM    3  H   UNL     1      -7.937   9.552  73.126  1.00  0.00     0.000 HD 
ENDROOT
BRANCH   2   4
HETATM    4  C   UNL     1      -9.311   8.023  73.367  1.00  0.00    -0.254 C  
HETATM    5  C   UNL     1      -9.269   6.757  74.235  1.00  0.00    -0.246 C  
BRANCH   4   6
HETATM    6  C   UNL     1     -10.025   7.755  72.014  1.00  0.00    -0.231 C  
BRANCH   6   7
HETATM    7  C   UNL     1     -11.082   8.787  71.685  1.00  0.00    -0.398 A  
HETATM    8  C   UNL     1     -12.362   8.699  72.250  1.00  0.00    -0.449 A  
HETATM    9  C   UNL     1     -13.369   9.579  71.858  1.00  0.00    -0.518 A  
HETATM   10  C   UNL     1     -13.103  10.566  70.911  1.00  0.00    -0.390 A  
HETATM   11  C   UNL     1     -11.825  10.687  70.370  1.00  0.00    -0.441 A  
HETATM   12  C   UNL     1     -10.816   9.805  70.758  1.00  0.00    -0.403 A  
ENDBRANCH   6   7
ENDBRANCH   4   6
ENDBRANCH   2   4
TORSDOF 3
ENDMDL
MODEL       82
REMARK 921   NORMALIZED FREE ENERGY PREDICTED BY IDOCK:   -3.23 KCAL/MOL
REMARK 922        TOTAL FREE ENERGY PREDICTED BY IDOCK:   -4.02 KCAL/MOL
REMARK 923 INTER-LIGAND FREE ENERGY PREDICTED BY IDOCK:   -3.93 KCAL/MOL
REMARK 924 INTRA-LIGAND FREE ENERGY PREDICTED BY IDOCK:   -0.10 KCAL/MOL
REMARK 927      BINDING AFFINITY PREDICTED BY RF-SCORE:    0.00 PKD
ROOT
HETATM    1  C   UNL     1      -8.234  10.257  65.643  1.00  0.00    -0.153 C  
HETATM    2  N   UNL     1      -8.719  11.154  64.603  1.00  0.00    -0.375 NA 
HETATM    3  H   UNL     1      -7.958  11.445  63.990  1.00  0.00     0.000 HD 
ENDROOT
BRANCH   2   4
HETATM    4  C   UNL     1      -9.835  10.590  63.822  1.00  0.00    -0.300 C  
HETATM    5  C   UNL     1      -9.342   9.922  62.530  1.00  0.00    -0.263 C  
BRANCH   4   6
HETATM    6  C   UNL     1     -10.844  11.731  63.517  1.00  0.00    -0.496 C  
BRANCH   6   7
HETATM    7  C   UNL     1     -11.061  12.662  64.689  1.00  0.00    -0.348 A  
HETATM    8  C   UNL     1     -11.735  12.217  65.835  1.00  0.00    -0.451 A  
HETATM    9  C   UNL     1     -12.038  13.106  66.866  1.00  0.00    -0.377 A  
HETATM   10  C   UNL     1     -11.656  14.443  66.769  1.00  0.00    -0.399 A  
HETATM   11  C   UNL     1     -10.954  14.888  65.651  1.00  0.00    -0.347 A  
HETATM   12  C   UNL     1     -10.653  14.002  64.617  1.00  0.00    -0.416 A  
ENDBRANCH   6   7
ENDBRANCH   4   6
ENDBRANCH   2   4
TORSDOF 3
ENDMDL
MODEL       83
REMARK 921   NORMALIZED FREE ENERGY PREDICTED BY IDOCK:   -3.23 KCAL/MOL
REMARK 922        TOTAL FREE ENERGY PREDICTED BY IDOCK:   -4.02 KCAL/MOL
REMARK 923 INTER-LIGAND FREE ENERGY PREDICTED BY IDOCK:   -3.90 KCAL/MOL
REMARK 924 INTRA-LIGAND FREE ENERGY PREDICTED BY IDOCK:   -0.12 KCAL/MOL
REMARK 927      BINDING AFFINITY PREDICTED BY RF-SCORE:    0.00 PKD
ROOT
HETATM    1  C   UNL     1     -11.117   9.929  68.692  1.00  0.00    -0.134 C  
HETATM    2  N   UNL     1     -11.899  10.950  68.007  1.00  0.00    -0.759 NA 
HETATM    3  H   UNL     1     -12.547  11.403  68.652  1.00  0.00     0.000 HD 
ENDROOT
BRANCH   2   4
HETATM    4  C   UNL     1     -11.069  11.950  67.311  1.00  0.00    -0.288 C  
HETATM    5  C   UNL     1     -11.127  13.318  68.006  1.00  0.00    -0.282 C  
BRANCH   4   6
HETATM    6  C   UNL     1     -11.552  12.046  65.838  1.00  0.00    -0.364 C  
BRANCH   6   7
HETATM    7  C   UNL     1     -10.658  11.303  64.870  1.00  0.00    -0.364 A  
HETATM    8  C   UNL     1     -10.003  10.128  65.264  1.00  0.00    -0.381 A  
HETATM    9  C   UNL     1      -9.089   9.509  64.413  1.00  0.00    -0.234 A  
HETATM   10  C   UNL     1      -8.833  10.048  63.154  1.00  0.00    -0.244 A  
HETATM   11  C   UNL     1      -9.505  11.194  62.736  1.00  0.00    -0.357 A  
HETATM   12  C   UNL     1     -10.417  11.818  63.588  1.00  0.00    -0.490 A  
ENDBRANCH   6   7
ENDBRANCH   4   6
ENDBRANCH   2   4
TORSDOF 3
ENDMDL
MODEL       84
REMARK 921   NORMALIZED FREE ENERGY PREDICTED BY IDOCK:   -3.22 KCAL/MOL
REMARK 922        TOTAL FREE ENERGY PREDICTED BY IDOCK:   -4.02 KCAL/MOL
REMARK 923 INTER-LIGAND FREE ENERGY PREDICTED BY IDOCK:   -3.81 KCAL/MOL
REMARK 924 INTRA-LIGAND FREE ENERGY PREDICTED BY IDOCK:   -0.21 KCAL/MOL
REMARK 927      BINDING AFFINITY PREDICTED BY RF-SCORE:    0.00 PKD
ROOT
HETATM    1  C   UNL     1      -9.869   4.093  65.035  1.00  0.00    -0.201 C  
HETATM    2  N   UNL     1     -10.937   4.813  65.716  1.00  0.00    -0.852 NA 
HETATM    3  H   UNL     1     -11.659   4.169  66.038  1.00  0.00     0.000 HD 
ENDROOT
BRANCH   2   4
HETATM    4  C   UNL     1     -10.455   5.657  66.824  1.00  0.00    -0.291 C  
HETATM    5  C   UNL     1      -9.295   6.563  66.383  1.00  0.00    -0.175 C  
BRANCH   4   6
HETATM    6  C   UNL     1     -10.032   4.731  67.996  1.00  0.00    -0.154 C  
BRANCH   6   7
HETATM    7  C   UNL     1     -10.409   5.282  69.354  1.00  0.00    -0.313 A  
HETATM    8  C   UNL     1      -9.834   4.755  70.520  1.00  0.00    -0.301 A  
HETATM    9  C   UNL     1     -10.267   5.180  71.775  1.00  0.00    -0.271 A  
HETATM   10  C   UNL     1     -11.264   6.147  71.878  1.00  0.00    -0.336 A  
HETATM   11  C   UNL     1     -11.816   6.705  70.727  1.00  0.00    -0.441 A  
HETATM   12  C   UNL     1     -11.389   6.278  69.470  1.00  0.00    -0.475 A  
ENDBRANCH   6   7
ENDBRANCH   4   6
ENDBRANCH   2   4
TORSDOF 3
ENDMDL
MODEL       85
REMARK 921   NORMALIZED FREE ENERGY PREDICTED BY IDOCK:   -3.21 KCAL/MOL
REMARK 922        TOTAL FREE ENERGY PREDICTED BY IDOCK:   -4.00 KCAL/MOL
REMARK 923 INTER-LIGAND FREE ENERGY PREDICTED BY IDOCK:   -3.82 KCAL/MOL
REMARK 924 INTRA-LIGAND FREE ENERGY PREDICTED BY IDOCK:   -0.18 KCAL/MOL
REMARK 927      BINDING AFFINITY PREDICTED BY RF-SCORE:    0.00 PKD
ROOT
HETATM    1  C   UNL     1     -10.180  15.583  65.935  1.00  0.00    -0.345 C  
HETATM    2  N   UNL     1     -10.015  14.167  65.633  1.00  0.00    -0.432 NA 
HETATM    3  H   UNL     1      -9.957  13.618  66.491  1.00  0.00     0.000 HD 
ENDROOT
BRANCH   2   4
HETATM    4  C   UNL     1     -11.063  13.636  64.742  1.00  0.00    -0.370 C  
HETATM    5  C   UNL     1     -12.338  14.491  64.795  1.00  0.00    -0.403 C  
BRANCH   4   6
HETATM    6  C   UNL     1     -11.352  12.166  65.149  1.00  0.00    -0.379 C  
BRANCH   6   7
HETATM    7  C   UNL     1     -10.359  11.183  64.570  1.00  0.00    -0.400 A  
HETATM    8  C   UNL     1     -10.021  11.230  63.210  1.00  0.00    -0.428 A  
HETATM    9  C   UNL     1      -9.198  10.253  62.652  1.00  0.00    -0.318 A  
HETATM   10  C   UNL     1      -8.690   9.230  63.451  1.00  0.00    -0.193 A  
HETATM   11  C   UNL     1      -8.989   9.194  64.811  1.00  0.00    -0.177 A  
HETATM   12  C   UNL     1      -9.816  10.168  65.371  1.00  0.00    -0.375 A  
ENDBRANCH   6   7
ENDBRANCH   4   6
ENDBRANCH   2   4
TORSDOF 3
ENDMDL
MODEL       86
REMARK 921   NORMALIZED FREE ENERGY PREDICTED BY IDOCK:   -3.20 KCAL/MOL
REMARK 922        TOTAL FREE ENERGY PREDICTED BY IDOCK:   -3.99 KCAL/MOL
REMARK 923 INTER-LIGAND FREE ENERGY PREDICTED BY IDOCK:   -3.81 KCAL/MOL
REMARK 924 INTRA-LIGAND FREE ENERGY PREDICTED BY IDOCK:   -0.18 KCAL/MOL
REMARK 927      BINDING AFFINITY PREDICTED BY RF-SCORE:    0.00 PKD
ROOT
HETATM    1  C   UNL     1     -11.902  11.784  68.888  1.00  0.00    -0.320 C  
HETATM    2  N   UNL     1     -11.836  10.503  68.197  1.00  0.00    -0.774 NA 
HETATM    3  H   UNL     1     -12.245  10.572  67.265  1.00  0.00     0.000 HD 
ENDROOT
BRANCH   2   4
HETATM    4  C   UNL     1     -10.472   9.947  68.130  1.00  0.00    -0.215 C  
HETATM    5  C   UNL     1      -9.806  10.242  66.778  1.00  0.00    -0.246 C  
BRANCH   4   6
HETATM    6  C   UNL     1     -10.554   8.419  68.396  1.00  0.00    -0.155 C  
BRANCH   6   7
HETATM    7  C   UNL     1     -10.680   8.077  69.864  1.00  0.00    -0.242 A  
HETATM    8  C   UNL     1     -11.320   6.896  70.267  1.00  0.00    -0.373 A  
HETATM    9  C   UNL     1     -11.540   6.638  71.620  1.00  0.00    -0.350 A  
HETATM   10  C   UNL     1     -11.108   7.548  72.582  1.00  0.00    -0.398 A  
HETATM   11  C   UNL     1     -10.438   8.707  72.196  1.00  0.00    -0.411 A  
HETATM   12  C   UNL     1     -10.220   8.969  70.843  1.00  0.00    -0.324 A  
ENDBRANCH   6   7
ENDBRANCH   4   6
ENDBRANCH   2   4
TORSDOF 3
ENDMDL
MODEL       87
REMARK 921   NORMALIZED FREE ENERGY PREDICTED BY IDOCK:   -3.20 KCAL/MOL
REMARK 922        TOTAL FREE ENERGY PREDICTED BY IDOCK:   -3.98 KCAL/MOL
REMARK 923 INTER-LIGAND FREE ENERGY PREDICTED BY IDOCK:   -3.90 KCAL/MOL
REMARK 924 INTRA-LIGAND FREE ENERGY PREDICTED BY IDOCK:   -0.08 KCAL/MOL
REMARK 927      BINDING AFFINITY PREDICTED BY RF-SCORE:    0.00 PKD
ROOT
HETATM    1  C   UNL     1      -9.904  17.098  66.711  1.00  0.00    -0.285 C  
HETATM    2  N   UNL     1     -10.070  16.427  65.429  1.00  0.00    -0.563 NA 
HETATM    3  H   UNL     1      -9.192  16.416  64.909  1.00  0.00     0.000 HD 
ENDROOT
BRANCH   2   4
HETATM    4  C   UNL     1     -10.623  15.065  65.552  1.00  0.00    -0.363 C  
HETATM    5  C   UNL     1     -11.695  14.791  64.487  1.00  0.00    -0.398 C  
BRANCH   4   6
HETATM    6  C   UNL     1     -11.197  14.899  66.985  1.00  0.00    -0.344 C  
BRANCH   6   7
HETATM    7  C   UNL     1     -11.268  13.456  67.433  1.00  0.00    -0.311 A  
HETATM    8  C   UNL     1     -11.910  13.115  68.632  1.00  0.00    -0.363 A  
HETATM    9  C   UNL     1     -11.875  11.803  69.104  1.00  0.00    -0.389 A  
HETATM   10  C   UNL     1     -11.213  10.817  68.374  1.00  0.00    -0.345 A  
HETATM   11  C   UNL     1     -10.604  11.138  67.163  1.00  0.00    -0.286 A  
HETATM   12  C   UNL     1     -10.634  12.450  66.691  1.00  0.00    -0.256 A  
ENDBRANCH   6   7
ENDBRANCH   4   6
ENDBRANCH   2   4
TORSDOF 3
ENDMDL
MODEL       88
REMARK 921   NORMALIZED FREE ENERGY PREDICTED BY IDOCK:   -3.17 KCAL/MOL
REMARK 922        TOTAL FREE ENERGY PREDICTED BY IDOCK:   -3.96 KCAL/MOL
REMARK 923 INTER-LIGAND FREE ENERGY PREDICTED BY IDOCK:   -3.73 KCAL/MOL
REMARK 924 INTRA-LIGAND FREE ENERGY PREDICTED BY IDOCK:   -0.22 KCAL/MOL
REMARK 927      BINDING AFFINITY PREDICTED BY RF-SCORE:    0.00 PKD
ROOT
HETATM    1  C   UNL     1      -7.016  10.434  66.151  1.00  0.00    -0.126 C  
HETATM    2  N   UNL     1      -7.435  11.744  66.632  1.00  0.00    -0.343 NA 
HETATM    3  H   UNL     1      -7.409  12.431  65.879  1.00  0.00     0.000 HD 
ENDROOT
BRANCH   2   4
HETATM    4  C   UNL     1      -8.757  11.729  67.284  1.00  0.00    -0.163 C  
HETATM    5  C   UNL     1      -8.653  11.340  68.766  1.00  0.00    -0.109 C  
BRANCH   4   6
HETATM    6  C   UNL     1      -9.674  10.745  66.507  1.00  0.00    -0.236 C  
BRANCH   6   7
HETATM    7  C   UNL     1     -10.569  11.435  65.501  1.00  0.00    -0.328 A  
HETATM    8  C   UNL     1     -11.604  12.277  65.930  1.00  0.00    -0.450 A  
HETATM    9  C   UNL     1     -12.501  12.818  65.011  1.00  0.00    -0.572 A  
HETATM   10  C   UNL     1     -12.362  12.539  63.653  1.00  0.00    -0.618 A  
HETATM   11  C   UNL     1     -11.314  11.734  63.211  1.00  0.00    -0.347 A  
HETATM   12  C   UNL     1     -10.418  11.187  64.129  1.00  0.00    -0.442 A  
ENDBRANCH   6   7
ENDBRANCH   4   6
ENDBRANCH   2   4
TORSDOF 3
ENDMDL
MODEL       89
REMARK 921   NORMALIZED FREE ENERGY PREDICTED BY IDOCK:   -3.16 KCAL/MOL
REMARK 922        TOTAL FREE ENERGY PREDICTED BY IDOCK:   -3.94 KCAL/MOL
REMARK 923 INTER-LIGAND FREE ENERGY PREDICTED BY IDOCK:   -3.83 KCAL/MOL
REMARK 924 INTRA-LIGAND FREE ENERGY PREDICTED BY IDOCK:   -0.11 KCAL/MOL
REMARK 927      BINDING AFFINITY PREDICTED BY RF-SCORE:    0.00 PKD
ROOT
HETATM    1  C   UNL     1     -11.046   6.021  69.807  1.00  0.00    -0.406 C  
HETATM    2  N   UNL     1     -12.063   7.060  69.903  1.00  0.00    -0.514 NA 
HETATM    3  H   UNL     1     -12.887   6.813  69.355  1.00  0.00     0.000 HD 
ENDROOT
BRANCH   2   4
HETATM    4  C   UNL     1     -12.436   7.382  71.293  1.00  0.00    -0.346 C  
HETATM    5  C   UNL     1     -13.954   7.558  71.446  1.00  0.00    -0.468 C  
BRANCH   4   6
HETATM    6  C   UNL     1     -11.675   8.668  71.717  1.00  0.00    -0.400 C  
BRANCH   6   7
HETATM    7  C   UNL     1     -10.251   8.399  72.152  1.00  0.00    -0.390 A  
HETATM    8  C   UNL     1      -9.987   7.786  73.384  1.00  0.00    -0.348 A  
HETATM    9  C   UNL     1      -8.676   7.644  73.837  1.00  0.00    -0.302 A  
HETATM   10  C   UNL     1      -7.616   8.099  73.056  1.00  0.00    -0.187 A  
HETATM   11  C   UNL     1      -7.863   8.676  71.812  1.00  0.00    -0.138 A  
HETATM   12  C   UNL     1      -9.174   8.823  71.359  1.00  0.00    -0.325 A  
ENDBRANCH   6   7
ENDBRANCH   4   6
ENDBRANCH   2   4
TORSDOF 3
ENDMDL
MODEL       90
REMARK 921   NORMALIZED FREE ENERGY PREDICTED BY IDOCK:   -3.14 KCAL/MOL
REMARK 922        TOTAL FREE ENERGY PREDICTED BY IDOCK:   -3.92 KCAL/MOL
REMARK 923 INTER-LIGAND FREE ENERGY PREDICTED BY IDOCK:   -3.76 KCAL/MOL
REMARK 924 INTRA-LIGAND FREE ENERGY PREDICTED BY IDOCK:   -0.16 KCAL/MOL
REMARK 927      BINDING AFFINITY PREDICTED BY RF-SCORE:    0.00 PKD
ROOT
HETATM    1  C   UNL     1     -10.093   5.525  68.800  1.00  0.00    -0.191 C  
HETATM    2  N   UNL     1     -10.944   5.705  69.969  1.00  0.00    -0.305 NA 
HETATM    3  H   UNL     1     -11.366   4.820  70.250  1.00  0.00     0.000 HD 
ENDROOT
BRANCH   2   4
HETATM    4  C   UNL     1     -10.248   6.339  71.104  1.00  0.00    -0.198 C  
HETATM    5  C   UNL     1      -9.368   5.332  71.860  1.00  0.00    -0.167 C  
BRANCH   4   6
HETATM    6  C   UNL     1     -11.313   6.971  72.040  1.00  0.00    -0.300 C  
BRANCH   6   7
HETATM    7  C   UNL     1     -11.739   8.356  71.606  1.00  0.00    -0.354 A  
HETATM    8  C   UNL     1     -10.935   9.108  70.737  1.00  0.00    -0.332 A  
HETATM    9  C   UNL     1     -11.268  10.426  70.431  1.00  0.00    -0.399 A  
HETATM   10  C   UNL     1     -12.414  11.001  70.975  1.00  0.00    -0.512 A  
HETATM   11  C   UNL     1     -13.241  10.252  71.809  1.00  0.00    -0.534 A  
HETATM   12  C   UNL     1     -12.908   8.933  72.121  1.00  0.00    -0.471 A  
ENDBRANCH   6   7
ENDBRANCH   4   6
ENDBRANCH   2   4
TORSDOF 3
ENDMDL
MODEL       91
REMARK 921   NORMALIZED FREE ENERGY PREDICTED BY IDOCK:   -3.14 KCAL/MOL
REMARK 922        TOTAL FREE ENERGY PREDICTED BY IDOCK:   -3.92 KCAL/MOL
REMARK 923 INTER-LIGAND FREE ENERGY PREDICTED BY IDOCK:   -3.67 KCAL/MOL
REMARK 924 INTRA-LIGAND FREE ENERGY PREDICTED BY IDOCK:   -0.25 KCAL/MOL
REMARK 927      BINDING AFFINITY PREDICTED BY RF-SCORE:    0.00 PKD
ROOT
HETATM    1  C   UNL     1     -12.873  11.042  71.477  1.00  0.00    -0.450 C  
HETATM    2  N   UNL     1     -13.474   9.975  70.687  1.00  0.00    -0.529 NA 
HETATM    3  H   UNL     1     -13.192  10.046  69.710  1.00  0.00     0.000 HD 
ENDROOT
BRANCH   2   4
HETATM    4  C   UNL     1     -13.192   8.629  71.218  1.00  0.00    -0.148 C  
HETATM    5  C   UNL     1     -14.290   8.160  72.185  1.00  0.00    -0.469 C  
BRANCH   4   6
HETATM    6  C   UNL     1     -11.804   8.659  71.914  1.00  0.00    -0.420 C  
BRANCH   6   7
HETATM    7  C   UNL     1     -11.134   7.303  71.963  1.00  0.00    -0.277 A  
HETATM    8  C   UNL     1     -10.763   6.650  70.780  1.00  0.00    -0.282 A  
HETATM    9  C   UNL     1     -10.254   5.353  70.818  1.00  0.00    -0.313 A  
HETATM   10  C   UNL     1     -10.095   4.702  72.040  1.00  0.00    -0.262 A  
HETATM   11  C   UNL     1     -10.426   5.355  73.226  1.00  0.00    -0.260 A  
HETATM   12  C   UNL     1     -10.939   6.652  73.190  1.00  0.00    -0.263 A  
ENDBRANCH   6   7
ENDBRANCH   4   6
ENDBRANCH   2   4
TORSDOF 3
ENDMDL
MODEL       92
REMARK 921   NORMALIZED FREE ENERGY PREDICTED BY IDOCK:   -3.13 KCAL/MOL
REMARK 922        TOTAL FREE ENERGY PREDICTED BY IDOCK:   -3.90 KCAL/MOL
REMARK 923 INTER-LIGAND FREE ENERGY PREDICTED BY IDOCK:   -3.71 KCAL/MOL
REMARK 924 INTRA-LIGAND FREE ENERGY PREDICTED BY IDOCK:   -0.19 KCAL/MOL
REMARK 927      BINDING AFFINITY PREDICTED BY RF-SCORE:    0.00 PKD
ROOT
HETATM    1  C   UNL     1      -8.648   5.298  72.148  1.00  0.00    -0.126 C  
HETATM    2  N   UNL     1      -8.955   6.619  71.616  1.00  0.00    -0.142 NA 
HETATM    3  H   UNL     1      -8.231   6.926  70.966  1.00  0.00     0.000 HD 
ENDROOT
BRANCH   2   4
HETATM    4  C   UNL     1     -10.288   6.699  70.991  1.00  0.00    -0.207 C  
HETATM    5  C   UNL     1     -10.574   5.474  70.110  1.00  0.00    -0.367 C  
BRANCH   4   6
HETATM    6  C   UNL     1     -10.365   8.014  70.169  1.00  0.00    -0.215 C  
BRANCH   6   7
HETATM    7  C   UNL     1     -11.388   8.991  70.705  1.00  0.00    -0.311 A  
HETATM    8  C   UNL     1     -11.338  10.344  70.342  1.00  0.00    -0.417 A  
HETATM    9  C   UNL     1     -12.207  11.265  70.926  1.00  0.00    -0.460 A  
HETATM   10  C   UNL     1     -13.146  10.840  71.864  1.00  0.00    -0.557 A  
HETATM   11  C   UNL     1     -13.230   9.491  72.205  1.00  0.00    -0.539 A  
HETATM   12  C   UNL     1     -12.358   8.569  71.625  1.00  0.00    -0.371 A  
ENDBRANCH   6   7
ENDBRANCH   4   6
ENDBRANCH   2   4
TORSDOF 3
ENDMDL
MODEL       93
REMARK 921   NORMALIZED FREE ENERGY PREDICTED BY IDOCK:   -3.12 KCAL/MOL
REMARK 922        TOTAL FREE ENERGY PREDICTED BY IDOCK:   -3.89 KCAL/MOL
REMARK 923 INTER-LIGAND FREE ENERGY PREDICTED BY IDOCK:   -3.71 KCAL/MOL
REMARK 924 INTRA-LIGAND FREE ENERGY PREDICTED BY IDOCK:   -0.18 KCAL/MOL
REMARK 927      BINDING AFFINITY PREDICTED BY RF-SCORE:    0.00 PKD
ROOT
HETATM    1  C   UNL     1     -10.527  14.605  66.491  1.00  0.00    -0.290 C  
HETATM    2  N   UNL     1      -9.713  14.673  67.697  1.00  0.00    -0.212 NA 
HETATM    3  H   UNL     1      -9.452  13.738  68.012  1.00  0.00     0.000 HD 
ENDROOT
BRANCH   2   4
HETATM    4  C   UNL     1      -8.521  15.528  67.547  1.00  0.00    -0.173 C  
HETATM    5  C   UNL     1      -7.224  14.708  67.618  1.00  0.00    -0.206 C  
BRANCH   4   6
HETATM    6  C   UNL     1      -8.560  16.618  68.652  1.00  0.00    -0.253 C  
BRANCH   6   7
HETATM    7  C   UNL     1      -9.047  17.959  68.148  1.00  0.00    -0.278 A  
HETATM    8  C   UNL     1     -10.376  18.123  67.736  1.00  0.00    -0.413 A  
HETATM    9  C   UNL     1     -10.795  19.323  67.162  1.00  0.00    -0.543 A  
HETATM   10  C   UNL     1      -9.894  20.375  67.010  1.00  0.00    -0.594 A  
HETATM   11  C   UNL     1      -8.580  20.236  67.450  1.00  0.00    -0.420 A  
HETATM   12  C   UNL     1      -8.157  19.035  68.021  1.00  0.00    -0.328 A  
ENDBRANCH   6   7
ENDBRANCH   4   6
ENDBRANCH   2   4
TORSDOF 3
ENDMDL
MODEL       94
REMARK 921   NORMALIZED FREE ENERGY PREDICTED BY IDOCK:   -3.12 KCAL/MOL
REMARK 922        TOTAL FREE ENERGY PREDICTED BY IDOCK:   -3.89 KCAL/MOL
REMARK 923 INTER-LIGAND FREE ENERGY PREDICTED BY IDOCK:   -3.73 KCAL/MOL
REMARK 924 INTRA-LIGAND FREE ENERGY PREDICTED BY IDOCK:   -0.16 KCAL/MOL
REMARK 927      BINDING AFFINITY PREDICTED BY RF-SCORE:    0.00 PKD
ROOT
HETATM    1  C   UNL     1      -8.494  15.264  66.913  1.00  0.00    -0.252 C  
HETATM    2  N   UNL     1      -9.500  14.417  66.286  1.00  0.00    -0.398 NA 
HETATM    3  H   UNL     1      -9.061  13.675  65.741  1.00  0.00     0.000 HD 
ENDROOT
BRANCH   2   4
HETATM    4  C   UNL     1     -10.469  13.858  67.246  1.00  0.00    -0.271 C  
HETATM    5  C   UNL     1     -11.318  12.746  66.611  1.00  0.00    -0.364 C  
BRANCH   4   6
HETATM    6  C   UNL     1     -11.360  15.016  67.772  1.00  0.00    -0.340 C  
BRANCH   6   7
HETATM    7  C   UNL     1     -11.622  14.936  69.260  1.00  0.00    -0.330 A  
HETATM    8  C   UNL     1     -11.064  15.880  70.132  1.00  0.00    -0.369 A  
HETATM    9  C   UNL     1     -11.209  15.739  71.512  1.00  0.00    -0.320 A  
HETATM   10  C   UNL     1     -11.926  14.664  72.032  1.00  0.00    -0.303 A  
HETATM   11  C   UNL     1     -12.517  13.740  71.173  1.00  0.00    -0.450 A  
HETATM   12  C   UNL     1     -12.370  13.876  69.792  1.00  0.00    -0.330 A  
ENDBRANCH   6   7
ENDBRANCH   4   6
ENDBRANCH   2   4
TORSDOF 3
ENDMDL
MODEL       95
REMARK 921   NORMALIZED FREE ENERGY PREDICTED BY IDOCK:   -3.11 KCAL/MOL
REMARK 922        TOTAL FREE ENERGY PREDICTED BY IDOCK:   -3.89 KCAL/MOL
REMARK 923 INTER-LIGAND FREE ENERGY PREDICTED BY IDOCK:   -3.64 KCAL/MOL
REMARK 924 INTRA-LIGAND FREE ENERGY PREDICTED BY IDOCK:   -0.25 KCAL/MOL
REMARK 927      BINDING AFFINITY PREDICTED BY RF-SCORE:    0.00 PKD
ROOT
HETATM    1  C   UNL     1     -10.334   7.600  73.162  1.00  0.00    -0.352 C  
HETATM    2  N   UNL     1     -11.570   6.944  72.756  1.00  0.00    -0.489 NA 
HETATM    3  H   UNL     1     -12.304   7.094  73.448  1.00  0.00     0.000 HD 
ENDROOT
BRANCH   2   4
HETATM    4  C   UNL     1     -12.026   7.343  71.412  1.00  0.00    -0.310 C  
HETATM    5  C   UNL     1     -13.557   7.452  71.343  1.00  0.00    -0.410 C  
BRANCH   4   6
HETATM    6  C   UNL     1     -11.489   6.308  70.387  1.00  0.00    -0.414 C  
BRANCH   6   7
HETATM    7  C   UNL     1     -11.012   6.941  69.098  1.00  0.00    -0.240 A  
HETATM    8  C   UNL     1     -11.071   6.229  67.892  1.00  0.00    -0.360 A  
HETATM    9  C   UNL     1     -10.525   6.767  66.727  1.00  0.00    -0.298 A  
HETATM   10  C   UNL     1      -9.930   8.026  66.752  1.00  0.00    -0.344 A  
HETATM   11  C   UNL     1      -9.899   8.759  67.937  1.00  0.00    -0.207 A  
HETATM   12  C   UNL     1     -10.441   8.221  69.105  1.00  0.00    -0.217 A  
ENDBRANCH   6   7
ENDBRANCH   4   6
ENDBRANCH   2   4
TORSDOF 3
ENDMDL
MODEL       96
REMARK 921   NORMALIZED FREE ENERGY PREDICTED BY IDOCK:   -3.11 KCAL/MOL
REMARK 922        TOTAL FREE ENERGY PREDICTED BY IDOCK:   -3.88 KCAL/MOL
REMARK 923 INTER-LIGAND FREE ENERGY PREDICTED BY IDOCK:   -4.02 KCAL/MOL
REMARK 924 INTRA-LIGAND FREE ENERGY PREDICTED BY IDOCK:    0.14 KCAL/MOL
REMARK 927      BINDING AFFINITY PREDICTED BY RF-SCORE:    0.00 PKD
ROOT
HETATM    1  C   UNL     1     -14.193   8.318  71.603  1.00  0.00    -0.447 C  
HETATM    2  N   UNL     1     -13.202   7.510  70.905  1.00  0.00    -0.591 NA 
HETATM    3  H   UNL     1     -12.755   8.046  70.162  1.00  0.00     0.000 HD 
ENDROOT
BRANCH   2   4
HETATM    4  C   UNL     1     -12.193   6.922  71.806  1.00  0.00    -0.356 C  
HETATM    5  C   UNL     1     -11.509   7.994  72.668  1.00  0.00    -0.465 C  
BRANCH   4   6
HETATM    6  C   UNL     1     -11.159   6.149  70.943  1.00  0.00    -0.371 C  
BRANCH   6   7
HETATM    7  C   UNL     1     -10.960   6.755  69.570  1.00  0.00    -0.325 A  
HETATM    8  C   UNL     1     -11.249   6.012  68.417  1.00  0.00    -0.120 A  
HETATM    9  C   UNL     1     -10.956   6.526  67.154  1.00  0.00    -0.480 A  
HETATM   10  C   UNL     1     -10.386   7.792  67.032  1.00  0.00    -0.405 A  
HETATM   11  C   UNL     1     -10.129   8.554  68.169  1.00  0.00    -0.240 A  
HETATM   12  C   UNL     1     -10.417   8.040  69.434  1.00  0.00    -0.223 A  
ENDBRANCH   6   7
ENDBRANCH   4   6
ENDBRANCH   2   4
TORSDOF 3
ENDMDL
MODEL       97
REMARK 921   NORMALIZED FREE ENERGY PREDICTED BY IDOCK:   -3.10 KCAL/MOL
REMARK 922        TOTAL FREE ENERGY PREDICTED BY IDOCK:   -3.87 KCAL/MOL
REMARK 923 INTER-LIGAND FREE ENERGY PREDICTED BY IDOCK:   -3.68 KCAL/MOL
REMARK 924 INTRA-LIGAND FREE ENERGY PREDICTED BY IDOCK:   -0.19 KCAL/MOL
REMARK 927      BINDING AFFINITY PREDICTED BY RF-SCORE:    0.00 PKD
ROOT
HETATM    1  C   UNL     1      -7.881   8.657  63.755  1.00  0.00    -0.148 C  
HETATM    2  N   UNL     1      -9.079   9.476  63.873  1.00  0.00    -0.407 NA 
HETATM    3  H   UNL     1      -9.899   8.896  64.049  1.00  0.00     0.000 HD 
ENDROOT
BRANCH   2   4
HETATM    4  C   UNL     1      -8.960  10.539  64.888  1.00  0.00    -0.199 C  
HETATM    5  C   UNL     1      -7.648  10.422  65.678  1.00  0.00    -0.150 C  
BRANCH   4   6
HETATM    6  C   UNL     1     -10.193  10.456  65.829  1.00  0.00    -0.305 C  
BRANCH   6   7
HETATM    7  C   UNL     1     -11.000  11.735  65.865  1.00  0.00    -0.354 A  
HETATM    8  C   UNL     1     -11.557  12.258  64.689  1.00  0.00    -0.404 A  
HETATM    9  C   UNL     1     -12.200  13.495  64.701  1.00  0.00    -0.450 A  
HETATM   10  C   UNL     1     -12.307  14.213  65.890  1.00  0.00    -0.486 A  
HETATM   11  C   UNL     1     -11.790  13.687  67.072  1.00  0.00    -0.448 A  
HETATM   12  C   UNL     1     -11.143  12.451  67.062  1.00  0.00    -0.327 A  
ENDBRANCH   6   7
ENDBRANCH   4   6
ENDBRANCH   2   4
TORSDOF 3
ENDMDL
MODEL       98
REMARK 921   NORMALIZED FREE ENERGY PREDICTED BY IDOCK:   -3.10 KCAL/MOL
REMARK 922        TOTAL FREE ENERGY PREDICTED BY IDOCK:   -3.87 KCAL/MOL
REMARK 923 INTER-LIGAND FREE ENERGY PREDICTED BY IDOCK:   -3.66 KCAL/MOL
REMARK 924 INTRA-LIGAND FREE ENERGY PREDICTED BY IDOCK:   -0.21 KCAL/MOL
REMARK 927      BINDING AFFINITY PREDICTED BY RF-SCORE:    0.00 PKD
ROOT
HETATM    1  C   UNL     1     -13.012  10.517  71.613  1.00  0.00    -0.476 C  
HETATM    2  N   UNL     1     -13.034   9.145  71.123  1.00  0.00    -0.507 NA 
HETATM    3  H   UNL     1     -13.347   9.112  70.153  1.00  0.00     0.000 HD 
ENDROOT
BRANCH   2   4
HETATM    4  C   UNL     1     -11.744   8.449  71.283  1.00  0.00    -0.285 C  
HETATM    5  C   UNL     1     -11.535   7.969  72.727  1.00  0.00    -0.420 C  
BRANCH   4   6
HETATM    6  C   UNL     1     -10.611   9.414  70.840  1.00  0.00    -0.390 C  
BRANCH   6   7
HETATM    7  C   UNL     1     -10.413   9.450  69.341  1.00  0.00    -0.231 A  
HETATM    8  C   UNL     1     -10.699  10.615  68.614  1.00  0.00    -0.239 A  
HETATM    9  C   UNL     1     -10.630  10.613  67.222  1.00  0.00    -0.313 A  
HETATM   10  C   UNL     1     -10.257   9.454  66.543  1.00  0.00    -0.308 A  
HETATM   11  C   UNL     1      -9.934   8.302  67.257  1.00  0.00    -0.289 A  
HETATM   12  C   UNL     1     -10.007   8.300  68.650  1.00  0.00    -0.203 A  
ENDBRANCH   6   7
ENDBRANCH   4   6
ENDBRANCH   2   4
TORSDOF 3
ENDMDL
MODEL       99
REMARK 921   NORMALIZED FREE ENERGY PREDICTED BY IDOCK:   -3.09 KCAL/MOL
REMARK 922        TOTAL FREE ENERGY PREDICTED BY IDOCK:   -3.85 KCAL/MOL
REMARK 923 INTER-LIGAND FREE ENERGY PREDICTED BY IDOCK:   -3.66 KCAL/MOL
REMARK 924 INTRA-LIGAND FREE ENERGY PREDICTED BY IDOCK:   -0.19 KCAL/MOL
REMARK 927      BINDING AFFINITY PREDICTED BY RF-SCORE:    0.00 PKD
ROOT
HETATM    1  C   UNL     1      -8.132   8.141  64.557  1.00  0.00    -0.142 C  
HETATM    2  N   UNL     1      -9.131   9.081  64.066  1.00  0.00    -0.386 NA 
HETATM    3  H   UNL     1      -9.919   8.587  63.648  1.00  0.00     0.000 HD 
ENDROOT
BRANCH   2   4
HETATM    4  C   UNL     1      -9.593  10.029  65.096  1.00  0.00    -0.291 C  
HETATM    5  C   UNL     1     -10.110   9.300  66.346  1.00  0.00    -0.337 C  
BRANCH   4   6
HETATM    6  C   UNL     1     -10.694  10.930  64.473  1.00  0.00    -0.258 C  
BRANCH   6   7
HETATM    7  C   UNL     1     -10.888  12.232  65.218  1.00  0.00    -0.332 A  
HETATM    8  C   UNL     1      -9.812  12.841  65.879  1.00  0.00    -0.243 A  
HETATM    9  C   UNL     1     -10.015  13.977  66.662  1.00  0.00    -0.280 A  
HETATM   10  C   UNL     1     -11.291  14.525  66.778  1.00  0.00    -0.358 A  
HETATM   11  C   UNL     1     -12.361  13.950  66.095  1.00  0.00    -0.504 A  
HETATM   12  C   UNL     1     -12.161  12.811  65.315  1.00  0.00    -0.535 A  
ENDBRANCH   6   7
ENDBRANCH   4   6
ENDBRANCH   2   4
TORSDOF 3
ENDMDL
MODEL      100
REMARK 921   NORMALIZED FREE ENERGY PREDICTED BY IDOCK:   -3.06 KCAL/MOL
REMARK 922        TOTAL FREE ENERGY PREDICTED BY IDOCK:   -3.82 KCAL/MOL
REMARK 923 INTER-LIGAND FREE ENERGY PREDICTED BY IDOCK:   -3.62 KCAL/MOL
REMARK 924 INTRA-LIGAND FREE ENERGY PREDICTED BY IDOCK:   -0.21 KCAL/MOL
REMARK 927      BINDING AFFINITY PREDICTED BY RF-SCORE:    0.00 PKD
ROOT
HETATM    1  C   UNL     1     -13.630  13.937  71.725  1.00  0.00    -0.385 C  
HETATM    2  N   UNL     1     -12.331  13.880  71.068  1.00  0.00    -0.364 NA 
HETATM    3  H   UNL     1     -12.423  13.533  70.113  1.00  0.00     0.000 HD 
ENDROOT
BRANCH   2   4
HETATM    4  C   UNL     1     -11.611  15.167  71.090  1.00  0.00    -0.360 C  
HETATM    5  C   UNL     1     -11.979  16.000  72.328  1.00  0.00    -0.633 C  
BRANCH   4   6
HETATM    6  C   UNL     1     -11.938  15.933  69.780  1.00  0.00    -0.276 C  
BRANCH   6   7
HETATM    7  C   UNL     1     -10.703  16.393  69.037  1.00  0.00    -0.322 A  
HETATM    8  C   UNL     1      -9.433  15.939  69.418  1.00  0.00    -0.248 A  
HETATM    9  C   UNL     1      -8.287  16.452  68.812  1.00  0.00    -0.242 A  
HETATM   10  C   UNL     1      -8.400  17.411  67.807  1.00  0.00    -0.218 A  
HETATM   11  C   UNL     1      -9.659  17.843  67.394  1.00  0.00    -0.271 A  
HETATM   12  C   UNL     1     -10.807  17.334  68.002  1.00  0.00    -0.297 A  
ENDBRANCH   6   7
ENDBRANCH   4   6
ENDBRANCH   2   4
TORSDOF 3
ENDMDL
MODEL      101
REMARK 921   NORMALIZED FREE ENERGY PREDICTED BY IDOCK:   -3.04 KCAL/MOL
REMARK 922        TOTAL FREE ENERGY PREDICTED BY IDOCK:   -3.80 KCAL/MOL
REMARK 923 INTER-LIGAND FREE ENERGY PREDICTED BY IDOCK:   -3.62 KCAL/MOL
REMARK 924 INTRA-LIGAND FREE ENERGY PREDICTED BY IDOCK:   -0.17 KCAL/MOL
REMARK 927      BINDING AFFINITY PREDICTED BY RF-SCORE:    0.00 PKD
ROOT
HETATM    1  C   UNL     1      -7.995  10.953  65.609  1.00  0.00    -0.037 C  
HETATM    2  N   UNL     1      -9.116  11.880  65.691  1.00  0.00    -0.422 NA 
HETATM    3  H   UNL     1      -9.599  11.945  64.795  1.00  0.00     0.000 HD 
ENDROOT
BRANCH   2   4
HETATM    4  C   UNL     1     -10.062  11.554  66.774  1.00  0.00    -0.215 C  
HETATM    5  C   UNL     1     -10.390  10.053  66.806  1.00  0.00    -0.283 C  
BRANCH   4   6
HETATM    6  C   UNL     1     -11.345  12.407  66.576  1.00  0.00    -0.392 C  
BRANCH   6   7
HETATM    7  C   UNL     1     -11.674  13.271  67.773  1.00  0.00    -0.398 A  
HETATM    8  C   UNL     1     -11.705  14.667  67.656  1.00  0.00    -0.389 A  
HETATM    9  C   UNL     1     -11.892  15.467  68.782  1.00  0.00    -0.335 A  
HETATM   10  C   UNL     1     -12.068  14.879  70.033  1.00  0.00    -0.387 A  
HETATM   11  C   UNL     1     -12.078  13.492  70.157  1.00  0.00    -0.425 A  
HETATM   12  C   UNL     1     -11.886  12.689  69.032  1.00  0.00    -0.341 A  
ENDBRANCH   6   7
ENDBRANCH   4   6
ENDBRANCH   2   4
TORSDOF 3
ENDMDL
MODEL      102
REMARK 921   NORMALIZED FREE ENERGY PREDICTED BY IDOCK:   -3.02 KCAL/MOL
REMARK 922        TOTAL FREE ENERGY PREDICTED BY IDOCK:   -3.78 KCAL/MOL
REMARK 923 INTER-LIGAND FREE ENERGY PREDICTED BY IDOCK:   -3.82 KCAL/MOL
REMARK 924 INTRA-LIGAND FREE ENERGY PREDICTED BY IDOCK:    0.04 KCAL/MOL
REMARK 927      BINDING AFFINITY PREDICTED BY RF-SCORE:    0.00 PKD
ROOT
HETATM    1  C   UNL     1     -10.634   5.197  72.342  1.00  0.00    -0.221 C  
HETATM    2  N   UNL     1     -11.713   6.034  72.849  1.00  0.00    -0.515 NA 
HETATM    3  H   UNL     1     -11.403   6.575  73.657  1.00  0.00     0.000 HD 
ENDROOT
BRANCH   2   4
HETATM    4  C   UNL     1     -12.297   6.916  71.822  1.00  0.00    -0.361 C  
HETATM    5  C   UNL     1     -11.773   6.575  70.419  1.00  0.00    -0.439 C  
BRANCH   4   6
HETATM    6  C   UNL     1     -11.977   8.387  72.200  1.00  0.00    -0.438 C  
BRANCH   6   7
HETATM    7  C   UNL     1     -10.884   8.995  71.349  1.00  0.00    -0.400 A  
HETATM    8  C   UNL     1     -11.206   9.787  70.237  1.00  0.00    -0.347 A  
HETATM    9  C   UNL     1     -10.204  10.250  69.386  1.00  0.00    -0.255 A  
HETATM   10  C   UNL     1      -8.870   9.941  69.645  1.00  0.00    -0.224 A  
HETATM   11  C   UNL     1      -8.535   9.186  70.767  1.00  0.00    -0.256 A  
HETATM   12  C   UNL     1      -9.536   8.718  71.619  1.00  0.00    -0.363 A  
ENDBRANCH   6   7
ENDBRANCH   4   6
ENDBRANCH   2   4
TORSDOF 3
ENDMDL
MODEL      103
REMARK 921   NORMALIZED FREE ENERGY PREDICTED BY IDOCK:   -3.01 KCAL/MOL
REMARK 922        TOTAL FREE ENERGY PREDICTED BY IDOCK:   -3.77 KCAL/MOL
REMARK 923 INTER-LIGAND FREE ENERGY PREDICTED BY IDOCK:   -3.56 KCAL/MOL
REMARK 924 INTRA-LIGAND FREE ENERGY PREDICTED BY IDOCK:   -0.20 KCAL/MOL
REMARK 927      BINDING AFFINITY PREDICTED BY RF-SCORE:    0.00 PKD
ROOT
HETATM    1  C   UNL     1      -7.305   9.701  68.181  1.00  0.00    -0.081 C  
HETATM    2  N   UNL     1      -8.244   8.649  68.545  1.00  0.00    -0.121 NA 
HETATM    3  H   UNL     1      -8.020   8.266  69.464  1.00  0.00     0.000 HD 
ENDROOT
BRANCH   2   4
HETATM    4  C   UNL     1      -9.653   9.079  68.486  1.00  0.00    -0.153 C  
HETATM    5  C   UNL     1     -10.070   9.453  67.055  1.00  0.00    -0.304 C  
BRANCH   4   6
HETATM    6  C   UNL     1      -9.840  10.276  69.458  1.00  0.00    -0.244 C  
BRANCH   6   7
HETATM    7  C   UNL     1     -11.067  10.144  70.332  1.00  0.00    -0.393 A  
HETATM    8  C   UNL     1     -11.899  11.250  70.560  1.00  0.00    -0.421 A  
HETATM    9  C   UNL     1     -12.962  11.160  71.458  1.00  0.00    -0.542 A  
HETATM   10  C   UNL     1     -13.215   9.962  72.123  1.00  0.00    -0.511 A  
HETATM   11  C   UNL     1     -12.417   8.846  71.876  1.00  0.00    -0.445 A  
HETATM   12  C   UNL     1     -11.350   8.934  70.982  1.00  0.00    -0.350 A  
ENDBRANCH   6   7
ENDBRANCH   4   6
ENDBRANCH   2   4
TORSDOF 3
ENDMDL
MODEL      104
REMARK 921   NORMALIZED FREE ENERGY PREDICTED BY IDOCK:   -3.01 KCAL/MOL
REMARK 922        TOTAL FREE ENERGY PREDICTED BY IDOCK:   -3.76 KCAL/MOL
REMARK 923 INTER-LIGAND FREE ENERGY PREDICTED BY IDOCK:   -3.54 KCAL/MOL
REMARK 924 INTRA-LIGAND FREE ENERGY PREDICTED BY IDOCK:   -0.23 KCAL/MOL
REMARK 927      BINDING AFFINITY PREDICTED BY RF-SCORE:    0.00 PKD
ROOT
HETATM    1  C   UNL     1      -7.032  15.577  69.457  1.00  0.00    -0.190 C  
HETATM    2  N   UNL     1      -8.294  14.883  69.675  1.00  0.00    -0.441 NA 
HETATM    3  H   UNL     1      -8.988  15.511  70.080  1.00  0.00     0.000 HD 
ENDROOT
BRANCH   2   4
HETATM    4  C   UNL     1      -8.819  14.235  68.459  1.00  0.00    -0.176 C  
HETATM    5  C   UNL     1      -7.695  13.894  67.469  1.00  0.00    -0.192 C  
BRANCH   4   6
HETATM    6  C   UNL     1      -9.869  15.180  67.816  1.00  0.00    -0.223 C  
BRANCH   6   7
HETATM    7  C   UNL     1     -10.694  14.508  66.740  1.00  0.00    -0.291 A  
HETATM    8  C   UNL     1     -10.915  15.146  65.511  1.00  0.00    -0.370 A  
HETATM    9  C   UNL     1     -11.771  14.580  64.566  1.00  0.00    -0.421 A  
HETATM   10  C   UNL     1     -12.399  13.365  64.833  1.00  0.00    -0.457 A  
HETATM   11  C   UNL     1     -12.157  12.705  66.035  1.00  0.00    -0.429 A  
HETATM   12  C   UNL     1     -11.305  13.270  66.984  1.00  0.00    -0.346 A  
ENDBRANCH   6   7
ENDBRANCH   4   6
ENDBRANCH   2   4
TORSDOF 3
ENDMDL
MODEL      105
REMARK 921   NORMALIZED FREE ENERGY PREDICTED BY IDOCK:   -2.99 KCAL/MOL
REMARK 922        TOTAL FREE ENERGY PREDICTED BY IDOCK:   -3.75 KCAL/MOL
REMARK 923 INTER-LIGAND FREE ENERGY PREDICTED BY IDOCK:   -3.57 KCAL/MOL
REMARK 924 INTRA-LIGAND FREE ENERGY PREDICTED BY IDOCK:   -0.18 KCAL/MOL
REMARK 927      BINDING AFFINITY PREDICTED BY RF-SCORE:    0.00 PKD
ROOT
HETATM    1  C   UNL     1      -5.971   8.508  73.338  1.00  0.00    -0.099 C  
HETATM    2  N   UNL     1      -7.275   8.757  73.938  1.00  0.00    -0.394 NA 
HETATM    3  H   UNL     1      -7.525   9.743  73.865  1.00  0.00     0.000 HD 
ENDROOT
BRANCH   2   4
HETATM    4  C   UNL     1      -8.342   7.903  73.385  1.00  0.00    -0.203 C  
HETATM    5  C   UNL     1      -7.932   6.423  73.370  1.00  0.00    -0.096 C  
BRANCH   4   6
HETATM    6  C   UNL     1      -8.682   8.408  71.957  1.00  0.00    -0.267 C  
BRANCH   6   7
HETATM    7  C   UNL     1     -10.149   8.728  71.772  1.00  0.00    -0.403 A  
HETATM    8  C   UNL     1     -10.553   9.712  70.859  1.00  0.00    -0.386 A  
HETATM    9  C   UNL     1     -11.893  10.090  70.774  1.00  0.00    -0.435 A  
HETATM   10  C   UNL     1     -12.843   9.476  71.587  1.00  0.00    -0.483 A  
HETATM   11  C   UNL     1     -12.459   8.470  72.472  1.00  0.00    -0.358 A  
HETATM   12  C   UNL     1     -11.118   8.094  72.562  1.00  0.00    -0.446 A  
ENDBRANCH   6   7
ENDBRANCH   4   6
ENDBRANCH   2   4
TORSDOF 3
ENDMDL
MODEL      106
REMARK 921   NORMALIZED FREE ENERGY PREDICTED BY IDOCK:   -2.99 KCAL/MOL
REMARK 922        TOTAL FREE ENERGY PREDICTED BY IDOCK:   -3.75 KCAL/MOL
REMARK 923 INTER-LIGAND FREE ENERGY PREDICTED BY IDOCK:   -3.51 KCAL/MOL
REMARK 924 INTRA-LIGAND FREE ENERGY PREDICTED BY IDOCK:   -0.24 KCAL/MOL
REMARK 927      BINDING AFFINITY PREDICTED BY RF-SCORE:    0.00 PKD
ROOT
HETATM    1  C   UNL     1      -7.654   6.843  71.916  1.00  0.00    -0.093 C  
HETATM    2  N   UNL     1      -7.761   8.135  71.252  1.00  0.00    -0.084 NA 
HETATM    3  H   UNL     1      -7.134   8.184  70.450  1.00  0.00     0.000 HD 
ENDROOT
BRANCH   2   4
HETATM    4  C   UNL     1      -9.141   8.475  70.860  1.00  0.00    -0.172 C  
HETATM    5  C   UNL     1      -9.189   9.752  70.007  1.00  0.00    -0.266 C  
BRANCH   4   6
HETATM    6  C   UNL     1      -9.993   8.627  72.150  1.00  0.00    -0.386 C  
BRANCH   6   7
HETATM    7  C   UNL     1     -11.477   8.472  71.903  1.00  0.00    -0.405 A  
HETATM    8  C   UNL     1     -12.340   9.568  72.046  1.00  0.00    -0.404 A  
HETATM    9  C   UNL     1     -13.720   9.399  71.935  1.00  0.00    -0.440 A  
HETATM   10  C   UNL     1     -14.249   8.139  71.662  1.00  0.00    -0.536 A  
HETATM   11  C   UNL     1     -13.399   7.051  71.481  1.00  0.00    -0.370 A  
HETATM   12  C   UNL     1     -12.018   7.215  71.596  1.00  0.00    -0.353 A  
ENDBRANCH   6   7
ENDBRANCH   4   6
ENDBRANCH   2   4
TORSDOF 3
ENDMDL
MODEL      107
REMARK 921   NORMALIZED FREE ENERGY PREDICTED BY IDOCK:   -2.98 KCAL/MOL
REMARK 922        TOTAL FREE ENERGY PREDICTED BY IDOCK:   -3.73 KCAL/MOL
REMARK 923 INTER-LIGAND FREE ENERGY PREDICTED BY IDOCK:   -3.54 KCAL/MOL
REMARK 924 INTRA-LIGAND FREE ENERGY PREDICTED BY IDOCK:   -0.19 KCAL/MOL
REMARK 927      BINDING AFFINITY PREDICTED BY RF-SCORE:    0.00 PKD
ROOT
HETATM    1  C   UNL     1      -7.485   9.024  69.331  1.00  0.00    -0.077 C  
HETATM    2  N   UNL     1      -8.767   8.338  69.235  1.00  0.00    -0.138 NA 
HETATM    3  H   UNL     1      -8.768   7.491  69.803  1.00  0.00     0.000 HD 
ENDROOT
BRANCH   2   4
HETATM    4  C   UNL     1      -9.914   9.200  69.574  1.00  0.00    -0.189 C  
HETATM    5  C   UNL     1      -9.669  10.659  69.161  1.00  0.00    -0.205 C  
BRANCH   4   6
HETATM    6  C   UNL     1     -10.177   9.084  71.100  1.00  0.00    -0.363 C  
BRANCH   6   7
HETATM    7  C   UNL     1     -11.624   8.792  71.434  1.00  0.00    -0.366 A  
HETATM    8  C   UNL     1     -12.130   7.489  71.327  1.00  0.00    -0.351 A  
HETATM    9  C   UNL     1     -13.488   7.240  71.520  1.00  0.00    -0.439 A  
HETATM   10  C   UNL     1     -14.350   8.288  71.838  1.00  0.00    -0.564 A  
HETATM   11  C   UNL     1     -13.853   9.581  71.983  1.00  0.00    -0.365 A  
HETATM   12  C   UNL     1     -12.495   9.833  71.786  1.00  0.00    -0.485 A  
ENDBRANCH   6   7
ENDBRANCH   4   6
ENDBRANCH   2   4
TORSDOF 3
ENDMDL
MODEL      108
REMARK 921   NORMALIZED FREE ENERGY PREDICTED BY IDOCK:   -2.98 KCAL/MOL
REMARK 922        TOTAL FREE ENERGY PREDICTED BY IDOCK:   -3.73 KCAL/MOL
REMARK 923 INTER-LIGAND FREE ENERGY PREDICTED BY IDOCK:   -3.52 KCAL/MOL
REMARK 924 INTRA-LIGAND FREE ENERGY PREDICTED BY IDOCK:   -0.21 KCAL/MOL
REMARK 927      BINDING AFFINITY PREDICTED BY RF-SCORE:    0.00 PKD
ROOT
HETATM    1  C   UNL     1     -10.805   4.939  65.897  1.00  0.00    -0.082 C  
HETATM    2  N   UNL     1     -11.283   6.109  66.621  1.00  0.00    -0.758 NA 
HETATM    3  H   UNL     1     -12.212   5.943  67.007  1.00  0.00     0.000 HD 
ENDROOT
BRANCH   2   4
HETATM    4  C   UNL     1     -10.352   6.564  67.670  1.00  0.00    -0.194 C  
HETATM    5  C   UNL     1      -9.103   7.227  67.070  1.00  0.00    -0.152 C  
BRANCH   4   6
HETATM    6  C   UNL     1      -9.973   5.342  68.551  1.00  0.00    -0.223 C  
BRANCH   6   7
HETATM    7  C   UNL     1     -10.518   5.434  69.959  1.00  0.00    -0.373 A  
HETATM    8  C   UNL     1     -11.533   6.349  70.272  1.00  0.00    -0.468 A  
HETATM    9  C   UNL     1     -11.952   6.516  71.591  1.00  0.00    -0.387 A  
HETATM   10  C   UNL     1     -11.373   5.759  72.607  1.00  0.00    -0.349 A  
HETATM   11  C   UNL     1     -10.390   4.819  72.304  1.00  0.00    -0.264 A  
HETATM   12  C   UNL     1      -9.966   4.653  70.985  1.00  0.00    -0.270 A  
ENDBRANCH   6   7
ENDBRANCH   4   6
ENDBRANCH   2   4
TORSDOF 3
ENDMDL
MODEL      109
REMARK 921   NORMALIZED FREE ENERGY PREDICTED BY IDOCK:   -2.97 KCAL/MOL
REMARK 922        TOTAL FREE ENERGY PREDICTED BY IDOCK:   -3.72 KCAL/MOL
REMARK 923 INTER-LIGAND FREE ENERGY PREDICTED BY IDOCK:   -3.84 KCAL/MOL
REMARK 924 INTRA-LIGAND FREE ENERGY PREDICTED BY IDOCK:    0.13 KCAL/MOL
REMARK 927      BINDING AFFINITY PREDICTED BY RF-SCORE:    0.00 PKD
ROOT
HETATM    1  C   UNL     1     -12.831  12.877  71.380  1.00  0.00    -0.283 C  
HETATM    2  N   UNL     1     -11.904  12.456  70.337  1.00  0.00    -0.541 NA 
HETATM    3  H   UNL     1     -10.939  12.552  70.650  1.00  0.00     0.000 HD 
ENDROOT
BRANCH   2   4
HETATM    4  C   UNL     1     -12.163  11.090  69.846  1.00  0.00    -0.336 C  
HETATM    5  C   UNL     1     -11.616  10.028  70.812  1.00  0.00    -0.444 C  
BRANCH   4   6
HETATM    6  C   UNL     1     -11.528  10.949  68.436  1.00  0.00    -0.374 C  
BRANCH   6   7
HETATM    7  C   UNL     1     -11.186  12.280  67.803  1.00  0.00    -0.331 A  
HETATM    8  C   UNL     1     -12.151  12.991  67.077  1.00  0.00    -0.330 A  
HETATM    9  C   UNL     1     -11.806  14.157  66.396  1.00  0.00    -0.440 A  
HETATM   10  C   UNL     1     -10.497  14.633  66.448  1.00  0.00    -0.296 A  
HETATM   11  C   UNL     1      -9.538  13.955  67.196  1.00  0.00    -0.247 A  
HETATM   12  C   UNL     1      -9.880  12.785  67.875  1.00  0.00    -0.223 A  
ENDBRANCH   6   7
ENDBRANCH   4   6
ENDBRANCH   2   4
TORSDOF 3
ENDMDL
MODEL      110
REMARK 921   NORMALIZED FREE ENERGY PREDICTED BY IDOCK:   -2.95 KCAL/MOL
REMARK 922        TOTAL FREE ENERGY PREDICTED BY IDOCK:   -3.70 KCAL/MOL
REMARK 923 INTER-LIGAND FREE ENERGY PREDICTED BY IDOCK:   -3.51 KCAL/MOL
REMARK 924 INTRA-LIGAND FREE ENERGY PREDICTED BY IDOCK:   -0.19 KCAL/MOL
REMARK 927      BINDING AFFINITY PREDICTED BY RF-SCORE:    0.00 PKD
ROOT
HETATM    1  C   UNL     1     -11.083   4.391  73.810  1.00  0.00    -0.244 C  
HETATM    2  N   UNL     1     -11.670   5.575  73.198  1.00  0.00    -0.527 NA 
HETATM    3  H   UNL     1     -12.148   6.145  73.895  1.00  0.00     0.000 HD 
ENDROOT
BRANCH   2   4
HETATM    4  C   UNL     1     -10.696   6.383  72.440  1.00  0.00    -0.226 C  
HETATM    5  C   UNL     1      -9.714   7.108  73.374  1.00  0.00    -0.273 C  
BRANCH   4   6
HETATM    6  C   UNL     1     -11.478   7.389  71.555  1.00  0.00    -0.292 C  
BRANCH   6   7
HETATM    7  C   UNL     1     -11.077   7.336  70.097  1.00  0.00    -0.281 A  
HETATM    8  C   UNL     1     -10.694   8.503  69.421  1.00  0.00    -0.166 A  
HETATM    9  C   UNL     1     -10.438   8.474  68.051  1.00  0.00    -0.249 A  
HETATM   10  C   UNL     1     -10.544   7.276  67.347  1.00  0.00    -0.370 A  
HETATM   11  C   UNL     1     -10.887   6.103  68.015  1.00  0.00    -0.398 A  
HETATM   12  C   UNL     1     -11.148   6.130  69.385  1.00  0.00    -0.479 A  
ENDBRANCH   6   7
ENDBRANCH   4   6
ENDBRANCH   2   4
TORSDOF 3
ENDMDL
MODEL      111
REMARK 921   NORMALIZED FREE ENERGY PREDICTED BY IDOCK:   -2.94 KCAL/MOL
REMARK 922        TOTAL FREE ENERGY PREDICTED BY IDOCK:   -3.69 KCAL/MOL
REMARK 923 INTER-LIGAND FREE ENERGY PREDICTED BY IDOCK:   -3.45 KCAL/MOL
REMARK 924 INTRA-LIGAND FREE ENERGY PREDICTED BY IDOCK:   -0.23 KCAL/MOL
REMARK 927      BINDING AFFINITY PREDICTED BY RF-SCORE:    0.00 PKD
ROOT
HETATM    1  C   UNL     1     -12.791  11.023  71.141  1.00  0.00    -0.392 C  
HETATM    2  N   UNL     1     -13.263   9.794  70.518  1.00  0.00    -0.582 NA 
HETATM    3  H   UNL     1     -12.838   9.667  69.599  1.00  0.00     0.000 HD 
ENDROOT
BRANCH   2   4
HETATM    4  C   UNL     1     -13.058   8.600  71.359  1.00  0.00    -0.245 C  
HETATM    5  C   UNL     1     -14.374   8.122  71.993  1.00  0.00    -0.524 C  
BRANCH   4   6
HETATM    6  C   UNL     1     -12.002   8.942  72.444  1.00  0.00    -0.320 C  
BRANCH   6   7
HETATM    7  C   UNL     1     -10.828   7.987  72.453  1.00  0.00    -0.392 A  
HETATM    8  C   UNL     1     -10.359   7.449  73.660  1.00  0.00    -0.367 A  
HETATM    9  C   UNL     1      -9.207   6.664  73.682  1.00  0.00    -0.163 A  
HETATM   10  C   UNL     1      -8.524   6.394  72.497  1.00  0.00    -0.123 A  
HETATM   11  C   UNL     1      -9.002   6.893  71.288  1.00  0.00    -0.142 A  
HETATM   12  C   UNL     1     -10.152   7.683  71.263  1.00  0.00    -0.203 A  
ENDBRANCH   6   7
ENDBRANCH   4   6
ENDBRANCH   2   4
TORSDOF 3
ENDMDL
MODEL      112
REMARK 921   NORMALIZED FREE ENERGY PREDICTED BY IDOCK:   -2.94 KCAL/MOL
REMARK 922        TOTAL FREE ENERGY PREDICTED BY IDOCK:   -3.69 KCAL/MOL
REMARK 923 INTER-LIGAND FREE ENERGY PREDICTED BY IDOCK:   -3.49 KCAL/MOL
REMARK 924 INTRA-LIGAND FREE ENERGY PREDICTED BY IDOCK:   -0.19 KCAL/MOL
REMARK 927      BINDING AFFINITY PREDICTED BY RF-SCORE:    0.00 PKD
ROOT
HETATM    1  C   UNL     1     -10.520   8.516  69.532  1.00  0.00    -0.220 C  
HETATM    2  N   UNL     1     -11.371   9.462  68.824  1.00  0.00    -0.415 NA 
HETATM    3  H   UNL     1     -11.486  10.320  69.363  1.00  0.00     0.000 HD 
ENDROOT
BRANCH   2   4
HETATM    4  C   UNL     1     -10.900   9.760  67.458  1.00  0.00    -0.220 C  
HETATM    5  C   UNL     1     -10.269   8.526  66.796  1.00  0.00    -0.370 C  
BRANCH   4   6
HETATM    6  C   UNL     1      -9.890  10.937  67.535  1.00  0.00    -0.192 C  
BRANCH   6   7
HETATM    7  C   UNL     1     -10.405  12.204  66.889  1.00  0.00    -0.235 A  
HETATM    8  C   UNL     1     -11.717  12.272  66.401  1.00  0.00    -0.431 A  
HETATM    9  C   UNL     1     -12.154  13.396  65.702  1.00  0.00    -0.476 A  
HETATM   10  C   UNL     1     -11.290  14.470  65.498  1.00  0.00    -0.335 A  
HETATM   11  C   UNL     1      -9.995  14.429  66.010  1.00  0.00    -0.337 A  
HETATM   12  C   UNL     1      -9.554  13.304  66.707  1.00  0.00    -0.258 A  
ENDBRANCH   6   7
ENDBRANCH   4   6
ENDBRANCH   2   4
TORSDOF 3
ENDMDL
MODEL      113
REMARK 921   NORMALIZED FREE ENERGY PREDICTED BY IDOCK:   -2.94 KCAL/MOL
REMARK 922        TOTAL FREE ENERGY PREDICTED BY IDOCK:   -3.68 KCAL/MOL
REMARK 923 INTER-LIGAND FREE ENERGY PREDICTED BY IDOCK:   -3.70 KCAL/MOL
REMARK 924 INTRA-LIGAND FREE ENERGY PREDICTED BY IDOCK:    0.02 KCAL/MOL
REMARK 927      BINDING AFFINITY PREDICTED BY RF-SCORE:    0.00 PKD
ROOT
HETATM    1  C   UNL     1     -10.320   7.974  68.594  1.00  0.00    -0.200 C  
HETATM    2  N   UNL     1     -11.247   8.806  69.351  1.00  0.00    -0.432 NA 
HETATM    3  H   UNL     1     -12.047   8.260  69.668  1.00  0.00     0.000 HD 
ENDROOT
BRANCH   2   4
HETATM    4  C   UNL     1     -10.609   9.506  70.481  1.00  0.00    -0.297 C  
HETATM    5  C   UNL     1      -9.146   9.074  70.662  1.00  0.00    -0.280 C  
BRANCH   4   6
HETATM    6  C   UNL     1     -11.442   9.226  71.762  1.00  0.00    -0.448 C  
BRANCH   6   7
HETATM    7  C   UNL     1     -11.175   7.861  72.358  1.00  0.00    -0.409 A  
HETATM    8  C   UNL     1     -11.890   6.740  71.913  1.00  0.00    -0.366 A  
HETATM    9  C   UNL     1     -11.729   5.506  72.542  1.00  0.00    -0.222 A  
HETATM   10  C   UNL     1     -10.841   5.376  73.608  1.00  0.00    -0.321 A  
HETATM   11  C   UNL     1     -10.098   6.475  74.033  1.00  0.00    -0.348 A  
HETATM   12  C   UNL     1     -10.260   7.712  73.409  1.00  0.00    -0.375 A  
ENDBRANCH   6   7
ENDBRANCH   4   6
ENDBRANCH   2   4
TORSDOF 3
ENDMDL
MODEL      114
REMARK 921   NORMALIZED FREE ENERGY PREDICTED BY IDOCK:   -2.93 KCAL/MOL
REMARK 922        TOTAL FREE ENERGY PREDICTED BY IDOCK:   -3.67 KCAL/MOL
REMARK 923 INTER-LIGAND FREE ENERGY PREDICTED BY IDOCK:   -3.68 KCAL/MOL
REMARK 924 INTRA-LIGAND FREE ENERGY PREDICTED BY IDOCK:    0.00 KCAL/MOL
REMARK 927      BINDING AFFINITY PREDICTED BY RF-SCORE:    0.00 PKD
ROOT
HETATM    1  C   UNL     1     -10.879  16.997  67.986  1.00  0.00    -0.330 C  
HETATM    2  N   UNL     1      -9.818  17.635  68.753  1.00  0.00    -0.335 NA 
HETATM    3  H   UNL     1      -8.910  17.233  68.521  1.00  0.00     0.000 HD 
ENDROOT
BRANCH   2   4
HETATM    4  C   UNL     1      -9.795  19.102  68.605  1.00  0.00    -0.420 C  
HETATM    5  C   UNL     1     -10.518  19.553  67.327  1.00  0.00    -0.590 C  
BRANCH   4   6
HETATM    6  C   UNL     1      -8.314  19.570  68.608  1.00  0.00    -0.364 C  
BRANCH   6   7
HETATM    7  C   UNL     1      -7.611  19.329  67.290  1.00  0.00    -0.256 A  
HETATM    8  C   UNL     1      -7.169  18.045  66.944  1.00  0.00    -0.225 A  
HETATM    9  C   UNL     1      -6.419  17.844  65.786  1.00  0.00    -0.263 A  
HETATM   10  C   UNL     1      -6.119  18.921  64.954  1.00  0.00    -0.301 A  
HETATM   11  C   UNL     1      -6.586  20.195  65.268  1.00  0.00    -0.330 A  
HETATM   12  C   UNL     1      -7.332  20.400  66.429  1.00  0.00    -0.264 A  
ENDBRANCH   6   7
ENDBRANCH   4   6
ENDBRANCH   2   4
TORSDOF 3
ENDMDL
MODEL      115
REMARK 921   NORMALIZED FREE ENERGY PREDICTED BY IDOCK:   -2.93 KCAL/MOL
REMARK 922        TOTAL FREE ENERGY PREDICTED BY IDOCK:   -3.67 KCAL/MOL
REMARK 923 INTER-LIGAND FREE ENERGY PREDICTED BY IDOCK:   -3.66 KCAL/MOL
REMARK 924 INTRA-LIGAND FREE ENERGY PREDICTED BY IDOCK:   -0.01 KCAL/MOL
REMARK 927      BINDING AFFINITY PREDICTED BY RF-SCORE:    0.00 PKD
ROOT
HETATM    1  C   UNL     1     -11.376  15.115  69.423  1.00  0.00    -0.294 C  
HETATM    2  N   UNL     1     -11.487  15.451  68.010  1.00  0.00    -0.342 NA 
HETATM    3  H   UNL     1     -12.355  15.953  67.824  1.00  0.00     0.000 HD 
ENDROOT
BRANCH   2   4
HETATM    4  C   UNL     1     -10.327  16.203  67.498  1.00  0.00    -0.286 C  
HETATM    5  C   UNL     1     -10.485  17.714  67.727  1.00  0.00    -0.379 C  
BRANCH   4   6
HETATM    6  C   UNL     1     -10.161  15.877  65.989  1.00  0.00    -0.359 C  
BRANCH   6   7
HETATM    7  C   UNL     1     -10.317  14.405  65.678  1.00  0.00    -0.360 A  
HETATM    8  C   UNL     1      -9.584  13.446  66.390  1.00  0.00    -0.265 A  
HETATM    9  C   UNL     1      -9.639  12.101  66.026  1.00  0.00    -0.242 A  
HETATM   10  C   UNL     1     -10.441  11.700  64.959  1.00  0.00    -0.336 A  
HETATM   11  C   UNL     1     -11.203  12.639  64.268  1.00  0.00    -0.410 A  
HETATM   12  C   UNL     1     -11.146  13.986  64.627  1.00  0.00    -0.387 A  
ENDBRANCH   6   7
ENDBRANCH   4   6
ENDBRANCH   2   4
TORSDOF 3
ENDMDL
MODEL      116
REMARK 921   NORMALIZED FREE ENERGY PREDICTED BY IDOCK:   -2.93 KCAL/MOL
REMARK 922        TOTAL FREE ENERGY PREDICTED BY IDOCK:   -3.67 KCAL/MOL
REMARK 923 INTER-LIGAND FREE ENERGY PREDICTED BY IDOCK:   -3.49 KCAL/MOL
REMARK 924 INTRA-LIGAND FREE ENERGY PREDICTED BY IDOCK:   -0.18 KCAL/MOL
REMARK 927      BINDING AFFINITY PREDICTED BY RF-SCORE:    0.00 PKD
ROOT
HETATM    1  C   UNL     1     -10.759  10.235  68.086  1.00  0.00    -0.246 C  
HETATM    2  N   UNL     1     -10.343  11.630  68.038  1.00  0.00    -0.186 NA 
HETATM    3  H   UNL     1     -10.327  11.971  67.077  1.00  0.00     0.000 HD 
ENDROOT
BRANCH   2   4
HETATM    4  C   UNL     1     -11.161  12.510  68.893  1.00  0.00    -0.281 C  
HETATM    5  C   UNL     1     -11.977  11.706  69.916  1.00  0.00    -0.414 C  
BRANCH   4   6
HETATM    6  C   UNL     1     -12.085  13.359  67.978  1.00  0.00    -0.283 C  
BRANCH   6   7
HETATM    7  C   UNL     1     -11.361  14.499  67.295  1.00  0.00    -0.363 A  
HETATM    8  C   UNL     1     -10.768  15.519  68.052  1.00  0.00    -0.283 A  
HETATM    9  C   UNL     1     -10.204  16.628  67.424  1.00  0.00    -0.286 A  
HETATM   10  C   UNL     1     -10.212  16.720  66.033  1.00  0.00    -0.361 A  
HETATM   11  C   UNL     1     -10.766  15.695  65.270  1.00  0.00    -0.444 A  
HETATM   12  C   UNL     1     -11.335  14.586  65.896  1.00  0.00    -0.341 A  
ENDBRANCH   6   7
ENDBRANCH   4   6
ENDBRANCH   2   4
TORSDOF 3
ENDMDL
MODEL      117
REMARK 921   NORMALIZED FREE ENERGY PREDICTED BY IDOCK:   -2.92 KCAL/MOL
REMARK 922        TOTAL FREE ENERGY PREDICTED BY IDOCK:   -3.65 KCAL/MOL
REMARK 923 INTER-LIGAND FREE ENERGY PREDICTED BY IDOCK:   -3.74 KCAL/MOL
REMARK 924 INTRA-LIGAND FREE ENERGY PREDICTED BY IDOCK:    0.09 KCAL/MOL
REMARK 927      BINDING AFFINITY PREDICTED BY RF-SCORE:    0.00 PKD
ROOT
HETATM    1  C   UNL     1      -7.142  16.218  66.902  1.00  0.00    -0.211 C  
HETATM    2  N   UNL     1      -6.904  17.487  66.226  1.00  0.00    -0.267 NA 
HETATM    3  H   UNL     1      -7.782  17.979  66.058  1.00  0.00     0.000 HD 
ENDROOT
BRANCH   2   4
HETATM    4  C   UNL     1      -5.945  18.353  66.936  1.00  0.00    -0.149 C  
HETATM    5  C   UNL     1      -5.524  17.746  68.283  1.00  0.00    -0.154 C  
BRANCH   4   6
HETATM    6  C   UNL     1      -6.596  19.750  67.126  1.00  0.00    -0.219 C  
BRANCH   6   7
HETATM    7  C   UNL     1      -8.104  19.693  67.230  1.00  0.00    -0.317 A  
HETATM    8  C   UNL     1      -8.721  19.382  68.450  1.00  0.00    -0.397 A  
HETATM    9  C   UNL     1     -10.104  19.214  68.519  1.00  0.00    -0.499 A  
HETATM   10  C   UNL     1     -10.884  19.374  67.376  1.00  0.00    -0.555 A  
HETATM   11  C   UNL     1     -10.285  19.720  66.167  1.00  0.00    -0.618 A  
HETATM   12  C   UNL     1      -8.902  19.884  66.093  1.00  0.00    -0.358 A  
ENDBRANCH   6   7
ENDBRANCH   4   6
ENDBRANCH   2   4
TORSDOF 3
ENDMDL
MODEL      118
REMARK 921   NORMALIZED FREE ENERGY PREDICTED BY IDOCK:   -2.91 KCAL/MOL
REMARK 922        TOTAL FREE ENERGY PREDICTED BY IDOCK:   -3.65 KCAL/MOL
REMARK 923 INTER-LIGAND FREE ENERGY PREDICTED BY IDOCK:   -3.45 KCAL/MOL
REMARK 924 INTRA-LIGAND FREE ENERGY PREDICTED BY IDOCK:   -0.20 KCAL/MOL
REMARK 927      BINDING AFFINITY PREDICTED BY RF-SCORE:    0.00 PKD
ROOT
HETATM    1  C   UNL     1      -9.724  15.290  65.970  1.00  0.00    -0.335 C  
HETATM    2  N   UNL     1      -9.712  13.869  65.649  1.00  0.00    -0.510 NA 
HETATM    3  H   UNL     1      -9.329  13.326  66.422  1.00  0.00     0.000 HD 
ENDROOT
BRANCH   2   4
HETATM    4  C   UNL     1     -11.034  13.353  65.249  1.00  0.00    -0.295 C  
HETATM    5  C   UNL     1     -11.883  14.436  64.567  1.00  0.00    -0.463 C  
BRANCH   4   6
HETATM    6  C   UNL     1     -11.743  12.795  66.513  1.00  0.00    -0.463 C  
BRANCH   6   7
HETATM    7  C   UNL     1     -11.021  11.616  67.128  1.00  0.00    -0.330 A  
HETATM    8  C   UNL     1     -10.541  11.685  68.444  1.00  0.00    -0.235 A  
HETATM    9  C   UNL     1      -9.774  10.646  68.970  1.00  0.00    -0.214 A  
HETATM   10  C   UNL     1      -9.495   9.523  68.194  1.00  0.00    -0.145 A  
HETATM   11  C   UNL     1      -9.998   9.427  66.899  1.00  0.00    -0.293 A  
HETATM   12  C   UNL     1     -10.762  10.467  66.368  1.00  0.00    -0.166 A  
ENDBRANCH   6   7
ENDBRANCH   4   6
ENDBRANCH   2   4
TORSDOF 3
ENDMDL
MODEL      119
REMARK 921   NORMALIZED FREE ENERGY PREDICTED BY IDOCK:   -2.90 KCAL/MOL
REMARK 922        TOTAL FREE ENERGY PREDICTED BY IDOCK:   -3.63 KCAL/MOL
REMARK 923 INTER-LIGAND FREE ENERGY PREDICTED BY IDOCK:   -3.46 KCAL/MOL
REMARK 924 INTRA-LIGAND FREE ENERGY PREDICTED BY IDOCK:   -0.17 KCAL/MOL
REMARK 927      BINDING AFFINITY PREDICTED BY RF-SCORE:    0.00 PKD
ROOT
HETATM    1  C   UNL     1     -13.583  13.262  72.290  1.00  0.00    -0.605 C  
HETATM    2  N   UNL     1     -12.755  12.948  71.133  1.00  0.00    -0.335 NA 
HETATM    3  H   UNL     1     -13.296  12.454  70.424  1.00  0.00     0.000 HD 
ENDROOT
BRANCH   2   4
HETATM    4  C   UNL     1     -12.090  14.131  70.556  1.00  0.00    -0.350 C  
HETATM    5  C   UNL     1     -12.682  15.438  71.106  1.00  0.00    -0.503 C  
BRANCH   4   6
HETATM    6  C   UNL     1     -12.221  14.060  69.011  1.00  0.00    -0.280 C  
BRANCH   6   7
HETATM    7  C   UNL     1     -10.922  13.707  68.320  1.00  0.00    -0.275 A  
HETATM    8  C   UNL     1     -10.427  12.396  68.362  1.00  0.00    -0.245 A  
HETATM    9  C   UNL     1      -9.175  12.097  67.827  1.00  0.00    -0.189 A  
HETATM   10  C   UNL     1      -8.414  13.100  67.230  1.00  0.00    -0.199 A  
HETATM   11  C   UNL     1      -8.911  14.398  67.150  1.00  0.00    -0.245 A  
HETATM   12  C   UNL     1     -10.162  14.702  67.688  1.00  0.00    -0.232 A  
ENDBRANCH   6   7
ENDBRANCH   4   6
ENDBRANCH   2   4
TORSDOF 3
ENDMDL
MODEL      120
REMARK 921   NORMALIZED FREE ENERGY PREDICTED BY IDOCK:   -2.89 KCAL/MOL
REMARK 922        TOTAL FREE ENERGY PREDICTED BY IDOCK:   -3.63 KCAL/MOL
REMARK 923 INTER-LIGAND FREE ENERGY PREDICTED BY IDOCK:   -3.46 KCAL/MOL
REMARK 924 INTRA-LIGAND FREE ENERGY PREDICTED BY IDOCK:   -0.17 KCAL/MOL
REMARK 927      BINDING AFFINITY PREDICTED BY RF-SCORE:    0.00 PKD
ROOT
HETATM    1  C   UNL     1      -8.746  11.478  67.264  1.00  0.00    -0.151 C  
HETATM    2  N   UNL     1      -9.767  10.438  67.263  1.00  0.00    -0.162 NA 
HETATM    3  H   UNL     1      -9.342   9.514  67.338  1.00  0.00     0.000 HD 
ENDROOT
BRANCH   2   4
HETATM    4  C   UNL     1     -10.793  10.629  68.305  1.00  0.00    -0.241 C  
HETATM    5  C   UNL     1     -11.637  11.886  68.044  1.00  0.00    -0.401 C  
BRANCH   4   6
HETATM    6  C   UNL     1     -10.082  10.704  69.683  1.00  0.00    -0.120 C  
BRANCH   6   7
HETATM    7  C   UNL     1     -10.632   9.718  70.690  1.00  0.00    -0.382 A  
HETATM    8  C   UNL     1     -12.016   9.548  70.835  1.00  0.00    -0.372 A  
HETATM    9  C   UNL     1     -12.525   8.728  71.842  1.00  0.00    -0.434 A  
HETATM   10  C   UNL     1     -11.657   8.058  72.701  1.00  0.00    -0.448 A  
HETATM   11  C   UNL     1     -10.279   8.191  72.542  1.00  0.00    -0.383 A  
HETATM   12  C   UNL     1      -9.767   9.014  71.539  1.00  0.00    -0.365 A  
ENDBRANCH   6   7
ENDBRANCH   4   6
ENDBRANCH   2   4
TORSDOF 3
ENDMDL
MODEL      121
REMARK 921   NORMALIZED FREE ENERGY PREDICTED BY IDOCK:   -2.89 KCAL/MOL
REMARK 922        TOTAL FREE ENERGY PREDICTED BY IDOCK:   -3.62 KCAL/MOL
REMARK 923 INTER-LIGAND FREE ENERGY PREDICTED BY IDOCK:   -3.39 KCAL/MOL
REMARK 924 INTRA-LIGAND FREE ENERGY PREDICTED BY IDOCK:   -0.23 KCAL/MOL
REMARK 927      BINDING AFFINITY PREDICTED BY RF-SCORE:    0.00 PKD
ROOT
HETATM    1  C   UNL     1     -13.233   9.351  71.468  1.00  0.00    -0.384 C  
HETATM    2  N   UNL     1     -12.096   8.958  70.645  1.00  0.00    -0.483 NA 
HETATM    3  H   UNL     1     -11.590   9.778  70.310  1.00  0.00     0.000 HD 
ENDROOT
BRANCH   2   4
HETATM    4  C   UNL     1     -11.184   8.019  71.323  1.00  0.00    -0.256 C  
HETATM    5  C   UNL     1      -9.722   8.477  71.221  1.00  0.00    -0.270 C  
BRANCH   4   6
HETATM    6  C   UNL     1     -11.378   6.611  70.696  1.00  0.00    -0.401 C  
BRANCH   6   7
HETATM    7  C   UNL     1     -10.770   5.502  71.527  1.00  0.00    -0.290 A  
HETATM    8  C   UNL     1      -9.782   4.668  70.985  1.00  0.00    -0.258 A  
HETATM    9  C   UNL     1      -9.306   3.575  71.708  1.00  0.00    -0.198 A  
HETATM   10  C   UNL     1      -9.800   3.315  72.985  1.00  0.00    -0.193 A  
HETATM   11  C   UNL     1     -10.754   4.159  73.548  1.00  0.00    -0.310 A  
HETATM   12  C   UNL     1     -11.235   5.251  72.826  1.00  0.00    -0.347 A  
ENDBRANCH   6   7
ENDBRANCH   4   6
ENDBRANCH   2   4
TORSDOF 3
ENDMDL
MODEL      122
REMARK 921   NORMALIZED FREE ENERGY PREDICTED BY IDOCK:   -2.87 KCAL/MOL
REMARK 922        TOTAL FREE ENERGY PREDICTED BY IDOCK:   -3.60 KCAL/MOL
REMARK 923 INTER-LIGAND FREE ENERGY PREDICTED BY IDOCK:   -3.39 KCAL/MOL
REMARK 924 INTRA-LIGAND FREE ENERGY PREDICTED BY IDOCK:   -0.21 KCAL/MOL
REMARK 927      BINDING AFFINITY PREDICTED BY RF-SCORE:    0.00 PKD
ROOT
HETATM    1  C   UNL     1     -11.993  14.154  64.701  1.00  0.00    -0.445 C  
HETATM    2  N   UNL     1     -12.089  13.386  65.935  1.00  0.00    -0.415 NA 
HETATM    3  H   UNL     1     -11.902  12.398  65.763  1.00  0.00     0.000 HD 
ENDROOT
BRANCH   2   4
HETATM    4  C   UNL     1     -11.224  13.903  67.011  1.00  0.00    -0.313 C  
HETATM    5  C   UNL     1     -11.761  13.526  68.400  1.00  0.00    -0.393 C  
BRANCH   4   6
HETATM    6  C   UNL     1     -11.112  15.444  66.850  1.00  0.00    -0.256 C  
BRANCH   6   7
HETATM    7  C   UNL     1      -9.686  15.946  66.912  1.00  0.00    -0.241 A  
HETATM    8  C   UNL     1      -9.393  17.289  66.636  1.00  0.00    -0.276 A  
HETATM    9  C   UNL     1      -8.070  17.725  66.577  1.00  0.00    -0.305 A  
HETATM   10  C   UNL     1      -7.029  16.828  66.812  1.00  0.00    -0.269 A  
HETATM   11  C   UNL     1      -7.310  15.500  67.125  1.00  0.00    -0.226 A  
HETATM   12  C   UNL     1      -8.633  15.060  67.179  1.00  0.00    -0.246 A  
ENDBRANCH   6   7
ENDBRANCH   4   6
ENDBRANCH   2   4
TORSDOF 3
ENDMDL
MODEL      123
REMARK 921   NORMALIZED FREE ENERGY PREDICTED BY IDOCK:   -2.84 KCAL/MOL
REMARK 922        TOTAL FREE ENERGY PREDICTED BY IDOCK:   -3.57 KCAL/MOL
REMARK 923 INTER-LIGAND FREE ENERGY PREDICTED BY IDOCK:   -3.40 KCAL/MOL
REMARK 924 INTRA-LIGAND FREE ENERGY PREDICTED BY IDOCK:   -0.17 KCAL/MOL
REMARK 927      BINDING AFFINITY PREDICTED BY RF-SCORE:    0.00 PKD
ROOT
HETATM    1  C   UNL     1     -10.456  12.837  64.020  1.00  0.00    -0.406 C  
HETATM    2  N   UNL     1      -9.889  12.124  65.157  1.00  0.00    -0.378 NA 
HETATM    3  H   UNL     1      -9.156  12.676  65.602  1.00  0.00     0.000 HD 
ENDROOT
BRANCH   2   4
HETATM    4  C   UNL     1     -10.901  11.706  66.145  1.00  0.00    -0.294 C  
HETATM    5  C   UNL     1     -11.950  12.803  66.381  1.00  0.00    -0.443 C  
BRANCH   4   6
HETATM    6  C   UNL     1     -10.172  11.331  67.463  1.00  0.00    -0.217 C  
BRANCH   6   7
HETATM    7  C   UNL     1     -10.197   9.846  67.755  1.00  0.00    -0.241 A  
HETATM    8  C   UNL     1     -10.176   8.915  66.707  1.00  0.00    -0.348 A  
HETATM    9  C   UNL     1     -10.317   7.553  66.969  1.00  0.00    -0.395 A  
HETATM   10  C   UNL     1     -10.463   7.107  68.281  1.00  0.00    -0.235 A  
HETATM   11  C   UNL     1     -10.449   8.020  69.333  1.00  0.00    -0.223 A  
HETATM   12  C   UNL     1     -10.312   9.384  69.074  1.00  0.00    -0.224 A  
ENDBRANCH   6   7
ENDBRANCH   4   6
ENDBRANCH   2   4
TORSDOF 3
ENDMDL
MODEL      124
REMARK 921   NORMALIZED FREE ENERGY PREDICTED BY IDOCK:   -2.84 KCAL/MOL
REMARK 922        TOTAL FREE ENERGY PREDICTED BY IDOCK:   -3.57 KCAL/MOL
REMARK 923 INTER-LIGAND FREE ENERGY PREDICTED BY IDOCK:   -3.32 KCAL/MOL
REMARK 924 INTRA-LIGAND FREE ENERGY PREDICTED BY IDOCK:   -0.25 KCAL/MOL
REMARK 927      BINDING AFFINITY PREDICTED BY RF-SCORE:    0.00 PKD
ROOT
HETATM    1  C   UNL     1     -12.597  12.801  64.279  1.00  0.00    -0.324 C  
HETATM    2  N   UNL     1     -11.825  11.920  63.412  1.00  0.00    -0.723 NA 
HETATM    3  H   UNL     1     -11.916  12.201  62.436  1.00  0.00     0.000 HD 
ENDROOT
BRANCH   2   4
HETATM    4  C   UNL     1     -10.406  11.819  63.799  1.00  0.00    -0.410 C  
HETATM    5  C   UNL     1      -9.584  11.063  62.745  1.00  0.00    -0.337 C  
BRANCH   4   6
HETATM    6  C   UNL     1     -10.325  11.120  65.184  1.00  0.00    -0.354 C  
BRANCH   6   7
HETATM    7  C   UNL     1      -9.412  11.833  66.157  1.00  0.00    -0.240 A  
HETATM    8  C   UNL     1      -9.774  13.078  66.690  1.00  0.00    -0.256 A  
HETATM    9  C   UNL     1      -8.883  13.789  67.493  1.00  0.00    -0.197 A  
HETATM   10  C   UNL     1      -7.630  13.254  67.786  1.00  0.00    -0.161 A  
HETATM   11  C   UNL     1      -7.274  12.001  67.292  1.00  0.00    -0.150 A  
HETATM   12  C   UNL     1      -8.162  11.290  66.484  1.00  0.00    -0.165 A  
ENDBRANCH   6   7
ENDBRANCH   4   6
ENDBRANCH   2   4
TORSDOF 3
ENDMDL
MODEL      125
REMARK 921   NORMALIZED FREE ENERGY PREDICTED BY IDOCK:   -2.84 KCAL/MOL
REMARK 922        TOTAL FREE ENERGY PREDICTED BY IDOCK:   -3.56 KCAL/MOL
REMARK 923 INTER-LIGAND FREE ENERGY PREDICTED BY IDOCK:   -3.33 KCAL/MOL
REMARK 924 INTRA-LIGAND FREE ENERGY PREDICTED BY IDOCK:   -0.24 KCAL/MOL
REMARK 927      BINDING AFFINITY PREDICTED BY RF-SCORE:    0.00 PKD
ROOT
HETATM    1  C   UNL     1      -8.415   6.543  66.926  1.00  0.00    -0.114 C  
HETATM    2  N   UNL     1      -8.740   6.557  68.346  1.00  0.00    -0.122 NA 
HETATM    3  H   UNL     1      -7.940   6.865  68.897  1.00  0.00     0.000 HD 
ENDROOT
BRANCH   2   4
HETATM    4  C   UNL     1      -9.936   7.360  68.661  1.00  0.00    -0.169 C  
HETATM    5  C   UNL     1     -10.764   7.661  67.403  1.00  0.00    -0.318 C  
BRANCH   4   6
HETATM    6  C   UNL     1      -9.475   8.669  69.358  1.00  0.00    -0.161 C  
BRANCH   6   7
HETATM    7  C   UNL     1     -10.570   9.328  70.168  1.00  0.00    -0.266 A  
HETATM    8  C   UNL     1     -11.151   8.660  71.255  1.00  0.00    -0.336 A  
HETATM    9  C   UNL     1     -12.238   9.217  71.927  1.00  0.00    -0.449 A  
HETATM   10  C   UNL     1     -12.743  10.454  71.532  1.00  0.00    -0.564 A  
HETATM   11  C   UNL     1     -12.150  11.144  70.477  1.00  0.00    -0.474 A  
HETATM   12  C   UNL     1     -11.065  10.587  69.800  1.00  0.00    -0.354 A  
ENDBRANCH   6   7
ENDBRANCH   4   6
ENDBRANCH   2   4
TORSDOF 3
ENDMDL
MODEL      126
REMARK 921   NORMALIZED FREE ENERGY PREDICTED BY IDOCK:   -2.82 KCAL/MOL
REMARK 922        TOTAL FREE ENERGY PREDICTED BY IDOCK:   -3.54 KCAL/MOL
REMARK 923 INTER-LIGAND FREE ENERGY PREDICTED BY IDOCK:   -3.50 KCAL/MOL
REMARK 924 INTRA-LIGAND FREE ENERGY PREDICTED BY IDOCK:   -0.04 KCAL/MOL
REMARK 927      BINDING AFFINITY PREDICTED BY RF-SCORE:    0.00 PKD
ROOT
HETATM    1  C   UNL     1     -10.044  16.486  68.397  1.00  0.00    -0.255 C  
HETATM    2  N   UNL     1     -11.119  15.995  67.545  1.00  0.00    -0.261 NA 
HETATM    3  H   UNL     1     -11.355  16.681  66.827  1.00  0.00     0.000 HD 
ENDROOT
BRANCH   2   4
HETATM    4  C   UNL     1     -10.829  14.682  66.940  1.00  0.00    -0.305 C  
HETATM    5  C   UNL     1     -12.116  13.951  66.529  1.00  0.00    -0.484 C  
BRANCH   4   6
HETATM    6  C   UNL     1     -10.008  13.846  67.959  1.00  0.00    -0.241 C  
BRANCH   6   7
HETATM    7  C   UNL     1     -10.856  12.876  68.752  1.00  0.00    -0.277 A  
HETATM    8  C   UNL     1     -11.548  13.306  69.893  1.00  0.00    -0.260 A  
HETATM    9  C   UNL     1     -12.234  12.390  70.690  1.00  0.00    -0.368 A  
HETATM   10  C   UNL     1     -12.247  11.039  70.346  1.00  0.00    -0.461 A  
HETATM   11  C   UNL     1     -11.594  10.607  69.194  1.00  0.00    -0.342 A  
HETATM   12  C   UNL     1     -10.904  11.521  68.397  1.00  0.00    -0.250 A  
ENDBRANCH   6   7
ENDBRANCH   4   6
ENDBRANCH   2   4
TORSDOF 3
ENDMDL
MODEL      127
REMARK 921   NORMALIZED FREE ENERGY PREDICTED BY IDOCK:   -2.81 KCAL/MOL
REMARK 922        TOTAL FREE ENERGY PREDICTED BY IDOCK:   -3.53 KCAL/MOL
REMARK 923 INTER-LIGAND FREE ENERGY PREDICTED BY IDOCK:   -3.33 KCAL/MOL
REMARK 924 INTRA-LIGAND FREE ENERGY PREDICTED BY IDOCK:   -0.21 KCAL/MOL
REMARK 927      BINDING AFFINITY PREDICTED BY RF-SCORE:    0.00 PKD
ROOT
HETATM    1  C   UNL     1      -6.730   7.106  71.585  1.00  0.00    -0.055 C  
HETATM    2  N   UNL     1      -7.265   8.110  70.674  1.00  0.00    -0.051 NA 
HETATM    3  H   UNL     1      -6.775   8.085  69.780  1.00  0.00     0.000 HD 
ENDROOT
BRANCH   2   4
HETATM    4  C   UNL     1      -8.722   7.999  70.477  1.00  0.00    -0.135 C  
HETATM    5  C   UNL     1      -9.063   7.146  69.246  1.00  0.00    -0.137 C  
BRANCH   4   6
HETATM    6  C   UNL     1      -9.308   9.431  70.351  1.00  0.00    -0.317 C  
BRANCH   6   7
HETATM    7  C   UNL     1     -10.659   9.581  71.016  1.00  0.00    -0.392 A  
HETATM    8  C   UNL     1     -11.097   8.638  71.957  1.00  0.00    -0.437 A  
HETATM    9  C   UNL     1     -12.386   8.711  72.482  1.00  0.00    -0.378 A  
HETATM   10  C   UNL     1     -13.244   9.735  72.086  1.00  0.00    -0.530 A  
HETATM   11  C   UNL     1     -12.806  10.699  71.180  1.00  0.00    -0.518 A  
HETATM   12  C   UNL     1     -11.518  10.626  70.650  1.00  0.00    -0.374 A  
ENDBRANCH   6   7
ENDBRANCH   4   6
ENDBRANCH   2   4
TORSDOF 3
ENDMDL
MODEL      128
REMARK 921   NORMALIZED FREE ENERGY PREDICTED BY IDOCK:   -2.81 KCAL/MOL
REMARK 922        TOTAL FREE ENERGY PREDICTED BY IDOCK:   -3.53 KCAL/MOL
REMARK 923 INTER-LIGAND FREE ENERGY PREDICTED BY IDOCK:   -3.35 KCAL/MOL
REMARK 924 INTRA-LIGAND FREE ENERGY PREDICTED BY IDOCK:   -0.18 KCAL/MOL
REMARK 927      BINDING AFFINITY PREDICTED BY RF-SCORE:    0.00 PKD
ROOT
HETATM    1  C   UNL     1     -13.073   7.188  71.594  1.00  0.00    -0.361 C  
HETATM    2  N   UNL     1     -12.173   7.492  70.490  1.00  0.00    -0.525 NA 
HETATM    3  H   UNL     1     -12.678   7.933  69.721  1.00  0.00     0.000 HD 
ENDROOT
BRANCH   2   4
HETATM    4  C   UNL     1     -11.014   8.310  70.893  1.00  0.00    -0.246 C  
HETATM    5  C   UNL     1     -10.806   8.286  72.415  1.00  0.00    -0.421 C  
BRANCH   4   6
HETATM    6  C   UNL     1     -11.234   9.758  70.378  1.00  0.00    -0.362 C  
BRANCH   6   7
HETATM    7  C   UNL     1     -10.672   9.988  68.992  1.00  0.00    -0.244 A  
HETATM    8  C   UNL     1      -9.480   9.365  68.596  1.00  0.00    -0.147 A  
HETATM    9  C   UNL     1      -8.900   9.667  67.365  1.00  0.00    -0.134 A  
HETATM   10  C   UNL     1      -9.514  10.581  66.511  1.00  0.00    -0.200 A  
HETATM   11  C   UNL     1     -10.718  11.178  66.878  1.00  0.00    -0.322 A  
HETATM   12  C   UNL     1     -11.298  10.881  68.111  1.00  0.00    -0.383 A  
ENDBRANCH   6   7
ENDBRANCH   4   6
ENDBRANCH   2   4
TORSDOF 3
ENDMDL
MODEL      129
REMARK 921   NORMALIZED FREE ENERGY PREDICTED BY IDOCK:   -2.80 KCAL/MOL
REMARK 922        TOTAL FREE ENERGY PREDICTED BY IDOCK:   -3.52 KCAL/MOL
REMARK 923 INTER-LIGAND FREE ENERGY PREDICTED BY IDOCK:   -3.54 KCAL/MOL
REMARK 924 INTRA-LIGAND FREE ENERGY PREDICTED BY IDOCK:    0.02 KCAL/MOL
REMARK 927      BINDING AFFINITY PREDICTED BY RF-SCORE:    0.00 PKD
ROOT
HETATM    1  C   UNL     1     -12.068  12.250  63.575  1.00  0.00    -0.553 C  
HETATM    2  N   UNL     1     -11.333  11.656  64.684  1.00  0.00    -0.260 NA 
HETATM    3  H   UNL     1     -10.554  11.094  64.342  1.00  0.00     0.000 HD 
ENDROOT
BRANCH   2   4
HETATM    4  C   UNL     1     -10.872  12.647  65.673  1.00  0.00    -0.274 C  
HETATM    5  C   UNL     1     -11.607  12.494  67.013  1.00  0.00    -0.437 C  
BRANCH   4   6
HETATM    6  C   UNL     1     -11.077  14.066  65.076  1.00  0.00    -0.364 C  
BRANCH   6   7
HETATM    7  C   UNL     1     -10.276  15.132  65.790  1.00  0.00    -0.365 A  
HETATM    8  C   UNL     1      -9.311  14.778  66.743  1.00  0.00    -0.268 A  
HETATM    9  C   UNL     1      -8.657  15.761  67.484  1.00  0.00    -0.180 A  
HETATM   10  C   UNL     1      -8.947  17.107  67.268  1.00  0.00    -0.228 A  
HETATM   11  C   UNL     1      -9.876  17.472  66.297  1.00  0.00    -0.295 A  
HETATM   12  C   UNL     1     -10.536  16.490  65.557  1.00  0.00    -0.320 A  
ENDBRANCH   6   7
ENDBRANCH   4   6
ENDBRANCH   2   4
TORSDOF 3
ENDMDL
MODEL      130
REMARK 921   NORMALIZED FREE ENERGY PREDICTED BY IDOCK:   -2.80 KCAL/MOL
REMARK 922        TOTAL FREE ENERGY PREDICTED BY IDOCK:   -3.52 KCAL/MOL
REMARK 923 INTER-LIGAND FREE ENERGY PREDICTED BY IDOCK:   -3.32 KCAL/MOL
REMARK 924 INTRA-LIGAND FREE ENERGY PREDICTED BY IDOCK:   -0.20 KCAL/MOL
REMARK 927      BINDING AFFINITY PREDICTED BY RF-SCORE:    0.00 PKD
ROOT
HETATM    1  C   UNL     1      -8.083   9.454  63.791  1.00  0.00    -0.155 C  
HETATM    2  N   UNL     1      -9.317   9.354  64.558  1.00  0.00    -0.439 NA 
HETATM    3  H   UNL     1      -9.728   8.425  64.465  1.00  0.00     0.000 HD 
ENDROOT
BRANCH   2   4
HETATM    4  C   UNL     1      -9.150   9.713  65.978  1.00  0.00    -0.171 C  
HETATM    5  C   UNL     1      -7.710   9.476  66.457  1.00  0.00    -0.097 C  
BRANCH   4   6
HETATM    6  C   UNL     1     -10.164   8.886  66.814  1.00  0.00    -0.348 C  
BRANCH   6   7
HETATM    7  C   UNL     1     -10.666   9.622  68.037  1.00  0.00    -0.284 A  
HETATM    8  C   UNL     1     -10.531   9.056  69.313  1.00  0.00    -0.238 A  
HETATM    9  C   UNL     1     -11.097   9.678  70.425  1.00  0.00    -0.346 A  
HETATM   10  C   UNL     1     -11.788  10.879  70.276  1.00  0.00    -0.450 A  
HETATM   11  C   UNL     1     -11.896  11.470  69.019  1.00  0.00    -0.408 A  
HETATM   12  C   UNL     1     -11.335  10.847  67.904  1.00  0.00    -0.380 A  
ENDBRANCH   6   7
ENDBRANCH   4   6
ENDBRANCH   2   4
TORSDOF 3
ENDMDL
MODEL      131
REMARK 921   NORMALIZED FREE ENERGY PREDICTED BY IDOCK:   -2.80 KCAL/MOL
REMARK 922        TOTAL FREE ENERGY PREDICTED BY IDOCK:   -3.52 KCAL/MOL
REMARK 923 INTER-LIGAND FREE ENERGY PREDICTED BY IDOCK:   -3.32 KCAL/MOL
REMARK 924 INTRA-LIGAND FREE ENERGY PREDICTED BY IDOCK:   -0.20 KCAL/MOL
REMARK 927      BINDING AFFINITY PREDICTED BY RF-SCORE:    0.00 PKD
ROOT
HETATM    1  C   UNL     1      -7.989   8.011  64.306  1.00  0.00    -0.137 C  
HETATM    2  N   UNL     1      -9.142   8.862  64.568  1.00  0.00    -0.419 NA 
HETATM    3  H   UNL     1     -10.007   8.325  64.519  1.00  0.00     0.000 HD 
ENDROOT
BRANCH   2   4
HETATM    4  C   UNL     1      -9.048   9.591  65.846  1.00  0.00    -0.184 C  
HETATM    5  C   UNL     1      -7.863   9.102  66.692  1.00  0.00    -0.100 C  
BRANCH   4   6
HETATM    6  C   UNL     1     -10.392   9.419  66.606  1.00  0.00    -0.284 C  
BRANCH   6   7
HETATM    7  C   UNL     1     -10.994  10.733  67.053  1.00  0.00    -0.292 A  
HETATM    8  C   UNL     1     -11.260  11.747  66.121  1.00  0.00    -0.363 A  
HETATM    9  C   UNL     1     -11.704  12.998  66.547  1.00  0.00    -0.437 A  
HETATM   10  C   UNL     1     -11.903  13.243  67.904  1.00  0.00    -0.388 A  
HETATM   11  C   UNL     1     -11.677  12.232  68.835  1.00  0.00    -0.380 A  
HETATM   12  C   UNL     1     -11.229  10.980  68.413  1.00  0.00    -0.337 A  
ENDBRANCH   6   7
ENDBRANCH   4   6
ENDBRANCH   2   4
TORSDOF 3
ENDMDL
MODEL      132
REMARK 921   NORMALIZED FREE ENERGY PREDICTED BY IDOCK:   -2.80 KCAL/MOL
REMARK 922        TOTAL FREE ENERGY PREDICTED BY IDOCK:   -3.52 KCAL/MOL
REMARK 923 INTER-LIGAND FREE ENERGY PREDICTED BY IDOCK:   -3.31 KCAL/MOL
REMARK 924 INTRA-LIGAND FREE ENERGY PREDICTED BY IDOCK:   -0.20 KCAL/MOL
REMARK 927      BINDING AFFINITY PREDICTED BY RF-SCORE:    0.00 PKD
ROOT
HETATM    1  C   UNL     1     -10.731   3.627  64.064  1.00  0.00    -0.239 C  
HETATM    2  N   UNL     1     -11.263   4.471  65.126  1.00  0.00    -1.047 NA 
HETATM    3  H   UNL     1     -12.025   4.001  65.615  1.00  0.00     0.000 HD 
ENDROOT
BRANCH   2   4
HETATM    4  C   UNL     1     -10.233   4.928  66.077  1.00  0.00    -0.257 C  
HETATM    5  C   UNL     1      -9.631   3.755  66.867  1.00  0.00    -0.207 C  
BRANCH   4   6
HETATM    6  C   UNL     1     -10.875   5.976  67.026  1.00  0.00    -0.413 C  
BRANCH   6   7
HETATM    7  C   UNL     1     -10.042   7.230  67.178  1.00  0.00    -0.306 A  
HETATM    8  C   UNL     1     -10.290   8.126  68.227  1.00  0.00    -0.241 A  
HETATM    9  C   UNL     1      -9.602   9.337  68.299  1.00  0.00    -0.160 A  
HETATM   10  C   UNL     1      -8.649   9.656  67.334  1.00  0.00    -0.125 A  
HETATM   11  C   UNL     1      -8.368   8.757  66.307  1.00  0.00    -0.120 A  
HETATM   12  C   UNL     1      -9.057   7.546  66.231  1.00  0.00    -0.198 A  
ENDBRANCH   6   7
ENDBRANCH   4   6
ENDBRANCH   2   4
TORSDOF 3
ENDMDL
MODEL      133
REMARK 921   NORMALIZED FREE ENERGY PREDICTED BY IDOCK:   -2.78 KCAL/MOL
REMARK 922        TOTAL FREE ENERGY PREDICTED BY IDOCK:   -3.49 KCAL/MOL
REMARK 923 INTER-LIGAND FREE ENERGY PREDICTED BY IDOCK:   -3.28 KCAL/MOL
REMARK 924 INTRA-LIGAND FREE ENERGY PREDICTED BY IDOCK:   -0.22 KCAL/MOL
REMARK 927      BINDING AFFINITY PREDICTED BY RF-SCORE:    0.00 PKD
ROOT
HETATM    1  C   UNL     1     -10.865  10.329  70.103  1.00  0.00    -0.302 C  
HETATM    2  N   UNL     1      -9.999  11.105  69.226  1.00  0.00    -0.420 NA 
HETATM    3  H   UNL     1      -9.649  10.530  68.460  1.00  0.00     0.000 HD 
ENDROOT
BRANCH   2   4
HETATM    4  C   UNL     1     -10.640  12.330  68.711  1.00  0.00    -0.194 C  
HETATM    5  C   UNL     1     -11.659  12.014  67.605  1.00  0.00    -0.392 C  
BRANCH   4   6
HETATM    6  C   UNL     1      -9.528  13.284  68.196  1.00  0.00    -0.222 C  
BRANCH   6   7
HETATM    7  C   UNL     1      -9.973  14.728  68.119  1.00  0.00    -0.221 A  
HETATM    8  C   UNL     1     -10.050  15.383  66.882  1.00  0.00    -0.258 A  
HETATM    9  C   UNL     1     -10.345  16.744  66.821  1.00  0.00    -0.293 A  
HETATM   10  C   UNL     1     -10.584  17.459  67.993  1.00  0.00    -0.389 A  
HETATM   11  C   UNL     1     -10.546  16.810  69.225  1.00  0.00    -0.336 A  
HETATM   12  C   UNL     1     -10.247  15.449  69.290  1.00  0.00    -0.250 A  
ENDBRANCH   6   7
ENDBRANCH   4   6
ENDBRANCH   2   4
TORSDOF 3
ENDMDL
MODEL      134
REMARK 921   NORMALIZED FREE ENERGY PREDICTED BY IDOCK:   -2.78 KCAL/MOL
REMARK 922        TOTAL FREE ENERGY PREDICTED BY IDOCK:   -3.49 KCAL/MOL
REMARK 923 INTER-LIGAND FREE ENERGY PREDICTED BY IDOCK:   -3.28 KCAL/MOL
REMARK 924 INTRA-LIGAND FREE ENERGY PREDICTED BY IDOCK:   -0.22 KCAL/MOL
REMARK 927      BINDING AFFINITY PREDICTED BY RF-SCORE:    0.00 PKD
ROOT
HETATM    1  C   UNL     1     -12.264  12.689  63.590  1.00  0.00    -0.536 C  
HETATM    2  N   UNL     1     -11.086  12.073  62.993  1.00  0.00    -0.662 NA 
HETATM    3  H   UNL     1     -10.653  12.700  62.316  1.00  0.00     0.000 HD 
ENDROOT
BRANCH   2   4
HETATM    4  C   UNL     1     -10.101  11.616  63.990  1.00  0.00    -0.323 C  
HETATM    5  C   UNL     1      -9.268  10.437  63.464  1.00  0.00    -0.310 C  
BRANCH   4   6
HETATM    6  C   UNL     1     -10.861  11.232  65.289  1.00  0.00    -0.261 C  
BRANCH   6   7
HETATM    7  C   UNL     1      -9.955  10.681  66.367  1.00  0.00    -0.273 A  
HETATM    8  C   UNL     1     -10.060   9.342  66.769  1.00  0.00    -0.331 A  
HETATM    9  C   UNL     1      -9.307   8.865  67.842  1.00  0.00    -0.155 A  
HETATM   10  C   UNL     1      -8.431   9.716  68.512  1.00  0.00    -0.118 A  
HETATM   11  C   UNL     1      -8.291  11.039  68.098  1.00  0.00    -0.130 A  
HETATM   12  C   UNL     1      -9.045  11.520  67.028  1.00  0.00    -0.175 A  
ENDBRANCH   6   7
ENDBRANCH   4   6
ENDBRANCH   2   4
TORSDOF 3
ENDMDL
MODEL      135
REMARK 921   NORMALIZED FREE ENERGY PREDICTED BY IDOCK:   -2.77 KCAL/MOL
REMARK 922        TOTAL FREE ENERGY PREDICTED BY IDOCK:   -3.48 KCAL/MOL
REMARK 923 INTER-LIGAND FREE ENERGY PREDICTED BY IDOCK:   -3.29 KCAL/MOL
REMARK 924 INTRA-LIGAND FREE ENERGY PREDICTED BY IDOCK:   -0.19 KCAL/MOL
REMARK 927      BINDING AFFINITY PREDICTED BY RF-SCORE:    0.00 PKD
ROOT
HETATM    1  C   UNL     1      -9.282  17.257  68.041  1.00  0.00    -0.256 C  
HETATM    2  N   UNL     1     -10.689  17.167  68.407  1.00  0.00    -0.365 NA 
HETATM    3  H   UNL     1     -11.285  17.278  67.587  1.00  0.00     0.000 HD 
ENDROOT
BRANCH   2   4
HETATM    4  C   UNL     1     -11.023  15.927  69.133  1.00  0.00    -0.284 C  
HETATM    5  C   UNL     1     -11.223  16.187  70.634  1.00  0.00    -0.371 C  
BRANCH   4   6
HETATM    6  C   UNL     1      -9.889  14.896  68.886  1.00  0.00    -0.230 C  
BRANCH   6   7
HETATM    7  C   UNL     1     -10.267  13.825  67.886  1.00  0.00    -0.245 A  
HETATM    8  C   UNL     1      -9.286  13.211  67.095  1.00  0.00    -0.227 A  
HETATM    9  C   UNL     1      -9.646  12.311  66.094  1.00  0.00    -0.248 A  
HETATM   10  C   UNL     1     -10.989  12.001  65.885  1.00  0.00    -0.342 A  
HETATM   11  C   UNL     1     -11.970  12.576  66.690  1.00  0.00    -0.351 A  
HETATM   12  C   UNL     1     -11.612  13.481  67.690  1.00  0.00    -0.374 A  
ENDBRANCH   6   7
ENDBRANCH   4   6
ENDBRANCH   2   4
TORSDOF 3
ENDMDL
MODEL      136
REMARK 921   NORMALIZED FREE ENERGY PREDICTED BY IDOCK:   -2.76 KCAL/MOL
REMARK 922        TOTAL FREE ENERGY PREDICTED BY IDOCK:   -3.47 KCAL/MOL
REMARK 923 INTER-LIGAND FREE ENERGY PREDICTED BY IDOCK:   -3.31 KCAL/MOL
REMARK 924 INTRA-LIGAND FREE ENERGY PREDICTED BY IDOCK:   -0.16 KCAL/MOL
REMARK 927      BINDING AFFINITY PREDICTED BY RF-SCORE:    0.00 PKD
ROOT
HETATM    1  C   UNL     1      -6.498  14.221  69.130  1.00  0.00    -0.109 C  
HETATM    2  N   UNL     1      -6.831  15.133  68.043  1.00  0.00    -0.126 NA 
HETATM    3  H   UNL     1      -7.669  14.822  67.553  1.00  0.00     0.000 HD 
ENDROOT
BRANCH   2   4
HETATM    4  C   UNL     1      -6.968  16.534  68.481  1.00  0.00    -0.154 C  
HETATM    5  C   UNL     1      -6.151  16.812  69.752  1.00  0.00    -0.224 C  
BRANCH   4   6
HETATM    6  C   UNL     1      -8.476  16.831  68.704  1.00  0.00    -0.259 C  
BRANCH   6   7
HETATM    7  C   UNL     1      -8.968  18.028  67.920  1.00  0.00    -0.265 A  
HETATM    8  C   UNL     1      -8.351  19.278  68.070  1.00  0.00    -0.350 A  
HETATM    9  C   UNL     1      -8.877  20.405  67.439  1.00  0.00    -0.430 A  
HETATM   10  C   UNL     1     -10.013  20.290  66.640  1.00  0.00    -0.561 A  
HETATM   11  C   UNL     1     -10.612  19.046  66.454  1.00  0.00    -0.492 A  
HETATM   12  C   UNL     1     -10.090  17.918  67.088  1.00  0.00    -0.340 A  
ENDBRANCH   6   7
ENDBRANCH   4   6
ENDBRANCH   2   4
TORSDOF 3
ENDMDL
MODEL      137
REMARK 921   NORMALIZED FREE ENERGY PREDICTED BY IDOCK:   -2.76 KCAL/MOL
REMARK 922        TOTAL FREE ENERGY PREDICTED BY IDOCK:   -3.47 KCAL/MOL
REMARK 923 INTER-LIGAND FREE ENERGY PREDICTED BY IDOCK:   -3.28 KCAL/MOL
REMARK 924 INTRA-LIGAND FREE ENERGY PREDICTED BY IDOCK:   -0.19 KCAL/MOL
REMARK 927      BINDING AFFINITY PREDICTED BY RF-SCORE:    0.00 PKD
ROOT
HETATM    1  C   UNL     1      -9.334  11.100  65.643  1.00  0.00    -0.219 C  
HETATM    2  N   UNL     1      -9.638  12.401  65.062  1.00  0.00    -0.462 NA 
HETATM    3  H   UNL     1      -9.774  12.325  64.054  1.00  0.00     0.000 HD 
ENDROOT
BRANCH   2   4
HETATM    4  C   UNL     1     -10.790  13.067  65.697  1.00  0.00    -0.273 C  
HETATM    5  C   UNL     1     -12.124  12.528  65.158  1.00  0.00    -0.503 C  
BRANCH   4   6
HETATM    6  C   UNL     1     -10.663  14.596  65.459  1.00  0.00    -0.360 C  
BRANCH   6   7
HETATM    7  C   UNL     1      -9.903  15.308  66.556  1.00  0.00    -0.283 A  
HETATM    8  C   UNL     1      -9.249  16.521  66.296  1.00  0.00    -0.345 A  
HETATM    9  C   UNL     1      -8.452  17.116  67.273  1.00  0.00    -0.211 A  
HETATM   10  C   UNL     1      -8.314  16.515  68.522  1.00  0.00    -0.210 A  
HETATM   11  C   UNL     1      -8.989  15.330  68.804  1.00  0.00    -0.200 A  
HETATM   12  C   UNL     1      -9.784  14.729  67.827  1.00  0.00    -0.213 A  
ENDBRANCH   6   7
ENDBRANCH   4   6
ENDBRANCH   2   4
TORSDOF 3
ENDMDL
MODEL      138
REMARK 921   NORMALIZED FREE ENERGY PREDICTED BY IDOCK:   -2.75 KCAL/MOL
REMARK 922        TOTAL FREE ENERGY PREDICTED BY IDOCK:   -3.46 KCAL/MOL
REMARK 923 INTER-LIGAND FREE ENERGY PREDICTED BY IDOCK:   -3.23 KCAL/MOL
REMARK 924 INTRA-LIGAND FREE ENERGY PREDICTED BY IDOCK:   -0.23 KCAL/MOL
REMARK 927      BINDING AFFINITY PREDICTED BY RF-SCORE:    0.00 PKD
ROOT
HETATM    1  C   UNL     1      -7.436  10.085  65.725  1.00  0.00    -0.121 C  
HETATM    2  N   UNL     1      -8.336  11.180  65.390  1.00  0.00    -0.377 NA 
HETATM    3  H   UNL     1      -8.511  11.211  64.386  1.00  0.00     0.000 HD 
ENDROOT
BRANCH   2   4
HETATM    4  C   UNL     1      -9.604  11.142  66.141  1.00  0.00    -0.210 C  
HETATM    5  C   UNL     1     -10.779  11.658  65.297  1.00  0.00    -0.346 C  
BRANCH   4   6
HETATM    6  C   UNL     1      -9.430  11.981  67.436  1.00  0.00    -0.177 C  
BRANCH   6   7
HETATM    7  C   UNL     1     -10.108  11.364  68.640  1.00  0.00    -0.217 A  
HETATM    8  C   UNL     1      -9.497  10.316  69.342  1.00  0.00    -0.225 A  
HETATM    9  C   UNL     1     -10.172   9.670  70.376  1.00  0.00    -0.348 A  
HETATM   10  C   UNL     1     -11.457  10.076  70.731  1.00  0.00    -0.438 A  
HETATM   11  C   UNL     1     -12.060  11.141  70.066  1.00  0.00    -0.437 A  
HETATM   12  C   UNL     1     -11.388  11.787  69.027  1.00  0.00    -0.338 A  
ENDBRANCH   6   7
ENDBRANCH   4   6
ENDBRANCH   2   4
TORSDOF 3
ENDMDL
MODEL      139
REMARK 921   NORMALIZED FREE ENERGY PREDICTED BY IDOCK:   -2.75 KCAL/MOL
REMARK 922        TOTAL FREE ENERGY PREDICTED BY IDOCK:   -3.46 KCAL/MOL
REMARK 923 INTER-LIGAND FREE ENERGY PREDICTED BY IDOCK:   -3.24 KCAL/MOL
REMARK 924 INTRA-LIGAND FREE ENERGY PREDICTED BY IDOCK:   -0.22 KCAL/MOL
REMARK 927      BINDING AFFINITY PREDICTED BY RF-SCORE:    0.00 PKD
ROOT
HETATM    1  C   UNL     1      -7.294  12.016  67.364  1.00  0.00    -0.150 C  
HETATM    2  N   UNL     1      -6.845  13.400  67.298  1.00  0.00    -0.409 NA 
HETATM    3  H   UNL     1      -6.124  13.513  66.586  1.00  0.00     0.000 HD 
ENDROOT
BRANCH   2   4
HETATM    4  C   UNL     1      -7.945  14.359  67.088  1.00  0.00    -0.119 C  
HETATM    5  C   UNL     1      -7.667  15.701  67.783  1.00  0.00    -0.159 C  
BRANCH   4   6
HETATM    6  C   UNL     1      -9.259  13.717  67.608  1.00  0.00    -0.213 C  
BRANCH   6   7
HETATM    7  C   UNL     1     -10.370  13.721  66.581  1.00  0.00    -0.279 A  
HETATM    8  C   UNL     1     -11.697  13.952  66.969  1.00  0.00    -0.426 A  
HETATM    9  C   UNL     1     -12.734  13.841  66.044  1.00  0.00    -0.407 A  
HETATM   10  C   UNL     1     -12.453  13.514  64.719  1.00  0.00    -0.402 A  
HETATM   11  C   UNL     1     -11.135  13.319  64.313  1.00  0.00    -0.414 A  
HETATM   12  C   UNL     1     -10.096  13.426  65.238  1.00  0.00    -0.266 A  
ENDBRANCH   6   7
ENDBRANCH   4   6
ENDBRANCH   2   4
TORSDOF 3
ENDMDL
MODEL      140
REMARK 921   NORMALIZED FREE ENERGY PREDICTED BY IDOCK:   -2.74 KCAL/MOL
REMARK 922        TOTAL FREE ENERGY PREDICTED BY IDOCK:   -3.44 KCAL/MOL
REMARK 923 INTER-LIGAND FREE ENERGY PREDICTED BY IDOCK:   -3.41 KCAL/MOL
REMARK 924 INTRA-LIGAND FREE ENERGY PREDICTED BY IDOCK:   -0.03 KCAL/MOL
REMARK 927      BINDING AFFINITY PREDICTED BY RF-SCORE:    0.00 PKD
ROOT
HETATM    1  C   UNL     1     -10.899  16.913  67.772  1.00  0.00    -0.281 C  
HETATM    2  N   UNL     1      -9.546  17.360  68.073  1.00  0.00    -0.268 NA 
HETATM    3  H   UNL     1      -8.894  17.055  67.351  1.00  0.00     0.000 HD 
ENDROOT
BRANCH   2   4
HETATM    4  C   UNL     1      -9.448  18.816  68.285  1.00  0.00    -0.349 C  
HETATM    5  C   UNL     1     -10.443  19.585  67.403  1.00  0.00    -0.593 C  
BRANCH   4   6
HETATM    6  C   UNL     1      -7.986  19.255  67.999  1.00  0.00    -0.339 C  
BRANCH   6   7
HETATM    7  C   UNL     1      -7.053  19.011  69.165  1.00  0.00    -0.330 A  
HETATM    8  C   UNL     1      -6.686  20.064  70.014  1.00  0.00    -0.217 A  
HETATM    9  C   UNL     1      -5.737  19.866  71.016  1.00  0.00    -0.329 A  
HETATM   10  C   UNL     1      -5.158  18.610  71.189  1.00  0.00    -0.274 A  
HETATM   11  C   UNL     1      -5.543  17.547  70.375  1.00  0.00    -0.209 A  
HETATM   12  C   UNL     1      -6.490  17.744  69.370  1.00  0.00    -0.226 A  
ENDBRANCH   6   7
ENDBRANCH   4   6
ENDBRANCH   2   4
TORSDOF 3
ENDMDL
MODEL      141
REMARK 921   NORMALIZED FREE ENERGY PREDICTED BY IDOCK:   -2.74 KCAL/MOL
REMARK 922        TOTAL FREE ENERGY PREDICTED BY IDOCK:   -3.44 KCAL/MOL
REMARK 923 INTER-LIGAND FREE ENERGY PREDICTED BY IDOCK:   -3.24 KCAL/MOL
REMARK 924 INTRA-LIGAND FREE ENERGY PREDICTED BY IDOCK:   -0.20 KCAL/MOL
REMARK 927      BINDING AFFINITY PREDICTED BY RF-SCORE:    0.00 PKD
ROOT
HETATM    1  C   UNL     1      -7.656  12.047  67.215  1.00  0.00    -0.157 C  
HETATM    2  N   UNL     1      -7.184  13.415  67.047  1.00  0.00    -0.358 NA 
HETATM    3  H   UNL     1      -6.841  13.567  66.099  1.00  0.00     0.000 HD 
ENDROOT
BRANCH   2   4
HETATM    4  C   UNL     1      -8.194  14.427  67.407  1.00  0.00    -0.199 C  
HETATM    5  C   UNL     1      -9.529  14.176  66.689  1.00  0.00    -0.303 C  
BRANCH   4   6
HETATM    6  C   UNL     1      -7.625  15.830  67.063  1.00  0.00    -0.257 C  
BRANCH   6   7
HETATM    7  C   UNL     1      -8.608  16.951  67.320  1.00  0.00    -0.212 A  
HETATM    8  C   UNL     1      -9.107  17.177  68.611  1.00  0.00    -0.268 A  
HETATM    9  C   UNL     1     -10.100  18.131  68.828  1.00  0.00    -0.392 A  
HETATM   10  C   UNL     1     -10.592  18.880  67.761  1.00  0.00    -0.471 A  
HETATM   11  C   UNL     1     -10.078  18.690  66.480  1.00  0.00    -0.426 A  
HETATM   12  C   UNL     1      -9.087  17.733  66.260  1.00  0.00    -0.198 A  
ENDBRANCH   6   7
ENDBRANCH   4   6
ENDBRANCH   2   4
TORSDOF 3
ENDMDL
MODEL      142
REMARK 921   NORMALIZED FREE ENERGY PREDICTED BY IDOCK:   -2.73 KCAL/MOL
REMARK 922        TOTAL FREE ENERGY PREDICTED BY IDOCK:   -3.44 KCAL/MOL
REMARK 923 INTER-LIGAND FREE ENERGY PREDICTED BY IDOCK:   -3.35 KCAL/MOL
REMARK 924 INTRA-LIGAND FREE ENERGY PREDICTED BY IDOCK:   -0.09 KCAL/MOL
REMARK 927      BINDING AFFINITY PREDICTED BY RF-SCORE:    0.00 PKD
ROOT
HETATM    1  C   UNL     1     -11.606  15.363  70.674  1.00  0.00    -0.332 C  
HETATM    2  N   UNL     1     -10.217  15.626  70.319  1.00  0.00    -0.293 NA 
HETATM    3  H   UNL     1      -9.722  14.756  70.123  1.00  0.00     0.000 HD 
ENDROOT
BRANCH   2   4
HETATM    4  C   UNL     1     -10.073  16.574  69.199  1.00  0.00    -0.287 C  
HETATM    5  C   UNL     1     -10.973  16.193  68.015  1.00  0.00    -0.338 C  
BRANCH   4   6
HETATM    6  C   UNL     1      -8.578  16.612  68.781  1.00  0.00    -0.261 C  
BRANCH   6   7
HETATM    7  C   UNL     1      -8.169  17.928  68.155  1.00  0.00    -0.269 A  
HETATM    8  C   UNL     1      -8.385  18.164  66.790  1.00  0.00    -0.270 A  
HETATM    9  C   UNL     1      -7.904  19.326  66.190  1.00  0.00    -0.313 A  
HETATM   10  C   UNL     1      -7.218  20.271  66.950  1.00  0.00    -0.316 A  
HETATM   11  C   UNL     1      -7.030  20.065  68.315  1.00  0.00    -0.330 A  
HETATM   12  C   UNL     1      -7.507  18.901  68.917  1.00  0.00    -0.338 A  
ENDBRANCH   6   7
ENDBRANCH   4   6
ENDBRANCH   2   4
TORSDOF 3
ENDMDL
MODEL      143
REMARK 921   NORMALIZED FREE ENERGY PREDICTED BY IDOCK:   -2.72 KCAL/MOL
REMARK 922        TOTAL FREE ENERGY PREDICTED BY IDOCK:   -3.43 KCAL/MOL
REMARK 923 INTER-LIGAND FREE ENERGY PREDICTED BY IDOCK:   -3.23 KCAL/MOL
REMARK 924 INTRA-LIGAND FREE ENERGY PREDICTED BY IDOCK:   -0.20 KCAL/MOL
REMARK 927      BINDING AFFINITY PREDICTED BY RF-SCORE:    0.00 PKD
ROOT
HETATM    1  C   UNL     1     -10.895  10.438  67.620  1.00  0.00    -0.306 C  
HETATM    2  N   UNL     1     -11.070  11.215  66.400  1.00  0.00    -0.202 NA 
HETATM    3  H   UNL     1     -11.744  10.768  65.779  1.00  0.00     0.000 HD 
ENDROOT
BRANCH   2   4
HETATM    4  C   UNL     1     -11.442  12.619  66.654  1.00  0.00    -0.351 C  
HETATM    5  C   UNL     1     -12.150  13.245  65.442  1.00  0.00    -0.464 C  
BRANCH   4   6
HETATM    6  C   UNL     1     -10.156  13.407  67.023  1.00  0.00    -0.247 C  
BRANCH   6   7
HETATM    7  C   UNL     1     -10.413  14.551  67.979  1.00  0.00    -0.236 A  
HETATM    8  C   UNL     1      -9.447  15.548  68.171  1.00  0.00    -0.198 A  
HETATM    9  C   UNL     1      -9.634  16.537  69.136  1.00  0.00    -0.228 A  
HETATM   10  C   UNL     1     -10.795  16.548  69.906  1.00  0.00    -0.285 A  
HETATM   11  C   UNL     1     -11.779  15.584  69.698  1.00  0.00    -0.371 A  
HETATM   12  C   UNL     1     -11.593  14.592  68.736  1.00  0.00    -0.343 A  
ENDBRANCH   6   7
ENDBRANCH   4   6
ENDBRANCH   2   4
TORSDOF 3
ENDMDL
MODEL      144
REMARK 921   NORMALIZED FREE ENERGY PREDICTED BY IDOCK:   -2.71 KCAL/MOL
REMARK 922        TOTAL FREE ENERGY PREDICTED BY IDOCK:   -3.41 KCAL/MOL
REMARK 923 INTER-LIGAND FREE ENERGY PREDICTED BY IDOCK:   -3.25 KCAL/MOL
REMARK 924 INTRA-LIGAND FREE ENERGY PREDICTED BY IDOCK:   -0.16 KCAL/MOL
REMARK 927      BINDING AFFINITY PREDICTED BY RF-SCORE:    0.00 PKD
ROOT
HETATM    1  C   UNL     1      -6.257  18.230  67.249  1.00  0.00    -0.168 C  
HETATM    2  N   UNL     1      -7.401  17.870  66.423  1.00  0.00    -0.242 NA 
HETATM    3  H   UNL     1      -7.566  16.864  66.451  1.00  0.00     0.000 HD 
ENDROOT
BRANCH   2   4
HETATM    4  C   UNL     1      -8.627  18.612  66.771  1.00  0.00    -0.288 C  
HETATM    5  C   UNL     1      -8.309  19.889  67.564  1.00  0.00    -0.366 C  
BRANCH   4   6
HETATM    6  C   UNL     1      -9.559  17.666  67.577  1.00  0.00    -0.267 C  
BRANCH   6   7
HETATM    7  C   UNL     1      -9.947  16.421  66.811  1.00  0.00    -0.277 A  
HETATM    8  C   UNL     1      -9.456  15.166  67.199  1.00  0.00    -0.224 A  
HETATM    9  C   UNL     1      -9.719  14.036  66.426  1.00  0.00    -0.309 A  
HETATM   10  C   UNL     1     -10.487  14.145  65.269  1.00  0.00    -0.402 A  
HETATM   11  C   UNL     1     -11.011  15.380  64.894  1.00  0.00    -0.453 A  
HETATM   12  C   UNL     1     -10.747  16.514  65.663  1.00  0.00    -0.257 A  
ENDBRANCH   6   7
ENDBRANCH   4   6
ENDBRANCH   2   4
TORSDOF 3
ENDMDL
MODEL      145
REMARK 921   NORMALIZED FREE ENERGY PREDICTED BY IDOCK:   -2.70 KCAL/MOL
REMARK 922        TOTAL FREE ENERGY PREDICTED BY IDOCK:   -3.41 KCAL/MOL
REMARK 923 INTER-LIGAND FREE ENERGY PREDICTED BY IDOCK:   -3.23 KCAL/MOL
REMARK 924 INTRA-LIGAND FREE ENERGY PREDICTED BY IDOCK:   -0.18 KCAL/MOL
REMARK 927      BINDING AFFINITY PREDICTED BY RF-SCORE:    0.00 PKD
ROOT
HETATM    1  C   UNL     1      -9.554  11.245  68.481  1.00  0.00    -0.198 C  
HETATM    2  N   UNL     1      -9.252  12.573  67.964  1.00  0.00    -0.199 NA 
HETATM    3  H   UNL     1      -8.622  12.516  67.164  1.00  0.00     0.000 HD 
ENDROOT
BRANCH   2   4
HETATM    4  C   UNL     1     -10.456  13.354  67.628  1.00  0.00    -0.241 C  
HETATM    5  C   UNL     1     -11.649  12.443  67.301  1.00  0.00    -0.435 C  
BRANCH   4   6
HETATM    6  C   UNL     1     -10.116  14.287  66.434  1.00  0.00    -0.295 C  
BRANCH   6   7
HETATM    7  C   UNL     1      -9.869  15.720  66.850  1.00  0.00    -0.243 A  
HETATM    8  C   UNL     1     -10.639  16.308  67.865  1.00  0.00    -0.318 A  
HETATM    9  C   UNL     1     -10.492  17.661  68.168  1.00  0.00    -0.386 A  
HETATM   10  C   UNL     1      -9.564  18.435  67.473  1.00  0.00    -0.293 A  
HETATM   11  C   UNL     1      -8.768  17.853  66.489  1.00  0.00    -0.278 A  
HETATM   12  C   UNL     1      -8.916  16.500  66.181  1.00  0.00    -0.344 A  
ENDBRANCH   6   7
ENDBRANCH   4   6
ENDBRANCH   2   4
TORSDOF 3
ENDMDL
MODEL      146
REMARK 921   NORMALIZED FREE ENERGY PREDICTED BY IDOCK:   -2.70 KCAL/MOL
REMARK 922        TOTAL FREE ENERGY PREDICTED BY IDOCK:   -3.40 KCAL/MOL
REMARK 923 INTER-LIGAND FREE ENERGY PREDICTED BY IDOCK:   -3.52 KCAL/MOL
REMARK 924 INTRA-LIGAND FREE ENERGY PREDICTED BY IDOCK:    0.13 KCAL/MOL
REMARK 927      BINDING AFFINITY PREDICTED BY RF-SCORE:    0.00 PKD
ROOT
HETATM    1  C   UNL     1     -13.046  11.531  71.786  1.00  0.00    -0.398 C  
HETATM    2  N   UNL     1     -12.165  10.411  71.481  1.00  0.00    -0.355 NA 
HETATM    3  H   UNL     1     -11.423  10.334  72.176  1.00  0.00     0.000 HD 
ENDROOT
BRANCH   2   4
HETATM    4  C   UNL     1     -12.881   9.131  71.334  1.00  0.00    -0.313 C  
HETATM    5  C   UNL     1     -13.665   8.771  72.605  1.00  0.00    -0.355 C  
BRANCH   4   6
HETATM    6  C   UNL     1     -11.845   8.029  70.981  1.00  0.00    -0.280 C  
BRANCH   6   7
HETATM    7  C   UNL     1     -10.667   7.995  71.930  1.00  0.00    -0.311 A  
HETATM    8  C   UNL     1      -9.459   8.619  71.587  1.00  0.00    -0.339 A  
HETATM    9  C   UNL     1      -8.339   8.489  72.407  1.00  0.00    -0.177 A  
HETATM   10  C   UNL     1      -8.419   7.749  73.585  1.00  0.00    -0.275 A  
HETATM   11  C   UNL     1      -9.624   7.156  73.955  1.00  0.00    -0.311 A  
HETATM   12  C   UNL     1     -10.745   7.281  73.135  1.00  0.00    -0.411 A  
ENDBRANCH   6   7
ENDBRANCH   4   6
ENDBRANCH   2   4
TORSDOF 3
ENDMDL
MODEL      147
REMARK 921   NORMALIZED FREE ENERGY PREDICTED BY IDOCK:   -2.69 KCAL/MOL
REMARK 922        TOTAL FREE ENERGY PREDICTED BY IDOCK:   -3.38 KCAL/MOL
REMARK 923 INTER-LIGAND FREE ENERGY PREDICTED BY IDOCK:   -3.33 KCAL/MOL
REMARK 924 INTRA-LIGAND FREE ENERGY PREDICTED BY IDOCK:   -0.05 KCAL/MOL
REMARK 927      BINDING AFFINITY PREDICTED BY RF-SCORE:    0.00 PKD
ROOT
HETATM    1  C   UNL     1      -7.233   9.859  64.433  1.00  0.00    -0.134 C  
HETATM    2  N   UNL     1      -8.042  11.048  64.665  1.00  0.00    -0.339 NA 
HETATM    3  H   UNL     1      -7.622  11.865  64.222  1.00  0.00     0.000 HD 
ENDROOT
BRANCH   2   4
HETATM    4  C   UNL     1      -9.446  10.887  64.244  1.00  0.00    -0.250 C  
HETATM    5  C   UNL     1      -9.608  11.075  62.728  1.00  0.00    -0.337 C  
BRANCH   4   6
HETATM    6  C   UNL     1     -10.313  11.905  65.034  1.00  0.00    -0.330 C  
BRANCH   6   7
HETATM    7  C   UNL     1     -10.671  11.428  66.425  1.00  0.00    -0.325 A  
HETATM    8  C   UNL     1     -11.296  12.293  67.334  1.00  0.00    -0.389 A  
HETATM    9  C   UNL     1     -11.519  11.892  68.651  1.00  0.00    -0.350 A  
HETATM   10  C   UNL     1     -11.136  10.619  69.066  1.00  0.00    -0.307 A  
HETATM   11  C   UNL     1     -10.549   9.737  68.161  1.00  0.00    -0.276 A  
HETATM   12  C   UNL     1     -10.320  10.137  66.845  1.00  0.00    -0.298 A  
ENDBRANCH   6   7
ENDBRANCH   4   6
ENDBRANCH   2   4
TORSDOF 3
ENDMDL
MODEL      148
REMARK 921   NORMALIZED FREE ENERGY PREDICTED BY IDOCK:   -2.68 KCAL/MOL
REMARK 922        TOTAL FREE ENERGY PREDICTED BY IDOCK:   -3.37 KCAL/MOL
REMARK 923 INTER-LIGAND FREE ENERGY PREDICTED BY IDOCK:   -3.11 KCAL/MOL
REMARK 924 INTRA-LIGAND FREE ENERGY PREDICTED BY IDOCK:   -0.27 KCAL/MOL
REMARK 927      BINDING AFFINITY PREDICTED BY RF-SCORE:    0.00 PKD
ROOT
HETATM    1  C   UNL     1      -8.597  11.007  68.233  1.00  0.00    -0.143 C  
HETATM    2  N   UNL     1      -9.559  11.432  69.241  1.00  0.00    -0.394 NA 
HETATM    3  H   UNL     1     -10.039  12.283  68.948  1.00  0.00     0.000 HD 
ENDROOT
BRANCH   2   4
HETATM    4  C   UNL     1     -10.528  10.381  69.600  1.00  0.00    -0.243 C  
HETATM    5  C   UNL     1     -11.848  10.978  70.112  1.00  0.00    -0.441 C  
BRANCH   4   6
HETATM    6  C   UNL     1      -9.877   9.459  70.666  1.00  0.00    -0.340 C  
BRANCH   6   7
HETATM    7  C   UNL     1     -10.065   7.986  70.374  1.00  0.00    -0.194 A  
HETATM    8  C   UNL     1     -10.388   7.554  69.080  1.00  0.00    -0.215 A  
HETATM    9  C   UNL     1     -10.676   6.212  68.835  1.00  0.00    -0.376 A  
HETATM   10  C   UNL     1     -10.629   5.287  69.877  1.00  0.00    -0.292 A  
HETATM   11  C   UNL     1     -10.273   5.699  71.159  1.00  0.00    -0.280 A  
HETATM   12  C   UNL     1      -9.988   7.042  71.408  1.00  0.00    -0.190 A  
ENDBRANCH   6   7
ENDBRANCH   4   6
ENDBRANCH   2   4
TORSDOF 3
ENDMDL
MODEL      149
REMARK 921   NORMALIZED FREE ENERGY PREDICTED BY IDOCK:   -2.67 KCAL/MOL
REMARK 922        TOTAL FREE ENERGY PREDICTED BY IDOCK:   -3.37 KCAL/MOL
REMARK 923 INTER-LIGAND FREE ENERGY PREDICTED BY IDOCK:   -3.45 KCAL/MOL
REMARK 924 INTRA-LIGAND FREE ENERGY PREDICTED BY IDOCK:    0.08 KCAL/MOL
REMARK 927      BINDING AFFINITY PREDICTED BY RF-SCORE:    0.00 PKD
ROOT
HETATM    1  C   UNL     1      -8.066   4.866  72.221  1.00  0.00    -0.111 C  
HETATM    2  N   UNL     1      -8.877   5.976  71.739  1.00  0.00    -0.138 NA 
HETATM    3  H   UNL     1      -8.412   6.458  70.969  1.00  0.00     0.000 HD 
ENDROOT
BRANCH   2   4
HETATM    4  C   UNL     1     -10.244   5.575  71.356  1.00  0.00    -0.215 C  
HETATM    5  C   UNL     1     -10.672   6.219  70.029  1.00  0.00    -0.346 C  
BRANCH   4   6
HETATM    6  C   UNL     1     -11.208   5.966  72.509  1.00  0.00    -0.341 C  
BRANCH   6   7
HETATM    7  C   UNL     1     -12.151   7.090  72.139  1.00  0.00    -0.281 A  
HETATM    8  C   UNL     1     -11.754   8.427  72.280  1.00  0.00    -0.453 A  
HETATM    9  C   UNL     1     -12.661   9.461  72.052  1.00  0.00    -0.483 A  
HETATM   10  C   UNL     1     -13.967   9.170  71.664  1.00  0.00    -0.345 A  
HETATM   11  C   UNL     1     -14.362   7.846  71.484  1.00  0.00    -0.563 A  
HETATM   12  C   UNL     1     -13.458   6.809  71.716  1.00  0.00    -0.173 A  
ENDBRANCH   6   7
ENDBRANCH   4   6
ENDBRANCH   2   4
TORSDOF 3
ENDMDL
MODEL      150
REMARK 921   NORMALIZED FREE ENERGY PREDICTED BY IDOCK:   -2.65 KCAL/MOL
REMARK 922        TOTAL FREE ENERGY PREDICTED BY IDOCK:   -3.34 KCAL/MOL
REMARK 923 INTER-LIGAND FREE ENERGY PREDICTED BY IDOCK:   -3.14 KCAL/MOL
REMARK 924 INTRA-LIGAND FREE ENERGY PREDICTED BY IDOCK:   -0.19 KCAL/MOL
REMARK 927      BINDING AFFINITY PREDICTED BY RF-SCORE:    0.00 PKD
ROOT
HETATM    1  C   UNL     1      -9.283   5.185  68.965  1.00  0.00    -0.117 C  
HETATM    2  N   UNL     1     -10.330   4.870  69.927  1.00  0.00    -0.233 NA 
HETATM    3  H   UNL     1     -10.829   4.023  69.656  1.00  0.00     0.000 HD 
ENDROOT
BRANCH   2   4
HETATM    4  C   UNL     1      -9.836   4.767  71.312  1.00  0.00    -0.187 C  
HETATM    5  C   UNL     1      -9.459   3.322  71.673  1.00  0.00    -0.220 C  
BRANCH   4   6
HETATM    6  C   UNL     1     -10.932   5.317  72.265  1.00  0.00    -0.249 C  
BRANCH   6   7
HETATM    7  C   UNL     1     -11.245   6.778  72.029  1.00  0.00    -0.297 A  
HETATM    8  C   UNL     1     -12.568   7.198  71.826  1.00  0.00    -0.381 A  
HETATM    9  C   UNL     1     -12.845   8.523  71.492  1.00  0.00    -0.335 A  
HETATM   10  C   UNL     1     -11.806   9.444  71.375  1.00  0.00    -0.447 A  
HETATM   11  C   UNL     1     -10.492   9.047  71.612  1.00  0.00    -0.426 A  
HETATM   12  C   UNL     1     -10.211   7.721  71.941  1.00  0.00    -0.250 A  
ENDBRANCH   6   7
ENDBRANCH   4   6
ENDBRANCH   2   4
TORSDOF 3
ENDMDL
MODEL      151
REMARK 921   NORMALIZED FREE ENERGY PREDICTED BY IDOCK:   -2.62 KCAL/MOL
REMARK 922        TOTAL FREE ENERGY PREDICTED BY IDOCK:   -3.30 KCAL/MOL
REMARK 923 INTER-LIGAND FREE ENERGY PREDICTED BY IDOCK:   -3.10 KCAL/MOL
REMARK 924 INTRA-LIGAND FREE ENERGY PREDICTED BY IDOCK:   -0.20 KCAL/MOL
REMARK 927      BINDING AFFINITY PREDICTED BY RF-SCORE:    0.00 PKD
ROOT
HETATM    1  C   UNL     1     -10.033   4.996  74.188  1.00  0.00    -0.194 C  
HETATM    2  N   UNL     1     -10.858   5.975  73.492  1.00  0.00    -0.403 NA 
HETATM    3  H   UNL     1     -11.586   6.338  74.108  1.00  0.00     0.000 HD 
ENDROOT
BRANCH   2   4
HETATM    4  C   UNL     1     -10.077   7.075  72.897  1.00  0.00    -0.196 C  
HETATM    5  C   UNL     1      -8.874   7.454  73.774  1.00  0.00    -0.260 C  
BRANCH   4   6
HETATM    6  C   UNL     1     -11.024   8.287  72.686  1.00  0.00    -0.386 C  
BRANCH   6   7
HETATM    7  C   UNL     1     -10.834   8.964  71.346  1.00  0.00    -0.378 A  
HETATM    8  C   UNL     1     -10.013   8.386  70.368  1.00  0.00    -0.199 A  
HETATM    9  C   UNL     1      -9.744   9.065  69.180  1.00  0.00    -0.167 A  
HETATM   10  C   UNL     1     -10.306  10.319  68.952  1.00  0.00    -0.221 A  
HETATM   11  C   UNL     1     -11.153  10.887  69.901  1.00  0.00    -0.311 A  
HETATM   12  C   UNL     1     -11.420  10.212  71.092  1.00  0.00    -0.387 A  
ENDBRANCH   6   7
ENDBRANCH   4   6
ENDBRANCH   2   4
TORSDOF 3
ENDMDL
MODEL      152
REMARK 921   NORMALIZED FREE ENERGY PREDICTED BY IDOCK:   -2.61 KCAL/MOL
REMARK 922        TOTAL FREE ENERGY PREDICTED BY IDOCK:   -3.30 KCAL/MOL
REMARK 923 INTER-LIGAND FREE ENERGY PREDICTED BY IDOCK:   -3.18 KCAL/MOL
REMARK 924 INTRA-LIGAND FREE ENERGY PREDICTED BY IDOCK:   -0.12 KCAL/MOL
REMARK 927      BINDING AFFINITY PREDICTED BY RF-SCORE:    0.00 PKD
ROOT
HETATM    1  C   UNL     1     -12.931   9.774  71.341  1.00  0.00    -0.395 C  
HETATM    2  N   UNL     1     -12.010   9.900  70.219  1.00  0.00    -0.436 NA 
HETATM    3  H   UNL     1     -11.578  10.823  70.207  1.00  0.00     0.000 HD 
ENDROOT
BRANCH   2   4
HETATM    4  C   UNL     1     -10.986   8.840  70.185  1.00  0.00    -0.223 C  
HETATM    5  C   UNL     1      -9.822   9.148  71.139  1.00  0.00    -0.371 C  
BRANCH   4   6
HETATM    6  C   UNL     1     -10.489   8.687  68.722  1.00  0.00    -0.209 C  
BRANCH   6   7
HETATM    7  C   UNL     1     -10.436   7.248  68.259  1.00  0.00    -0.239 A  
HETATM    8  C   UNL     1      -9.861   6.260  69.071  1.00  0.00    -0.165 A  
HETATM    9  C   UNL     1      -9.707   4.958  68.598  1.00  0.00    -0.225 A  
HETATM   10  C   UNL     1     -10.141   4.626  67.316  1.00  0.00    -0.169 A  
HETATM   11  C   UNL     1     -10.749   5.590  66.515  1.00  0.00    -0.309 A  
HETATM   12  C   UNL     1     -10.900   6.895  66.984  1.00  0.00    -0.436 A  
ENDBRANCH   6   7
ENDBRANCH   4   6
ENDBRANCH   2   4
TORSDOF 3
ENDMDL
MODEL      153
REMARK 921   NORMALIZED FREE ENERGY PREDICTED BY IDOCK:   -2.60 KCAL/MOL
REMARK 922        TOTAL FREE ENERGY PREDICTED BY IDOCK:   -3.29 KCAL/MOL
REMARK 923 INTER-LIGAND FREE ENERGY PREDICTED BY IDOCK:   -3.05 KCAL/MOL
REMARK 924 INTRA-LIGAND FREE ENERGY PREDICTED BY IDOCK:   -0.24 KCAL/MOL
REMARK 927      BINDING AFFINITY PREDICTED BY RF-SCORE:    0.00 PKD
ROOT
HETATM    1  C   UNL     1      -9.443  11.025  62.999  1.00  0.00    -0.363 C  
HETATM    2  N   UNL     1      -9.420  11.851  64.199  1.00  0.00    -0.474 NA 
HETATM    3  H   UNL     1     -10.282  12.391  64.284  1.00  0.00     0.000 HD 
ENDROOT
BRANCH   2   4
HETATM    4  C   UNL     1      -9.161  11.081  65.430  1.00  0.00    -0.210 C  
HETATM    5  C   UNL     1      -7.774  10.421  65.403  1.00  0.00    -0.136 C  
BRANCH   4   6
HETATM    6  C   UNL     1     -10.285  10.021  65.589  1.00  0.00    -0.258 C  
BRANCH   6   7
HETATM    7  C   UNL     1     -10.272   9.340  66.940  1.00  0.00    -0.327 A  
HETATM    8  C   UNL     1     -10.273   7.941  67.031  1.00  0.00    -0.382 A  
HETATM    9  C   UNL     1     -10.379   7.314  68.271  1.00  0.00    -0.227 A  
HETATM   10  C   UNL     1     -10.469   8.077  69.433  1.00  0.00    -0.223 A  
HETATM   11  C   UNL     1     -10.431   9.468  69.358  1.00  0.00    -0.231 A  
HETATM   12  C   UNL     1     -10.329  10.098  68.118  1.00  0.00    -0.217 A  
ENDBRANCH   6   7
ENDBRANCH   4   6
ENDBRANCH   2   4
TORSDOF 3
ENDMDL
MODEL      154
REMARK 921   NORMALIZED FREE ENERGY PREDICTED BY IDOCK:   -2.60 KCAL/MOL
REMARK 922        TOTAL FREE ENERGY PREDICTED BY IDOCK:   -3.28 KCAL/MOL
REMARK 923 INTER-LIGAND FREE ENERGY PREDICTED BY IDOCK:   -3.06 KCAL/MOL
REMARK 924 INTRA-LIGAND FREE ENERGY PREDICTED BY IDOCK:   -0.22 KCAL/MOL
REMARK 927      BINDING AFFINITY PREDICTED BY RF-SCORE:    0.00 PKD
ROOT
HETATM    1  C   UNL     1     -11.664  10.401  71.047  1.00  0.00    -0.337 C  
HETATM    2  N   UNL     1     -10.384  10.191  70.384  1.00  0.00    -0.416 NA 
HETATM    3  H   UNL     1      -9.616  10.245  71.053  1.00  0.00     0.000 HD 
ENDROOT
BRANCH   2   4
HETATM    4  C   UNL     1     -10.325   8.931  69.620  1.00  0.00    -0.212 C  
HETATM    5  C   UNL     1     -10.527   9.171  68.116  1.00  0.00    -0.260 C  
BRANCH   4   6
HETATM    6  C   UNL     1     -11.401   7.965  70.186  1.00  0.00    -0.099 C  
BRANCH   6   7
HETATM    7  C   UNL     1     -10.843   6.612  70.568  1.00  0.00    -0.310 A  
HETATM    8  C   UNL     1     -10.662   6.272  71.916  1.00  0.00    -0.271 A  
HETATM    9  C   UNL     1     -10.040   5.074  72.266  1.00  0.00    -0.245 A  
HETATM   10  C   UNL     1      -9.608   4.197  71.273  1.00  0.00    -0.242 A  
HETATM   11  C   UNL     1      -9.816   4.507  69.931  1.00  0.00    -0.298 A  
HETATM   12  C   UNL     1     -10.434   5.707  69.578  1.00  0.00    -0.372 A  
ENDBRANCH   6   7
ENDBRANCH   4   6
ENDBRANCH   2   4
TORSDOF 3
ENDMDL
MODEL      155
REMARK 921   NORMALIZED FREE ENERGY PREDICTED BY IDOCK:   -2.56 KCAL/MOL
REMARK 922        TOTAL FREE ENERGY PREDICTED BY IDOCK:   -3.24 KCAL/MOL
REMARK 923 INTER-LIGAND FREE ENERGY PREDICTED BY IDOCK:   -3.02 KCAL/MOL
REMARK 924 INTRA-LIGAND FREE ENERGY PREDICTED BY IDOCK:   -0.22 KCAL/MOL
REMARK 927      BINDING AFFINITY PREDICTED BY RF-SCORE:    0.00 PKD
ROOT
HETATM    1  C   UNL     1     -12.357  10.693  70.991  1.00  0.00    -0.403 C  
HETATM    2  N   UNL     1     -11.017  10.733  70.420  1.00  0.00    -0.445 NA 
HETATM    3  H   UNL     1     -10.370  11.209  71.047  1.00  0.00     0.000 HD 
ENDROOT
BRANCH   2   4
HETATM    4  C   UNL     1     -10.503   9.401  70.049  1.00  0.00    -0.234 C  
HETATM    5  C   UNL     1     -10.431   9.227  68.525  1.00  0.00    -0.240 C  
BRANCH   4   6
HETATM    6  C   UNL     1     -11.419   8.327  70.697  1.00  0.00    -0.236 C  
BRANCH   6   7
HETATM    7  C   UNL     1     -10.682   7.421  71.659  1.00  0.00    -0.239 A  
HETATM    8  C   UNL     1      -9.687   6.550  71.195  1.00  0.00    -0.188 A  
HETATM    9  C   UNL     1      -9.091   5.633  72.061  1.00  0.00    -0.145 A  
HETATM   10  C   UNL     1      -9.472   5.589  73.400  1.00  0.00    -0.139 A  
HETATM   11  C   UNL     1     -10.434   6.475  73.881  1.00  0.00    -0.329 A  
HETATM   12  C   UNL     1     -11.035   7.391  73.016  1.00  0.00    -0.422 A  
ENDBRANCH   6   7
ENDBRANCH   4   6
ENDBRANCH   2   4
TORSDOF 3
ENDMDL
MODEL      156
REMARK 921   NORMALIZED FREE ENERGY PREDICTED BY IDOCK:   -2.56 KCAL/MOL
REMARK 922        TOTAL FREE ENERGY PREDICTED BY IDOCK:   -3.23 KCAL/MOL
REMARK 923 INTER-LIGAND FREE ENERGY PREDICTED BY IDOCK:   -3.38 KCAL/MOL
REMARK 924 INTRA-LIGAND FREE ENERGY PREDICTED BY IDOCK:    0.14 KCAL/MOL
REMARK 927      BINDING AFFINITY PREDICTED BY RF-SCORE:    0.00 PKD
ROOT
HETATM    1  C   UNL     1     -10.172   7.619  68.561  1.00  0.00    -0.199 C  
HETATM    2  N   UNL     1     -11.236   8.502  69.021  1.00  0.00    -0.320 NA 
HETATM    3  H   UNL     1     -12.055   7.965  69.305  1.00  0.00     0.000 HD 
ENDROOT
BRANCH   2   4
HETATM    4  C   UNL     1     -10.809   9.415  70.097  1.00  0.00    -0.249 C  
HETATM    5  C   UNL     1      -9.320   9.239  70.432  1.00  0.00    -0.295 C  
BRANCH   4   6
HETATM    6  C   UNL     1     -11.700   9.153  71.342  1.00  0.00    -0.413 C  
BRANCH   6   7
HETATM    7  C   UNL     1     -11.281   7.929  72.126  1.00  0.00    -0.363 A  
HETATM    8  C   UNL     1     -10.267   8.014  73.091  1.00  0.00    -0.287 A  
HETATM    9  C   UNL     1      -9.800   6.866  73.729  1.00  0.00    -0.313 A  
HETATM   10  C   UNL     1     -10.353   5.624  73.422  1.00  0.00    -0.242 A  
HETATM   11  C   UNL     1     -11.387   5.532  72.493  1.00  0.00    -0.323 A  
HETATM   12  C   UNL     1     -11.853   6.679  71.850  1.00  0.00    -0.375 A  
ENDBRANCH   6   7
ENDBRANCH   4   6
ENDBRANCH   2   4
TORSDOF 3
ENDMDL
MODEL      157
REMARK 921   NORMALIZED FREE ENERGY PREDICTED BY IDOCK:   -2.56 KCAL/MOL
REMARK 922        TOTAL FREE ENERGY PREDICTED BY IDOCK:   -3.23 KCAL/MOL
REMARK 923 INTER-LIGAND FREE ENERGY PREDICTED BY IDOCK:   -3.01 KCAL/MOL
REMARK 924 INTRA-LIGAND FREE ENERGY PREDICTED BY IDOCK:   -0.22 KCAL/MOL
REMARK 927      BINDING AFFINITY PREDICTED BY RF-SCORE:    0.00 PKD
ROOT
HETATM    1  C   UNL     1      -9.867   4.107  65.217  1.00  0.00    -0.208 C  
HETATM    2  N   UNL     1     -10.664   5.155  65.841  1.00  0.00    -0.641 NA 
HETATM    3  H   UNL     1     -11.271   4.767  66.563  1.00  0.00     0.000 HD 
ENDROOT
BRANCH   2   4
HETATM    4  C   UNL     1      -9.851   6.262  66.378  1.00  0.00    -0.075 C  
HETATM    5  C   UNL     1      -8.696   5.745  67.250  1.00  0.00    -0.108 C  
BRANCH   4   6
HETATM    6  C   UNL     1     -10.784   7.207  67.183  1.00  0.00    -0.422 C  
BRANCH   6   7
HETATM    7  C   UNL     1     -10.410   8.667  67.048  1.00  0.00    -0.368 A  
HETATM    8  C   UNL     1      -9.821   9.144  65.868  1.00  0.00    -0.305 A  
HETATM    9  C   UNL     1      -9.370  10.461  65.787  1.00  0.00    -0.230 A  
HETATM   10  C   UNL     1      -9.517  11.317  66.876  1.00  0.00    -0.193 A  
HETATM   11  C   UNL     1     -10.135  10.865  68.040  1.00  0.00    -0.197 A  
HETATM   12  C   UNL     1     -10.584   9.547  68.126  1.00  0.00    -0.265 A  
ENDBRANCH   6   7
ENDBRANCH   4   6
ENDBRANCH   2   4
TORSDOF 3
ENDMDL
MODEL      158
REMARK 921   NORMALIZED FREE ENERGY PREDICTED BY IDOCK:   -2.55 KCAL/MOL
REMARK 922        TOTAL FREE ENERGY PREDICTED BY IDOCK:   -3.23 KCAL/MOL
REMARK 923 INTER-LIGAND FREE ENERGY PREDICTED BY IDOCK:   -3.06 KCAL/MOL
REMARK 924 INTRA-LIGAND FREE ENERGY PREDICTED BY IDOCK:   -0.16 KCAL/MOL
REMARK 927      BINDING AFFINITY PREDICTED BY RF-SCORE:    0.00 PKD
ROOT
HETATM    1  C   UNL     1     -10.298   7.652  69.670  1.00  0.00    -0.213 C  
HETATM    2  N   UNL     1     -11.574   8.315  69.903  1.00  0.00    -0.414 NA 
HETATM    3  H   UNL     1     -12.259   7.660  70.279  1.00  0.00     0.000 HD 
ENDROOT
BRANCH   2   4
HETATM    4  C   UNL     1     -11.462   9.507  70.764  1.00  0.00    -0.310 C  
HETATM    5  C   UNL     1     -12.282   9.354  72.054  1.00  0.00    -0.396 C  
BRANCH   4   6
HETATM    6  C   UNL     1     -11.922  10.745  69.947  1.00  0.00    -0.418 C  
BRANCH   6   7
HETATM    7  C   UNL     1     -11.032  11.039  68.760  1.00  0.00    -0.270 A  
HETATM    8  C   UNL     1     -11.576  11.155  67.474  1.00  0.00    -0.220 A  
HETATM    9  C   UNL     1     -10.744  11.309  66.366  1.00  0.00    -0.320 A  
HETATM   10  C   UNL     1      -9.362  11.365  66.534  1.00  0.00    -0.204 A  
HETATM   11  C   UNL     1      -8.812  11.289  67.811  1.00  0.00    -0.141 A  
HETATM   12  C   UNL     1      -9.642  11.131  68.921  1.00  0.00    -0.154 A  
ENDBRANCH   6   7
ENDBRANCH   4   6
ENDBRANCH   2   4
TORSDOF 3
ENDMDL
MODEL      159
REMARK 921   NORMALIZED FREE ENERGY PREDICTED BY IDOCK:   -2.54 KCAL/MOL
REMARK 922        TOTAL FREE ENERGY PREDICTED BY IDOCK:   -3.21 KCAL/MOL
REMARK 923 INTER-LIGAND FREE ENERGY PREDICTED BY IDOCK:   -3.02 KCAL/MOL
REMARK 924 INTRA-LIGAND FREE ENERGY PREDICTED BY IDOCK:   -0.19 KCAL/MOL
REMARK 927      BINDING AFFINITY PREDICTED BY RF-SCORE:    0.00 PKD
ROOT
HETATM    1  C   UNL     1      -6.929  14.521  69.434  1.00  0.00    -0.151 C  
HETATM    2  N   UNL     1      -8.299  14.986  69.260  1.00  0.00    -0.304 NA 
HETATM    3  H   UNL     1      -8.335  16.005  69.234  1.00  0.00     0.000 HD 
ENDROOT
BRANCH   2   4
HETATM    4  C   UNL     1      -8.965  14.408  68.079  1.00  0.00    -0.183 C  
HETATM    5  C   UNL     1      -8.723  15.256  66.821  1.00  0.00    -0.304 C  
BRANCH   4   6
HETATM    6  C   UNL     1     -10.481  14.278  68.387  1.00  0.00    -0.249 C  
BRANCH   6   7
HETATM    7  C   UNL     1     -10.865  12.915  68.919  1.00  0.00    -0.239 A  
HETATM    8  C   UNL     1     -10.329  11.752  68.347  1.00  0.00    -0.223 A  
HETATM    9  C   UNL     1     -10.771  10.495  68.758  1.00  0.00    -0.249 A  
HETATM   10  C   UNL     1     -11.738  10.387  69.755  1.00  0.00    -0.310 A  
HETATM   11  C   UNL     1     -12.251  11.535  70.356  1.00  0.00    -0.442 A  
HETATM   12  C   UNL     1     -11.814  12.794  69.944  1.00  0.00    -0.371 A  
ENDBRANCH   6   7
ENDBRANCH   4   6
ENDBRANCH   2   4
TORSDOF 3
ENDMDL
MODEL      160
REMARK 921   NORMALIZED FREE ENERGY PREDICTED BY IDOCK:   -2.54 KCAL/MOL
REMARK 922        TOTAL FREE ENERGY PREDICTED BY IDOCK:   -3.21 KCAL/MOL
REMARK 923 INTER-LIGAND FREE ENERGY PREDICTED BY IDOCK:   -2.98 KCAL/MOL
REMARK 924 INTRA-LIGAND FREE ENERGY PREDICTED BY IDOCK:   -0.24 KCAL/MOL
REMARK 927      BINDING AFFINITY PREDICTED BY RF-SCORE:    0.00 PKD
ROOT
HETATM    1  C   UNL     1      -7.538  12.027  67.358  1.00  0.00    -0.151 C  
HETATM    2  N   UNL     1      -6.596  13.117  67.142  1.00  0.00    -0.464 NA 
HETATM    3  H   UNL     1      -6.272  13.130  66.176  1.00  0.00     0.000 HD 
ENDROOT
BRANCH   2   4
HETATM    4  C   UNL     1      -7.131  14.434  67.534  1.00  0.00    -0.175 C  
HETATM    5  C   UNL     1      -7.077  14.637  69.056  1.00  0.00    -0.128 C  
BRANCH   4   6
HETATM    6  C   UNL     1      -8.585  14.549  67.002  1.00  0.00    -0.241 C  
BRANCH   6   7
HETATM    7  C   UNL     1      -9.163  15.939  67.147  1.00  0.00    -0.222 A  
HETATM    8  C   UNL     1      -8.631  17.011  66.415  1.00  0.00    -0.311 A  
HETATM    9  C   UNL     1      -9.084  18.310  66.636  1.00  0.00    -0.294 A  
HETATM   10  C   UNL     1     -10.084  18.550  67.576  1.00  0.00    -0.383 A  
HETATM   11  C   UNL     1     -10.646  17.489  68.282  1.00  0.00    -0.354 A  
HETATM   12  C   UNL     1     -10.191  16.188  68.067  1.00  0.00    -0.252 A  
ENDBRANCH   6   7
ENDBRANCH   4   6
ENDBRANCH   2   4
TORSDOF 3
ENDMDL
MODEL      161
REMARK 921   NORMALIZED FREE ENERGY PREDICTED BY IDOCK:   -2.53 KCAL/MOL
REMARK 922        TOTAL FREE ENERGY PREDICTED BY IDOCK:   -3.20 KCAL/MOL
REMARK 923 INTER-LIGAND FREE ENERGY PREDICTED BY IDOCK:   -3.02 KCAL/MOL
REMARK 924 INTRA-LIGAND FREE ENERGY PREDICTED BY IDOCK:   -0.18 KCAL/MOL
REMARK 927      BINDING AFFINITY PREDICTED BY RF-SCORE:    0.00 PKD
ROOT
HETATM    1  C   UNL     1     -10.030  15.399  69.535  1.00  0.00    -0.264 C  
HETATM    2  N   UNL     1     -10.101  14.076  68.930  1.00  0.00    -0.383 NA 
HETATM    3  H   UNL     1     -10.902  13.556  69.288  1.00  0.00     0.000 HD 
ENDROOT
BRANCH   2   4
HETATM    4  C   UNL     1     -10.114  14.111  67.456  1.00  0.00    -0.236 C  
HETATM    5  C   UNL     1     -10.667  15.442  66.926  1.00  0.00    -0.314 C  
BRANCH   4   6
HETATM    6  C   UNL     1     -10.955  12.908  66.947  1.00  0.00    -0.294 C  
BRANCH   6   7
HETATM    7  C   UNL     1     -10.153  11.934  66.112  1.00  0.00    -0.257 A  
HETATM    8  C   UNL     1     -10.677  11.423  64.916  1.00  0.00    -0.350 A  
HETATM    9  C   UNL     1      -9.990  10.438  64.208  1.00  0.00    -0.368 A  
HETATM   10  C   UNL     1      -8.767   9.965  64.679  1.00  0.00    -0.215 A  
HETATM   11  C   UNL     1      -8.219  10.492  65.847  1.00  0.00    -0.152 A  
HETATM   12  C   UNL     1      -8.906  11.475  66.560  1.00  0.00    -0.190 A  
ENDBRANCH   6   7
ENDBRANCH   4   6
ENDBRANCH   2   4
TORSDOF 3
ENDMDL
MODEL      162
REMARK 921   NORMALIZED FREE ENERGY PREDICTED BY IDOCK:   -2.53 KCAL/MOL
REMARK 922        TOTAL FREE ENERGY PREDICTED BY IDOCK:   -3.20 KCAL/MOL
REMARK 923 INTER-LIGAND FREE ENERGY PREDICTED BY IDOCK:   -3.24 KCAL/MOL
REMARK 924 INTRA-LIGAND FREE ENERGY PREDICTED BY IDOCK:    0.04 KCAL/MOL
REMARK 927      BINDING AFFINITY PREDICTED BY RF-SCORE:    0.00 PKD
ROOT
HETATM    1  C   UNL     1     -10.083  16.057  68.317  1.00  0.00    -0.229 C  
HETATM    2  N   UNL     1     -11.330  15.664  67.675  1.00  0.00    -0.280 NA 
HETATM    3  H   UNL     1     -11.915  16.479  67.490  1.00  0.00     0.000 HD 
ENDROOT
BRANCH   2   4
HETATM    4  C   UNL     1     -11.129  14.874  66.447  1.00  0.00    -0.342 C  
HETATM    5  C   UNL     1     -12.327  13.956  66.161  1.00  0.00    -0.504 C  
BRANCH   4   6
HETATM    6  C   UNL     1      -9.818  14.056  66.602  1.00  0.00    -0.288 C  
BRANCH   6   7
HETATM    7  C   UNL     1     -10.062  12.593  66.903  1.00  0.00    -0.234 A  
HETATM    8  C   UNL     1      -9.930  11.628  65.895  1.00  0.00    -0.264 A  
HETATM    9  C   UNL     1     -10.268  10.298  66.142  1.00  0.00    -0.285 A  
HETATM   10  C   UNL     1     -10.725   9.917  67.403  1.00  0.00    -0.323 A  
HETATM   11  C   UNL     1     -10.825  10.861  68.422  1.00  0.00    -0.266 A  
HETATM   12  C   UNL     1     -10.491  12.193  68.177  1.00  0.00    -0.225 A  
ENDBRANCH   6   7
ENDBRANCH   4   6
ENDBRANCH   2   4
TORSDOF 3
ENDMDL
MODEL      163
REMARK 921   NORMALIZED FREE ENERGY PREDICTED BY IDOCK:   -2.53 KCAL/MOL
REMARK 922        TOTAL FREE ENERGY PREDICTED BY IDOCK:   -3.20 KCAL/MOL
REMARK 923 INTER-LIGAND FREE ENERGY PREDICTED BY IDOCK:   -3.01 KCAL/MOL
REMARK 924 INTRA-LIGAND FREE ENERGY PREDICTED BY IDOCK:   -0.19 KCAL/MOL
REMARK 927      BINDING AFFINITY PREDICTED BY RF-SCORE:    0.00 PKD
ROOT
HETATM    1  C   UNL     1      -7.321   9.083  68.990  1.00  0.00    -0.073 C  
HETATM    2  N   UNL     1      -8.713   8.654  68.963  1.00  0.00    -0.133 NA 
HETATM    3  H   UNL     1      -8.828   7.767  69.452  1.00  0.00     0.000 HD 
ENDROOT
BRANCH   2   4
HETATM    4  C   UNL     1      -9.644   9.668  69.490  1.00  0.00    -0.198 C  
HETATM    5  C   UNL     1     -10.106   9.327  70.915  1.00  0.00    -0.373 C  
BRANCH   4   6
HETATM    6  C   UNL     1     -10.850   9.776  68.517  1.00  0.00    -0.227 C  
BRANCH   6   7
HETATM    7  C   UNL     1     -11.070  11.179  67.996  1.00  0.00    -0.334 A  
HETATM    8  C   UNL     1     -10.560  11.561  66.747  1.00  0.00    -0.289 A  
HETATM    9  C   UNL     1     -10.660  12.884  66.318  1.00  0.00    -0.281 A  
HETATM   10  C   UNL     1     -11.284  13.833  67.124  1.00  0.00    -0.327 A  
HETATM   11  C   UNL     1     -11.827  13.457  68.351  1.00  0.00    -0.401 A  
HETATM   12  C   UNL     1     -11.725  12.135  68.784  1.00  0.00    -0.374 A  
ENDBRANCH   6   7
ENDBRANCH   4   6
ENDBRANCH   2   4
TORSDOF 3
ENDMDL
MODEL      164
REMARK 921   NORMALIZED FREE ENERGY PREDICTED BY IDOCK:   -2.49 KCAL/MOL
REMARK 922        TOTAL FREE ENERGY PREDICTED BY IDOCK:   -3.15 KCAL/MOL
REMARK 923 INTER-LIGAND FREE ENERGY PREDICTED BY IDOCK:   -2.92 KCAL/MOL
REMARK 924 INTRA-LIGAND FREE ENERGY PREDICTED BY IDOCK:   -0.23 KCAL/MOL
REMARK 927      BINDING AFFINITY PREDICTED BY RF-SCORE:    0.00 PKD
ROOT
HETATM    1  C   UNL     1      -7.909   4.485  73.715  1.00  0.00    -0.093 C  
HETATM    2  N   UNL     1      -8.103   5.002  72.367  1.00  0.00    -0.107 NA 
HETATM    3  H   UNL     1      -8.684   4.370  71.816  1.00  0.00     0.000 HD 
ENDROOT
BRANCH   2   4
HETATM    4  C   UNL     1      -8.650   6.372  72.343  1.00  0.00    -0.120 C  
HETATM    5  C   UNL     1      -8.703   6.985  73.750  1.00  0.00    -0.187 C  
BRANCH   4   6
HETATM    6  C   UNL     1     -10.061   6.323  71.696  1.00  0.00    -0.214 C  
BRANCH   6   7
HETATM    7  C   UNL     1     -10.694   7.689  71.547  1.00  0.00    -0.249 A  
HETATM    8  C   UNL     1     -11.950   7.955  72.110  1.00  0.00    -0.379 A  
HETATM    9  C   UNL     1     -12.586   9.174  71.874  1.00  0.00    -0.463 A  
HETATM   10  C   UNL     1     -11.965  10.143  71.090  1.00  0.00    -0.480 A  
HETATM   11  C   UNL     1     -10.700   9.904  70.556  1.00  0.00    -0.382 A  
HETATM   12  C   UNL     1     -10.064   8.684  70.787  1.00  0.00    -0.244 A  
ENDBRANCH   6   7
ENDBRANCH   4   6
ENDBRANCH   2   4
TORSDOF 3
ENDMDL
MODEL      165
REMARK 921   NORMALIZED FREE ENERGY PREDICTED BY IDOCK:   -2.45 KCAL/MOL
REMARK 922        TOTAL FREE ENERGY PREDICTED BY IDOCK:   -3.11 KCAL/MOL
REMARK 923 INTER-LIGAND FREE ENERGY PREDICTED BY IDOCK:   -3.22 KCAL/MOL
REMARK 924 INTRA-LIGAND FREE ENERGY PREDICTED BY IDOCK:    0.11 KCAL/MOL
REMARK 927      BINDING AFFINITY PREDICTED BY RF-SCORE:    0.00 PKD
ROOT
HETATM    1  C   UNL     1      -9.468  13.827  67.653  1.00  0.00    -0.217 C  
HETATM    2  N   UNL     1      -9.820  15.021  68.410  1.00  0.00    -0.217 NA 
HETATM    3  H   UNL     1      -8.986  15.559  68.646  1.00  0.00     0.000 HD 
ENDROOT
BRANCH   2   4
HETATM    4  C   UNL     1     -10.815  15.870  67.729  1.00  0.00    -0.324 C  
HETATM    5  C   UNL     1     -10.584  15.906  66.211  1.00  0.00    -0.301 C  
BRANCH   4   6
HETATM    6  C   UNL     1     -10.746  17.294  68.343  1.00  0.00    -0.332 C  
BRANCH   6   7
HETATM    7  C   UNL     1      -9.577  18.107  67.830  1.00  0.00    -0.286 A  
HETATM    8  C   UNL     1      -8.260  17.692  68.075  1.00  0.00    -0.242 A  
HETATM    9  C   UNL     1      -7.185  18.499  67.705  1.00  0.00    -0.221 A  
HETATM   10  C   UNL     1      -7.415  19.719  67.072  1.00  0.00    -0.267 A  
HETATM   11  C   UNL     1      -8.718  20.124  66.790  1.00  0.00    -0.390 A  
HETATM   12  C   UNL     1      -9.795  19.320  67.163  1.00  0.00    -0.425 A  
ENDBRANCH   6   7
ENDBRANCH   4   6
ENDBRANCH   2   4
TORSDOF 3
ENDMDL
MODEL      166
REMARK 921   NORMALIZED FREE ENERGY PREDICTED BY IDOCK:   -2.43 KCAL/MOL
REMARK 922        TOTAL FREE ENERGY PREDICTED BY IDOCK:   -3.08 KCAL/MOL
REMARK 923 INTER-LIGAND FREE ENERGY PREDICTED BY IDOCK:   -2.89 KCAL/MOL
REMARK 924 INTRA-LIGAND FREE ENERGY PREDICTED BY IDOCK:   -0.19 KCAL/MOL
REMARK 927      BINDING AFFINITY PREDICTED BY RF-SCORE:    0.00 PKD
ROOT
HETATM    1  C   UNL     1      -9.469   7.622  67.913  1.00  0.00    -0.143 C  
HETATM    2  N   UNL     1      -8.700   8.860  67.939  1.00  0.00    -0.129 NA 
HETATM    3  H   UNL     1      -8.502   9.183  66.993  1.00  0.00     0.000 HD 
ENDROOT
BRANCH   2   4
HETATM    4  C   UNL     1      -9.339   9.924  68.735  1.00  0.00    -0.157 C  
HETATM    5  C   UNL     1      -9.054  11.316  68.150  1.00  0.00    -0.166 C  
BRANCH   4   6
HETATM    6  C   UNL     1      -8.830   9.813  70.198  1.00  0.00    -0.226 C  
BRANCH   6   7
HETATM    7  C   UNL     1      -9.804   9.104  71.113  1.00  0.00    -0.371 A  
HETATM    8  C   UNL     1      -9.369   8.058  71.939  1.00  0.00    -0.225 A  
HETATM    9  C   UNL     1     -10.286   7.328  72.695  1.00  0.00    -0.251 A  
HETATM   10  C   UNL     1     -11.642   7.646  72.645  1.00  0.00    -0.371 A  
HETATM   11  C   UNL     1     -12.080   8.707  71.856  1.00  0.00    -0.422 A  
HETATM   12  C   UNL     1     -11.166   9.437  71.096  1.00  0.00    -0.427 A  
ENDBRANCH   6   7
ENDBRANCH   4   6
ENDBRANCH   2   4
TORSDOF 3
ENDMDL
MODEL      167
REMARK 921   NORMALIZED FREE ENERGY PREDICTED BY IDOCK:   -2.43 KCAL/MOL
REMARK 922        TOTAL FREE ENERGY PREDICTED BY IDOCK:   -3.08 KCAL/MOL
REMARK 923 INTER-LIGAND FREE ENERGY PREDICTED BY IDOCK:   -2.87 KCAL/MOL
REMARK 924 INTRA-LIGAND FREE ENERGY PREDICTED BY IDOCK:   -0.21 KCAL/MOL
REMARK 927      BINDING AFFINITY PREDICTED BY RF-SCORE:    0.00 PKD
ROOT
HETATM    1  C   UNL     1      -7.529  15.514  67.124  1.00  0.00    -0.209 C  
HETATM    2  N   UNL     1      -8.696  14.843  66.568  1.00  0.00    -0.443 NA 
HETATM    3  H   UNL     1      -8.638  14.799  65.550  1.00  0.00     0.000 HD 
ENDROOT
BRANCH   2   4
HETATM    4  C   UNL     1      -8.924  13.502  67.138  1.00  0.00    -0.227 C  
HETATM    5  C   UNL     1      -7.605  12.830  67.548  1.00  0.00    -0.162 C  
BRANCH   4   6
HETATM    6  C   UNL     1      -9.690  12.649  66.091  1.00  0.00    -0.253 C  
BRANCH   6   7
HETATM    7  C   UNL     1      -9.938  11.229  66.549  1.00  0.00    -0.247 A  
HETATM    8  C   UNL     1      -9.499  10.145  65.776  1.00  0.00    -0.262 A  
HETATM    9  C   UNL     1      -9.829   8.839  66.137  1.00  0.00    -0.297 A  
HETATM   10  C   UNL     1     -10.587   8.603  67.282  1.00  0.00    -0.308 A  
HETATM   11  C   UNL     1     -10.998   9.670  68.079  1.00  0.00    -0.197 A  
HETATM   12  C   UNL     1     -10.672  10.978  67.717  1.00  0.00    -0.270 A  
ENDBRANCH   6   7
ENDBRANCH   4   6
ENDBRANCH   2   4
TORSDOF 3
ENDMDL
MODEL      168
REMARK 921   NORMALIZED FREE ENERGY PREDICTED BY IDOCK:   -2.43 KCAL/MOL
REMARK 922        TOTAL FREE ENERGY PREDICTED BY IDOCK:   -3.08 KCAL/MOL
REMARK 923 INTER-LIGAND FREE ENERGY PREDICTED BY IDOCK:   -2.90 KCAL/MOL
REMARK 924 INTRA-LIGAND FREE ENERGY PREDICTED BY IDOCK:   -0.18 KCAL/MOL
REMARK 927      BINDING AFFINITY PREDICTED BY RF-SCORE:    0.00 PKD
ROOT
HETATM    1  C   UNL     1      -7.329   9.591  66.694  1.00  0.00    -0.090 C  
HETATM    2  N   UNL     1      -8.005  10.869  66.510  1.00  0.00    -0.147 NA 
HETATM    3  H   UNL     1      -8.600  10.848  65.682  1.00  0.00     0.000 HD 
ENDROOT
BRANCH   2   4
HETATM    4  C   UNL     1      -8.770  11.298  67.695  1.00  0.00    -0.131 C  
HETATM    5  C   UNL     1      -8.331  10.541  68.957  1.00  0.00    -0.154 C  
BRANCH   4   6
HETATM    6  C   UNL     1     -10.281  11.082  67.406  1.00  0.00    -0.229 C  
BRANCH   6   7
HETATM    7  C   UNL     1     -10.955  12.306  66.824  1.00  0.00    -0.321 A  
HETATM    8  C   UNL     1     -10.830  13.553  67.453  1.00  0.00    -0.279 A  
HETATM    9  C   UNL     1     -11.545  14.654  66.985  1.00  0.00    -0.385 A  
HETATM   10  C   UNL     1     -12.378  14.525  65.875  1.00  0.00    -0.238 A  
HETATM   11  C   UNL     1     -12.481  13.299  65.220  1.00  0.00    -0.543 A  
HETATM   12  C   UNL     1     -11.770  12.195  65.689  1.00  0.00    -0.385 A  
ENDBRANCH   6   7
ENDBRANCH   4   6
ENDBRANCH   2   4
TORSDOF 3
ENDMDL
MODEL      169
REMARK 921   NORMALIZED FREE ENERGY PREDICTED BY IDOCK:   -2.42 KCAL/MOL
REMARK 922        TOTAL FREE ENERGY PREDICTED BY IDOCK:   -3.07 KCAL/MOL
REMARK 923 INTER-LIGAND FREE ENERGY PREDICTED BY IDOCK:   -2.93 KCAL/MOL
REMARK 924 INTRA-LIGAND FREE ENERGY PREDICTED BY IDOCK:   -0.14 KCAL/MOL
REMARK 927      BINDING AFFINITY PREDICTED BY RF-SCORE:    0.00 PKD
ROOT
HETATM    1  C   UNL     1      -9.583  14.194  68.251  1.00  0.00    -0.226 C  
HETATM    2  N   UNL     1     -10.255  12.989  68.719  1.00  0.00    -0.413 NA 
HETATM    3  H   UNL     1     -11.158  12.876  68.259  1.00  0.00     0.000 HD 
ENDROOT
BRANCH   2   4
HETATM    4  C   UNL     1      -9.435  11.772  68.572  1.00  0.00    -0.163 C  
HETATM    5  C   UNL     1      -8.220  12.014  67.665  1.00  0.00    -0.155 C  
BRANCH   4   6
HETATM    6  C   UNL     1     -10.339  10.639  68.014  1.00  0.00    -0.208 C  
BRANCH   6   7
HETATM    7  C   UNL     1     -10.724   9.616  69.059  1.00  0.00    -0.232 A  
HETATM    8  C   UNL     1     -11.340  10.017  70.254  1.00  0.00    -0.376 A  
HETATM    9  C   UNL     1     -11.588   9.091  71.266  1.00  0.00    -0.387 A  
HETATM   10  C   UNL     1     -11.240   7.753  71.088  1.00  0.00    -0.285 A  
HETATM   11  C   UNL     1     -10.662   7.337  69.891  1.00  0.00    -0.257 A  
HETATM   12  C   UNL     1     -10.408   8.262  68.878  1.00  0.00    -0.230 A  
ENDBRANCH   6   7
ENDBRANCH   4   6
ENDBRANCH   2   4
TORSDOF 3
ENDMDL
MODEL      170
REMARK 921   NORMALIZED FREE ENERGY PREDICTED BY IDOCK:   -2.42 KCAL/MOL
REMARK 922        TOTAL FREE ENERGY PREDICTED BY IDOCK:   -3.07 KCAL/MOL
REMARK 923 INTER-LIGAND FREE ENERGY PREDICTED BY IDOCK:   -2.90 KCAL/MOL
REMARK 924 INTRA-LIGAND FREE ENERGY PREDICTED BY IDOCK:   -0.17 KCAL/MOL
REMARK 927      BINDING AFFINITY PREDICTED BY RF-SCORE:    0.00 PKD
ROOT
HETATM    1  C   UNL     1     -12.842  13.684  65.351  1.00  0.00    -0.389 C  
HETATM    2  N   UNL     1     -12.195  12.407  65.625  1.00  0.00    -0.626 NA 
HETATM    3  H   UNL     1     -11.910  11.952  64.758  1.00  0.00     0.000 HD 
ENDROOT
BRANCH   2   4
HETATM    4  C   UNL     1     -11.058  12.520  66.556  1.00  0.00    -0.287 C  
HETATM    5  C   UNL     1     -10.734  13.987  66.880  1.00  0.00    -0.285 C  
BRANCH   4   6
HETATM    6  C   UNL     1      -9.836  11.799  65.925  1.00  0.00    -0.265 C  
BRANCH   6   7
HETATM    7  C   UNL     1      -9.504  10.488  66.604  1.00  0.00    -0.199 A  
HETATM    8  C   UNL     1      -9.410  10.414  68.001  1.00  0.00    -0.145 A  
HETATM    9  C   UNL     1      -8.989   9.237  68.619  1.00  0.00    -0.132 A  
HETATM   10  C   UNL     1      -8.676   8.119  67.849  1.00  0.00    -0.128 A  
HETATM   11  C   UNL     1      -8.801   8.169  66.463  1.00  0.00    -0.173 A  
HETATM   12  C   UNL     1      -9.217   9.347  65.841  1.00  0.00    -0.269 A  
ENDBRANCH   6   7
ENDBRANCH   4   6
ENDBRANCH   2   4
TORSDOF 3
ENDMDL
MODEL      171
REMARK 921   NORMALIZED FREE ENERGY PREDICTED BY IDOCK:   -2.42 KCAL/MOL
REMARK 922        TOTAL FREE ENERGY PREDICTED BY IDOCK:   -3.07 KCAL/MOL
REMARK 923 INTER-LIGAND FREE ENERGY PREDICTED BY IDOCK:   -3.08 KCAL/MOL
REMARK 924 INTRA-LIGAND FREE ENERGY PREDICTED BY IDOCK:    0.01 KCAL/MOL
REMARK 927      BINDING AFFINITY PREDICTED BY RF-SCORE:    0.00 PKD
ROOT
HETATM    1  C   UNL     1      -7.201   6.576  68.768  1.00  0.00    -0.085 C  
HETATM    2  N   UNL     1      -8.522   7.115  69.063  1.00  0.00    -0.129 NA 
HETATM    3  H   UNL     1      -8.464   8.105  69.301  1.00  0.00     0.000 HD 
ENDROOT
BRANCH   2   4
HETATM    4  C   UNL     1      -9.497   6.892  67.981  1.00  0.00    -0.124 C  
HETATM    5  C   UNL     1     -10.241   8.185  67.613  1.00  0.00    -0.296 C  
BRANCH   4   6
HETATM    6  C   UNL     1     -10.485   5.783  68.434  1.00  0.00    -0.283 C  
BRANCH   6   7
HETATM    7  C   UNL     1     -10.761   5.805  69.921  1.00  0.00    -0.412 A  
HETATM    8  C   UNL     1     -10.094   4.922  70.782  1.00  0.00    -0.303 A  
HETATM    9  C   UNL     1     -10.433   4.861  72.133  1.00  0.00    -0.257 A  
HETATM   10  C   UNL     1     -11.428   5.693  72.640  1.00  0.00    -0.339 A  
HETATM   11  C   UNL     1     -12.072   6.601  71.802  1.00  0.00    -0.400 A  
HETATM   12  C   UNL     1     -11.739   6.661  70.449  1.00  0.00    -0.446 A  
ENDBRANCH   6   7
ENDBRANCH   4   6
ENDBRANCH   2   4
TORSDOF 3
ENDMDL
MODEL      172
REMARK 921   NORMALIZED FREE ENERGY PREDICTED BY IDOCK:   -2.41 KCAL/MOL
REMARK 922        TOTAL FREE ENERGY PREDICTED BY IDOCK:   -3.06 KCAL/MOL
REMARK 923 INTER-LIGAND FREE ENERGY PREDICTED BY IDOCK:   -2.81 KCAL/MOL
REMARK 924 INTRA-LIGAND FREE ENERGY PREDICTED BY IDOCK:   -0.25 KCAL/MOL
REMARK 927      BINDING AFFINITY PREDICTED BY RF-SCORE:    0.00 PKD
ROOT
HETATM    1  C   UNL     1      -8.172   5.774  73.446  1.00  0.00    -0.112 C  
HETATM    2  N   UNL     1      -8.928   4.555  73.698  1.00  0.00    -0.104 NA 
HETATM    3  H   UNL     1      -9.178   4.480  74.684  1.00  0.00     0.000 HD 
ENDROOT
BRANCH   2   4
HETATM    4  C   UNL     1     -10.123   4.425  72.844  1.00  0.00    -0.163 C  
HETATM    5  C   UNL     1     -11.167   3.487  73.469  1.00  0.00    -0.279 C  
BRANCH   4   6
HETATM    6  C   UNL     1      -9.673   3.916  71.448  1.00  0.00    -0.246 C  
BRANCH   6   7
HETATM    7  C   UNL     1     -10.056   4.852  70.322  1.00  0.00    -0.322 A  
HETATM    8  C   UNL     1     -10.935   5.920  70.553  1.00  0.00    -0.362 A  
HETATM    9  C   UNL     1     -11.380   6.710  69.494  1.00  0.00    -0.358 A  
HETATM   10  C   UNL     1     -10.939   6.451  68.197  1.00  0.00    -0.393 A  
HETATM   11  C   UNL     1     -10.037   5.416  67.961  1.00  0.00    -0.224 A  
HETATM   12  C   UNL     1      -9.593   4.621  69.019  1.00  0.00    -0.242 A  
ENDBRANCH   6   7
ENDBRANCH   4   6
ENDBRANCH   2   4
TORSDOF 3
ENDMDL
MODEL      173
REMARK 921   NORMALIZED FREE ENERGY PREDICTED BY IDOCK:   -2.40 KCAL/MOL
REMARK 922        TOTAL FREE ENERGY PREDICTED BY IDOCK:   -3.05 KCAL/MOL
REMARK 923 INTER-LIGAND FREE ENERGY PREDICTED BY IDOCK:   -3.16 KCAL/MOL
REMARK 924 INTRA-LIGAND FREE ENERGY PREDICTED BY IDOCK:    0.11 KCAL/MOL
REMARK 927      BINDING AFFINITY PREDICTED BY RF-SCORE:    0.00 PKD
ROOT
HETATM    1  C   UNL     1     -11.833  10.137  71.186  1.00  0.00    -0.381 C  
HETATM    2  N   UNL     1     -11.469  10.616  69.859  1.00  0.00    -0.291 NA 
HETATM    3  H   UNL     1     -11.139  11.580  69.899  1.00  0.00     0.000 HD 
ENDROOT
BRANCH   2   4
HETATM    4  C   UNL     1     -10.485   9.753  69.180  1.00  0.00    -0.215 C  
HETATM    5  C   UNL     1      -9.138   9.739  69.919  1.00  0.00    -0.257 C  
BRANCH   4   6
HETATM    6  C   UNL     1     -10.321  10.254  67.719  1.00  0.00    -0.246 C  
BRANCH   6   7
HETATM    7  C   UNL     1     -10.547  11.743  67.574  1.00  0.00    -0.247 A  
HETATM    8  C   UNL     1      -9.540  12.653  67.928  1.00  0.00    -0.211 A  
HETATM    9  C   UNL     1      -9.789  14.025  67.905  1.00  0.00    -0.233 A  
HETATM   10  C   UNL     1     -11.038  14.501  67.512  1.00  0.00    -0.316 A  
HETATM   11  C   UNL     1     -12.033  13.608  67.122  1.00  0.00    -0.434 A  
HETATM   12  C   UNL     1     -11.789  12.235  67.148  1.00  0.00    -0.328 A  
ENDBRANCH   6   7
ENDBRANCH   4   6
ENDBRANCH   2   4
TORSDOF 3
ENDMDL
MODEL      174
REMARK 921   NORMALIZED FREE ENERGY PREDICTED BY IDOCK:   -2.38 KCAL/MOL
REMARK 922        TOTAL FREE ENERGY PREDICTED BY IDOCK:   -3.03 KCAL/MOL
REMARK 923 INTER-LIGAND FREE ENERGY PREDICTED BY IDOCK:   -2.91 KCAL/MOL
REMARK 924 INTRA-LIGAND FREE ENERGY PREDICTED BY IDOCK:   -0.12 KCAL/MOL
REMARK 927      BINDING AFFINITY PREDICTED BY RF-SCORE:    0.00 PKD
ROOT
HETATM    1  C   UNL     1     -12.621  10.901  71.158  1.00  0.00    -0.428 C  
HETATM    2  N   UNL     1     -12.304  10.019  70.042  1.00  0.00    -0.501 NA 
HETATM    3  H   UNL     1     -13.146   9.778  69.520  1.00  0.00     0.000 HD 
ENDROOT
BRANCH   2   4
HETATM    4  C   UNL     1     -11.269  10.566  69.145  1.00  0.00    -0.256 C  
HETATM    5  C   UNL     1     -11.851  11.609  68.179  1.00  0.00    -0.315 C  
BRANCH   4   6
HETATM    6  C   UNL     1     -10.619   9.386  68.374  1.00  0.00    -0.247 C  
BRANCH   6   7
HETATM    7  C   UNL     1      -9.833   9.831  67.160  1.00  0.00    -0.238 A  
HETATM    8  C   UNL     1     -10.267   9.496  65.869  1.00  0.00    -0.185 A  
HETATM    9  C   UNL     1      -9.483   9.804  64.758  1.00  0.00    -0.318 A  
HETATM   10  C   UNL     1      -8.267  10.463  64.924  1.00  0.00    -0.145 A  
HETATM   11  C   UNL     1      -7.843  10.834  66.198  1.00  0.00    -0.155 A  
HETATM   12  C   UNL     1      -8.623  10.523  67.312  1.00  0.00    -0.122 A  
ENDBRANCH   6   7
ENDBRANCH   4   6
ENDBRANCH   2   4
TORSDOF 3
ENDMDL
MODEL      175
REMARK 921   NORMALIZED FREE ENERGY PREDICTED BY IDOCK:   -2.38 KCAL/MOL
REMARK 922        TOTAL FREE ENERGY PREDICTED BY IDOCK:   -3.03 KCAL/MOL
REMARK 923 INTER-LIGAND FREE ENERGY PREDICTED BY IDOCK:   -3.03 KCAL/MOL
REMARK 924 INTRA-LIGAND FREE ENERGY PREDICTED BY IDOCK:    0.01 KCAL/MOL
REMARK 927      BINDING AFFINITY PREDICTED BY RF-SCORE:    0.00 PKD
ROOT
HETATM    1  C   UNL     1      -7.542   8.318  72.589  1.00  0.00    -0.114 C  
HETATM    2  N   UNL     1      -8.981   8.541  72.600  1.00  0.00    -0.347 NA 
HETATM    3  H   UNL     1      -9.246   9.237  71.902  1.00  0.00     0.000 HD 
ENDROOT
BRANCH   2   4
HETATM    4  C   UNL     1      -9.763   7.302  72.427  1.00  0.00    -0.154 C  
HETATM    5  C   UNL     1      -8.925   6.190  71.779  1.00  0.00    -0.141 C  
BRANCH   4   6
HETATM    6  C   UNL     1     -11.018   7.631  71.574  1.00  0.00    -0.263 C  
BRANCH   6   7
HETATM    7  C   UNL     1     -10.787   7.469  70.088  1.00  0.00    -0.259 A  
HETATM    8  C   UNL     1     -10.276   8.530  69.328  1.00  0.00    -0.211 A  
HETATM    9  C   UNL     1     -10.173   8.420  67.941  1.00  0.00    -0.273 A  
HETATM   10  C   UNL     1     -10.563   7.243  67.305  1.00  0.00    -0.395 A  
HETATM   11  C   UNL     1     -11.036   6.169  68.054  1.00  0.00    -0.399 A  
HETATM   12  C   UNL     1     -11.144   6.277  69.441  1.00  0.00    -0.477 A  
ENDBRANCH   6   7
ENDBRANCH   4   6
ENDBRANCH   2   4
TORSDOF 3
ENDMDL
MODEL      176
REMARK 921   NORMALIZED FREE ENERGY PREDICTED BY IDOCK:   -2.37 KCAL/MOL
REMARK 922        TOTAL FREE ENERGY PREDICTED BY IDOCK:   -3.01 KCAL/MOL
REMARK 923 INTER-LIGAND FREE ENERGY PREDICTED BY IDOCK:   -2.77 KCAL/MOL
REMARK 924 INTRA-LIGAND FREE ENERGY PREDICTED BY IDOCK:   -0.25 KCAL/MOL
REMARK 927      BINDING AFFINITY PREDICTED BY RF-SCORE:    0.00 PKD
ROOT
HETATM    1  C   UNL     1      -9.134   5.921  69.014  1.00  0.00    -0.121 C  
HETATM    2  N   UNL     1      -9.209   6.642  70.277  1.00  0.00    -0.155 NA 
HETATM    3  H   UNL     1      -8.425   6.398  70.881  1.00  0.00     0.000 HD 
ENDROOT
BRANCH   2   4
HETATM    4  C   UNL     1      -9.305   8.104  70.108  1.00  0.00    -0.159 C  
HETATM    5  C   UNL     1      -8.715   8.853  71.313  1.00  0.00    -0.279 C  
BRANCH   4   6
HETATM    6  C   UNL     1     -10.797   8.474  69.891  1.00  0.00    -0.205 C  
BRANCH   6   7
HETATM    7  C   UNL     1     -10.988   9.863  69.322  1.00  0.00    -0.244 A  
HETATM    8  C   UNL     1     -10.499  10.183  68.048  1.00  0.00    -0.249 A  
HETATM    9  C   UNL     1     -10.570  11.492  67.573  1.00  0.00    -0.243 A  
HETATM   10  C   UNL     1     -11.147  12.489  68.358  1.00  0.00    -0.293 A  
HETATM   11  C   UNL     1     -11.671  12.174  69.610  1.00  0.00    -0.396 A  
HETATM   12  C   UNL     1     -11.596  10.866  70.090  1.00  0.00    -0.425 A  
ENDBRANCH   6   7
ENDBRANCH   4   6
ENDBRANCH   2   4
TORSDOF 3
ENDMDL
MODEL      177
REMARK 921   NORMALIZED FREE ENERGY PREDICTED BY IDOCK:   -2.35 KCAL/MOL
REMARK 922        TOTAL FREE ENERGY PREDICTED BY IDOCK:   -2.99 KCAL/MOL
REMARK 923 INTER-LIGAND FREE ENERGY PREDICTED BY IDOCK:   -2.82 KCAL/MOL
REMARK 924 INTRA-LIGAND FREE ENERGY PREDICTED BY IDOCK:   -0.17 KCAL/MOL
REMARK 927      BINDING AFFINITY PREDICTED BY RF-SCORE:    0.00 PKD
ROOT
HETATM    1  C   UNL     1      -8.766   4.412  70.179  1.00  0.00    -0.074 C  
HETATM    2  N   UNL     1      -9.917   4.621  69.311  1.00  0.00    -0.191 NA 
HETATM    3  H   UNL     1     -10.665   3.965  69.537  1.00  0.00     0.000 HD 
ENDROOT
BRANCH   2   4
HETATM    4  C   UNL     1     -10.415   6.009  69.328  1.00  0.00    -0.264 C  
HETATM    5  C   UNL     1     -11.474   6.217  70.422  1.00  0.00    -0.414 C  
BRANCH   4   6
HETATM    6  C   UNL     1     -10.984   6.341  67.922  1.00  0.00    -0.421 C  
BRANCH   6   7
HETATM    7  C   UNL     1     -10.359   7.572  67.304  1.00  0.00    -0.366 A  
HETATM    8  C   UNL     1     -10.826   8.851  67.638  1.00  0.00    -0.112 A  
HETATM    9  C   UNL     1     -10.331   9.978  66.983  1.00  0.00    -0.305 A  
HETATM   10  C   UNL     1      -9.353   9.839  66.000  1.00  0.00    -0.249 A  
HETATM   11  C   UNL     1      -8.855   8.577  65.685  1.00  0.00    -0.214 A  
HETATM   12  C   UNL     1      -9.351   7.447  66.337  1.00  0.00    -0.206 A  
ENDBRANCH   6   7
ENDBRANCH   4   6
ENDBRANCH   2   4
TORSDOF 3
ENDMDL
MODEL      178
REMARK 921   NORMALIZED FREE ENERGY PREDICTED BY IDOCK:   -2.33 KCAL/MOL
REMARK 922        TOTAL FREE ENERGY PREDICTED BY IDOCK:   -2.96 KCAL/MOL
REMARK 923 INTER-LIGAND FREE ENERGY PREDICTED BY IDOCK:   -2.76 KCAL/MOL
REMARK 924 INTRA-LIGAND FREE ENERGY PREDICTED BY IDOCK:   -0.20 KCAL/MOL
REMARK 927      BINDING AFFINITY PREDICTED BY RF-SCORE:    0.00 PKD
ROOT
HETATM    1  C   UNL     1     -13.065  10.352  71.827  1.00  0.00    -0.462 C  
HETATM    2  N   UNL     1     -12.440  10.193  70.521  1.00  0.00    -0.456 NA 
HETATM    3  H   UNL     1     -12.011  11.066  70.215  1.00  0.00     0.000 HD 
ENDROOT
BRANCH   2   4
HETATM    4  C   UNL     1     -11.467   9.086  70.473  1.00  0.00    -0.212 C  
HETATM    5  C   UNL     1     -11.505   8.242  71.756  1.00  0.00    -0.353 C  
BRANCH   4   6
HETATM    6  C   UNL     1     -10.055   9.687  70.236  1.00  0.00    -0.331 C  
BRANCH   6   7
HETATM    7  C   UNL     1      -9.345   9.086  69.043  1.00  0.00    -0.140 A  
HETATM    8  C   UNL     1      -9.989   9.004  67.800  1.00  0.00    -0.235 A  
HETATM    9  C   UNL     1      -9.381   8.345  66.732  1.00  0.00    -0.235 A  
HETATM   10  C   UNL     1      -8.118   7.778  66.890  1.00  0.00    -0.116 A  
HETATM   11  C   UNL     1      -7.453   7.886  68.110  1.00  0.00    -0.107 A  
HETATM   12  C   UNL     1      -8.061   8.541  69.181  1.00  0.00    -0.117 A  
ENDBRANCH   6   7
ENDBRANCH   4   6
ENDBRANCH   2   4
TORSDOF 3
ENDMDL
MODEL      179
REMARK 921   NORMALIZED FREE ENERGY PREDICTED BY IDOCK:   -2.31 KCAL/MOL
REMARK 922        TOTAL FREE ENERGY PREDICTED BY IDOCK:   -2.95 KCAL/MOL
REMARK 923 INTER-LIGAND FREE ENERGY PREDICTED BY IDOCK:   -2.75 KCAL/MOL
REMARK 924 INTRA-LIGAND FREE ENERGY PREDICTED BY IDOCK:   -0.20 KCAL/MOL
REMARK 927      BINDING AFFINITY PREDICTED BY RF-SCORE:    0.00 PKD
ROOT
HETATM    1  C   UNL     1      -7.018   5.972  68.421  1.00  0.00    -0.076 C  
HETATM    2  N   UNL     1      -8.405   5.526  68.406  1.00  0.00    -0.098 NA 
HETATM    3  H   UNL     1      -8.535   4.770  67.735  1.00  0.00     0.000 HD 
ENDROOT
BRANCH   2   4
HETATM    4  C   UNL     1      -8.906   5.138  69.737  1.00  0.00    -0.106 C  
HETATM    5  C   UNL     1      -8.551   3.682  70.073  1.00  0.00    -0.105 C  
BRANCH   4   6
HETATM    6  C   UNL     1     -10.441   5.365  69.767  1.00  0.00    -0.378 C  
BRANCH   6   7
HETATM    7  C   UNL     1     -10.874   6.369  70.813  1.00  0.00    -0.321 A  
HETATM    8  C   UNL     1     -12.201   6.818  70.862  1.00  0.00    -0.386 A  
HETATM    9  C   UNL     1     -12.573   7.828  71.748  1.00  0.00    -0.356 A  
HETATM   10  C   UNL     1     -11.626   8.388  72.604  1.00  0.00    -0.367 A  
HETATM   11  C   UNL     1     -10.313   7.924  72.590  1.00  0.00    -0.372 A  
HETATM   12  C   UNL     1      -9.937   6.916  71.702  1.00  0.00    -0.180 A  
ENDBRANCH   6   7
ENDBRANCH   4   6
ENDBRANCH   2   4
TORSDOF 3
ENDMDL
MODEL      180
REMARK 921   NORMALIZED FREE ENERGY PREDICTED BY IDOCK:   -2.31 KCAL/MOL
REMARK 922        TOTAL FREE ENERGY PREDICTED BY IDOCK:   -2.95 KCAL/MOL
REMARK 923 INTER-LIGAND FREE ENERGY PREDICTED BY IDOCK:   -2.78 KCAL/MOL
REMARK 924 INTRA-LIGAND FREE ENERGY PREDICTED BY IDOCK:   -0.17 KCAL/MOL
REMARK 927      BINDING AFFINITY PREDICTED BY RF-SCORE:    0.00 PKD
ROOT
HETATM    1  C   UNL     1     -12.882  11.108  71.231  1.00  0.00    -0.412 C  
HETATM    2  N   UNL     1     -11.709  10.336  70.846  1.00  0.00    -0.360 NA 
HETATM    3  H   UNL     1     -10.874  10.687  71.315  1.00  0.00     0.000 HD 
ENDROOT
BRANCH   2   4
HETATM    4  C   UNL     1     -11.866   8.887  71.072  1.00  0.00    -0.276 C  
HETATM    5  C   UNL     1     -12.875   8.596  72.193  1.00  0.00    -0.442 C  
BRANCH   4   6
HETATM    6  C   UNL     1     -10.471   8.289  71.401  1.00  0.00    -0.276 C  
BRANCH   6   7
HETATM    7  C   UNL     1      -9.872   7.512  70.249  1.00  0.00    -0.183 A  
HETATM    8  C   UNL     1     -10.204   6.164  70.051  1.00  0.00    -0.250 A  
HETATM    9  C   UNL     1      -9.564   5.417  69.064  1.00  0.00    -0.191 A  
HETATM   10  C   UNL     1      -8.599   6.013  68.254  1.00  0.00    -0.115 A  
HETATM   11  C   UNL     1      -8.288   7.361  68.416  1.00  0.00    -0.125 A  
HETATM   12  C   UNL     1      -8.924   8.110  69.407  1.00  0.00    -0.147 A  
ENDBRANCH   6   7
ENDBRANCH   4   6
ENDBRANCH   2   4
TORSDOF 3
ENDMDL
MODEL      181
REMARK 921   NORMALIZED FREE ENERGY PREDICTED BY IDOCK:   -2.30 KCAL/MOL
REMARK 922        TOTAL FREE ENERGY PREDICTED BY IDOCK:   -2.93 KCAL/MOL
REMARK 923 INTER-LIGAND FREE ENERGY PREDICTED BY IDOCK:   -2.74 KCAL/MOL
REMARK 924 INTRA-LIGAND FREE ENERGY PREDICTED BY IDOCK:   -0.20 KCAL/MOL
REMARK 927      BINDING AFFINITY PREDICTED BY RF-SCORE:    0.00 PKD
ROOT
HETATM    1  C   UNL     1     -10.462   8.761  66.954  1.00  0.00    -0.249 C  
HETATM    2  N   UNL     1     -10.872   8.318  68.280  1.00  0.00    -0.448 NA 
HETATM    3  H   UNL     1     -10.664   7.328  68.412  1.00  0.00     0.000 HD 
ENDROOT
BRANCH   2   4
HETATM    4  C   UNL     1     -10.291   9.125  69.369  1.00  0.00    -0.216 C  
HETATM    5  C   UNL     1      -9.969  10.554  68.904  1.00  0.00    -0.213 C  
BRANCH   4   6
HETATM    6  C   UNL     1      -9.019   8.402  69.888  1.00  0.00    -0.142 C  
BRANCH   6   7
HETATM    7  C   UNL     1      -9.014   8.213  71.389  1.00  0.00    -0.188 A  
HETATM    8  C   UNL     1      -7.811   8.250  72.107  1.00  0.00    -0.170 A  
HETATM    9  C   UNL     1      -7.792   7.960  73.471  1.00  0.00    -0.214 A  
HETATM   10  C   UNL     1      -8.977   7.647  74.133  1.00  0.00    -0.251 A  
HETATM   11  C   UNL     1     -10.184   7.643  73.438  1.00  0.00    -0.375 A  
HETATM   12  C   UNL     1     -10.205   7.929  72.073  1.00  0.00    -0.270 A  
ENDBRANCH   6   7
ENDBRANCH   4   6
ENDBRANCH   2   4
TORSDOF 3
ENDMDL
MODEL      182
REMARK 921   NORMALIZED FREE ENERGY PREDICTED BY IDOCK:   -2.29 KCAL/MOL
REMARK 922        TOTAL FREE ENERGY PREDICTED BY IDOCK:   -2.92 KCAL/MOL
REMARK 923 INTER-LIGAND FREE ENERGY PREDICTED BY IDOCK:   -2.74 KCAL/MOL
REMARK 924 INTRA-LIGAND FREE ENERGY PREDICTED BY IDOCK:   -0.19 KCAL/MOL
REMARK 927      BINDING AFFINITY PREDICTED BY RF-SCORE:    0.00 PKD
ROOT
HETATM    1  C   UNL     1     -10.800   4.720  65.806  1.00  0.00    -0.069 C  
HETATM    2  N   UNL     1     -11.025   5.443  67.050  1.00  0.00    -0.343 NA 
HETATM    3  H   UNL     1     -11.951   5.238  67.426  1.00  0.00     0.000 HD 
ENDROOT
BRANCH   2   4
HETATM    4  C   UNL     1      -9.982   5.198  68.063  1.00  0.00    -0.145 C  
HETATM    5  C   UNL     1      -9.301   3.837  67.856  1.00  0.00    -0.236 C  
BRANCH   4   6
HETATM    6  C   UNL     1     -10.634   5.294  69.469  1.00  0.00    -0.244 C  
BRANCH   6   7
HETATM    7  C   UNL     1     -10.583   6.688  70.055  1.00  0.00    -0.266 A  
HETATM    8  C   UNL     1     -11.673   7.198  70.773  1.00  0.00    -0.363 A  
HETATM    9  C   UNL     1     -11.674   8.522  71.211  1.00  0.00    -0.331 A  
HETATM   10  C   UNL     1     -10.578   9.342  70.951  1.00  0.00    -0.390 A  
HETATM   11  C   UNL     1      -9.473   8.835  70.271  1.00  0.00    -0.194 A  
HETATM   12  C   UNL     1      -9.472   7.512  69.828  1.00  0.00    -0.156 A  
ENDBRANCH   6   7
ENDBRANCH   4   6
ENDBRANCH   2   4
TORSDOF 3
ENDMDL
MODEL      183
REMARK 921   NORMALIZED FREE ENERGY PREDICTED BY IDOCK:   -2.27 KCAL/MOL
REMARK 922        TOTAL FREE ENERGY PREDICTED BY IDOCK:   -2.90 KCAL/MOL
REMARK 923 INTER-LIGAND FREE ENERGY PREDICTED BY IDOCK:   -2.86 KCAL/MOL
REMARK 924 INTRA-LIGAND FREE ENERGY PREDICTED BY IDOCK:   -0.04 KCAL/MOL
REMARK 927      BINDING AFFINITY PREDICTED BY RF-SCORE:    0.00 PKD
ROOT
HETATM    1  C   UNL     1      -7.167  15.973  66.975  1.00  0.00    -0.213 C  
HETATM    2  N   UNL     1      -7.727  14.630  66.910  1.00  0.00    -0.286 NA 
HETATM    3  H   UNL     1      -7.334  14.111  66.125  1.00  0.00     0.000 HD 
ENDROOT
BRANCH   2   4
HETATM    4  C   UNL     1      -7.573  13.875  68.167  1.00  0.00    -0.134 C  
HETATM    5  C   UNL     1      -6.095  13.724  68.560  1.00  0.00    -0.092 C  
BRANCH   4   6
HETATM    6  C   UNL     1      -8.253  12.490  67.992  1.00  0.00    -0.166 C  
BRANCH   6   7
HETATM    7  C   UNL     1      -9.536  12.555  67.193  1.00  0.00    -0.208 A  
HETATM    8  C   UNL     1     -10.668  13.194  67.717  1.00  0.00    -0.252 A  
HETATM    9  C   UNL     1     -11.883  13.153  67.033  1.00  0.00    -0.435 A  
HETATM   10  C   UNL     1     -11.973  12.487  65.812  1.00  0.00    -0.482 A  
HETATM   11  C   UNL     1     -10.845  11.880  65.264  1.00  0.00    -0.347 A  
HETATM   12  C   UNL     1      -9.630  11.916  65.948  1.00  0.00    -0.248 A  
ENDBRANCH   6   7
ENDBRANCH   4   6
ENDBRANCH   2   4
TORSDOF 3
ENDMDL
MODEL      184
REMARK 921   NORMALIZED FREE ENERGY PREDICTED BY IDOCK:   -2.27 KCAL/MOL
REMARK 922        TOTAL FREE ENERGY PREDICTED BY IDOCK:   -2.90 KCAL/MOL
REMARK 923 INTER-LIGAND FREE ENERGY PREDICTED BY IDOCK:   -2.67 KCAL/MOL
REMARK 924 INTRA-LIGAND FREE ENERGY PREDICTED BY IDOCK:   -0.22 KCAL/MOL
REMARK 927      BINDING AFFINITY PREDICTED BY RF-SCORE:    0.00 PKD
ROOT
HETATM    1  C   UNL     1      -8.233   6.235  66.548  1.00  0.00    -0.112 C  
HETATM    2  N   UNL     1      -9.376   7.044  66.143  1.00  0.00    -0.354 NA 
HETATM    3  H   UNL     1     -10.179   6.455  65.926  1.00  0.00     0.000 HD 
ENDROOT
BRANCH   2   4
HETATM    4  C   UNL     1      -9.736   8.077  67.132  1.00  0.00    -0.195 C  
HETATM    5  C   UNL     1      -9.370   9.485  66.639  1.00  0.00    -0.207 C  
BRANCH   4   6
HETATM    6  C   UNL     1      -9.019   7.745  68.469  1.00  0.00    -0.133 C  
BRANCH   6   7
HETATM    7  C   UNL     1      -9.970   7.617  69.638  1.00  0.00    -0.185 A  
HETATM    8  C   UNL     1     -10.199   6.370  70.236  1.00  0.00    -0.236 A  
HETATM    9  C   UNL     1     -11.163   6.231  71.234  1.00  0.00    -0.355 A  
HETATM   10  C   UNL     1     -11.893   7.340  71.657  1.00  0.00    -0.330 A  
HETATM   11  C   UNL     1     -11.648   8.591  71.097  1.00  0.00    -0.325 A  
HETATM   12  C   UNL     1     -10.688   8.732  70.094  1.00  0.00    -0.239 A  
ENDBRANCH   6   7
ENDBRANCH   4   6
ENDBRANCH   2   4
TORSDOF 3
ENDMDL
MODEL      185
REMARK 921   NORMALIZED FREE ENERGY PREDICTED BY IDOCK:   -2.26 KCAL/MOL
REMARK 922        TOTAL FREE ENERGY PREDICTED BY IDOCK:   -2.89 KCAL/MOL
REMARK 923 INTER-LIGAND FREE ENERGY PREDICTED BY IDOCK:   -2.70 KCAL/MOL
REMARK 924 INTRA-LIGAND FREE ENERGY PREDICTED BY IDOCK:   -0.18 KCAL/MOL
REMARK 927      BINDING AFFINITY PREDICTED BY RF-SCORE:    0.00 PKD
ROOT
HETATM    1  C   UNL     1      -6.098   7.367  67.878  1.00  0.00    -0.035 C  
HETATM    2  N   UNL     1      -7.448   7.834  68.163  1.00  0.00    -0.105 NA 
HETATM    3  H   UNL     1      -7.909   8.153  67.312  1.00  0.00     0.000 HD 
ENDROOT
BRANCH   2   4
HETATM    4  C   UNL     1      -8.275   6.833  68.863  1.00  0.00    -0.121 C  
HETATM    5  C   UNL     1      -7.909   5.402  68.441  1.00  0.00    -0.084 C  
BRANCH   4   6
HETATM    6  C   UNL     1      -9.768   7.142  68.570  1.00  0.00    -0.143 C  
BRANCH   6   7
HETATM    7  C   UNL     1     -10.559   7.486  69.813  1.00  0.00    -0.245 A  
HETATM    8  C   UNL     1     -10.212   8.600  70.591  1.00  0.00    -0.237 A  
HETATM    9  C   UNL     1     -10.864   8.850  71.797  1.00  0.00    -0.436 A  
HETATM   10  C   UNL     1     -11.880   7.999  72.230  1.00  0.00    -0.424 A  
HETATM   11  C   UNL     1     -12.258   6.910  71.448  1.00  0.00    -0.418 A  
HETATM   12  C   UNL     1     -11.604   6.656  70.242  1.00  0.00    -0.454 A  
ENDBRANCH   6   7
ENDBRANCH   4   6
ENDBRANCH   2   4
TORSDOF 3
ENDMDL
MODEL      186
REMARK 921   NORMALIZED FREE ENERGY PREDICTED BY IDOCK:   -2.25 KCAL/MOL
REMARK 922        TOTAL FREE ENERGY PREDICTED BY IDOCK:   -2.87 KCAL/MOL
REMARK 923 INTER-LIGAND FREE ENERGY PREDICTED BY IDOCK:   -2.78 KCAL/MOL
REMARK 924 INTRA-LIGAND FREE ENERGY PREDICTED BY IDOCK:   -0.09 KCAL/MOL
REMARK 927      BINDING AFFINITY PREDICTED BY RF-SCORE:    0.00 PKD
ROOT
HETATM    1  C   UNL     1     -10.387   9.445  68.372  1.00  0.00    -0.205 C  
HETATM    2  N   UNL     1     -10.522   9.563  66.926  1.00  0.00    -0.230 NA 
HETATM    3  H   UNL     1     -11.471   9.333  66.632  1.00  0.00     0.000 HD 
ENDROOT
BRANCH   2   4
HETATM    4  C   UNL     1     -10.118  10.883  66.410  1.00  0.00    -0.231 C  
HETATM    5  C   UNL     1      -8.611  11.122  66.583  1.00  0.00    -0.165 C  
BRANCH   4   6
HETATM    6  C   UNL     1     -10.948  11.970  67.145  1.00  0.00    -0.320 C  
BRANCH   6   7
HETATM    7  C   UNL     1     -10.344  13.353  67.037  1.00  0.00    -0.247 A  
HETATM    8  C   UNL     1     -10.339  14.034  65.812  1.00  0.00    -0.330 A  
HETATM    9  C   UNL     1      -9.680  15.256  65.685  1.00  0.00    -0.360 A  
HETATM   10  C   UNL     1      -9.034  15.817  66.785  1.00  0.00    -0.289 A  
HETATM   11  C   UNL     1      -9.064  15.167  68.017  1.00  0.00    -0.180 A  
HETATM   12  C   UNL     1      -9.719  13.943  68.146  1.00  0.00    -0.222 A  
ENDBRANCH   6   7
ENDBRANCH   4   6
ENDBRANCH   2   4
TORSDOF 3
ENDMDL
MODEL      187
REMARK 921   NORMALIZED FREE ENERGY PREDICTED BY IDOCK:   -2.24 KCAL/MOL
REMARK 922        TOTAL FREE ENERGY PREDICTED BY IDOCK:   -2.86 KCAL/MOL
REMARK 923 INTER-LIGAND FREE ENERGY PREDICTED BY IDOCK:   -2.66 KCAL/MOL
REMARK 924 INTRA-LIGAND FREE ENERGY PREDICTED BY IDOCK:   -0.20 KCAL/MOL
REMARK 927      BINDING AFFINITY PREDICTED BY RF-SCORE:    0.00 PKD
ROOT
HETATM    1  C   UNL     1      -9.664  10.873  63.148  1.00  0.00    -0.363 C  
HETATM    2  N   UNL     1      -9.089  11.472  64.345  1.00  0.00    -0.401 NA 
HETATM    3  H   UNL     1      -9.668  12.243  64.678  1.00  0.00     0.000 HD 
ENDROOT
BRANCH   2   4
HETATM    4  C   UNL     1      -8.843  10.497  65.423  1.00  0.00    -0.187 C  
HETATM    5  C   UNL     1      -8.464   9.118  64.863  1.00  0.00    -0.191 C  
BRANCH   4   6
HETATM    6  C   UNL     1     -10.117  10.415  66.308  1.00  0.00    -0.292 C  
BRANCH   6   7
HETATM    7  C   UNL     1      -9.883   9.701  67.621  1.00  0.00    -0.202 A  
HETATM    8  C   UNL     1      -9.115  10.300  68.629  1.00  0.00    -0.152 A  
HETATM    9  C   UNL     1      -8.801   9.596  69.791  1.00  0.00    -0.224 A  
HETATM   10  C   UNL     1      -9.266   8.294  69.964  1.00  0.00    -0.151 A  
HETATM   11  C   UNL     1     -10.061   7.702  68.985  1.00  0.00    -0.199 A  
HETATM   12  C   UNL     1     -10.373   8.402  67.820  1.00  0.00    -0.297 A  
ENDBRANCH   6   7
ENDBRANCH   4   6
ENDBRANCH   2   4
TORSDOF 3
ENDMDL
MODEL      188
REMARK 921   NORMALIZED FREE ENERGY PREDICTED BY IDOCK:   -2.24 KCAL/MOL
REMARK 922        TOTAL FREE ENERGY PREDICTED BY IDOCK:   -2.86 KCAL/MOL
REMARK 923 INTER-LIGAND FREE ENERGY PREDICTED BY IDOCK:   -2.90 KCAL/MOL
REMARK 924 INTRA-LIGAND FREE ENERGY PREDICTED BY IDOCK:    0.05 KCAL/MOL
REMARK 927      BINDING AFFINITY PREDICTED BY RF-SCORE:    0.00 PKD
ROOT
HETATM    1  C   UNL     1      -8.177  16.517  67.834  1.00  0.00    -0.168 C  
HETATM    2  N   UNL     1      -9.520  17.068  67.712  1.00  0.00    -0.242 NA 
HETATM    3  H   UNL     1      -9.920  16.850  66.800  1.00  0.00     0.000 HD 
ENDROOT
BRANCH   2   4
HETATM    4  C   UNL     1     -10.424  16.641  68.796  1.00  0.00    -0.324 C  
HETATM    5  C   UNL     1      -9.680  15.828  69.867  1.00  0.00    -0.089 C  
BRANCH   4   6
HETATM    6  C   UNL     1     -11.584  15.819  68.171  1.00  0.00    -0.259 C  
BRANCH   6   7
HETATM    7  C   UNL     1     -11.506  14.342  68.491  1.00  0.00    -0.326 A  
HETATM    8  C   UNL     1     -10.823  13.464  67.638  1.00  0.00    -0.273 A  
HETATM    9  C   UNL     1     -10.851  12.090  67.870  1.00  0.00    -0.254 A  
HETATM   10  C   UNL     1     -11.547  11.581  68.965  1.00  0.00    -0.383 A  
HETATM   11  C   UNL     1     -12.198  12.447  69.841  1.00  0.00    -0.227 A  
HETATM   12  C   UNL     1     -12.175  13.823  69.609  1.00  0.00    -0.359 A  
ENDBRANCH   6   7
ENDBRANCH   4   6
ENDBRANCH   2   4
TORSDOF 3
ENDMDL
MODEL      189
REMARK 921   NORMALIZED FREE ENERGY PREDICTED BY IDOCK:   -2.22 KCAL/MOL
REMARK 922        TOTAL FREE ENERGY PREDICTED BY IDOCK:   -2.84 KCAL/MOL
REMARK 923 INTER-LIGAND FREE ENERGY PREDICTED BY IDOCK:   -3.93 KCAL/MOL
REMARK 924 INTRA-LIGAND FREE ENERGY PREDICTED BY IDOCK:    1.09 KCAL/MOL
REMARK 927      BINDING AFFINITY PREDICTED BY RF-SCORE:    0.00 PKD
ROOT
HETATM    1  C   UNL     1     -14.343   8.149  71.685  1.00  0.00    -0.469 C  
HETATM    2  N   UNL     1     -13.026   7.932  71.101  1.00  0.00    -0.527 NA 
HETATM    3  H   UNL     1     -12.905   8.494  70.259  1.00  0.00     0.000 HD 
ENDROOT
BRANCH   2   4
HETATM    4  C   UNL     1     -11.923   8.167  72.051  1.00  0.00    -0.340 C  
HETATM    5  C   UNL     1     -10.966   9.259  71.549  1.00  0.00    -0.446 C  
BRANCH   4   6
HETATM    6  C   UNL     1     -11.176   6.824  72.275  1.00  0.00    -0.295 C  
BRANCH   6   7
HETATM    7  C   UNL     1     -10.868   6.093  70.986  1.00  0.00    -0.338 A  
HETATM    8  C   UNL     1     -10.150   4.889  71.006  1.00  0.00    -0.288 A  
HETATM    9  C   UNL     1      -9.764   4.277  69.814  1.00  0.00    -0.290 A  
HETATM   10  C   UNL     1     -10.107   4.853  68.592  1.00  0.00    -0.159 A  
HETATM   11  C   UNL     1     -10.853   6.029  68.560  1.00  0.00    -0.363 A  
HETATM   12  C   UNL     1     -11.236   6.646  69.752  1.00  0.00    -0.413 A  
ENDBRANCH   6   7
ENDBRANCH   4   6
ENDBRANCH   2   4
TORSDOF 3
ENDMDL
MODEL      190
REMARK 921   NORMALIZED FREE ENERGY PREDICTED BY IDOCK:   -2.22 KCAL/MOL
REMARK 922        TOTAL FREE ENERGY PREDICTED BY IDOCK:   -2.84 KCAL/MOL
REMARK 923 INTER-LIGAND FREE ENERGY PREDICTED BY IDOCK:   -2.61 KCAL/MOL
REMARK 924 INTRA-LIGAND FREE ENERGY PREDICTED BY IDOCK:   -0.22 KCAL/MOL
REMARK 927      BINDING AFFINITY PREDICTED BY RF-SCORE:    0.00 PKD
ROOT
HETATM    1  C   UNL     1      -6.656   9.447  68.110  1.00  0.00    -0.059 C  
HETATM    2  N   UNL     1      -7.914   8.729  67.957  1.00  0.00    -0.106 NA 
HETATM    3  H   UNL     1      -8.597   9.044  68.645  1.00  0.00     0.000 HD 
ENDROOT
BRANCH   2   4
HETATM    4  C   UNL     1      -8.468   8.809  66.593  1.00  0.00    -0.108 C  
HETATM    5  C   UNL     1      -7.896   7.711  65.684  1.00  0.00    -0.109 C  
BRANCH   4   6
HETATM    6  C   UNL     1      -8.167  10.223  66.026  1.00  0.00    -0.141 C  
BRANCH   6   7
HETATM    7  C   UNL     1      -9.414  11.046  65.789  1.00  0.00    -0.242 A  
HETATM    8  C   UNL     1     -10.181  11.503  66.869  1.00  0.00    -0.249 A  
HETATM    9  C   UNL     1     -11.392  12.159  66.649  1.00  0.00    -0.405 A  
HETATM   10  C   UNL     1     -11.838  12.380  65.348  1.00  0.00    -0.460 A  
HETATM   11  C   UNL     1     -11.066  11.964  64.266  1.00  0.00    -0.418 A  
HETATM   12  C   UNL     1      -9.857  11.303  64.483  1.00  0.00    -0.317 A  
ENDBRANCH   6   7
ENDBRANCH   4   6
ENDBRANCH   2   4
TORSDOF 3
ENDMDL
MODEL      191
REMARK 921   NORMALIZED FREE ENERGY PREDICTED BY IDOCK:   -2.20 KCAL/MOL
REMARK 922        TOTAL FREE ENERGY PREDICTED BY IDOCK:   -2.81 KCAL/MOL
REMARK 923 INTER-LIGAND FREE ENERGY PREDICTED BY IDOCK:   -2.58 KCAL/MOL
REMARK 924 INTRA-LIGAND FREE ENERGY PREDICTED BY IDOCK:   -0.22 KCAL/MOL
REMARK 927      BINDING AFFINITY PREDICTED BY RF-SCORE:    0.00 PKD
ROOT
HETATM    1  C   UNL     1      -7.527   6.862  65.651  1.00  0.00    -0.085 C  
HETATM    2  N   UNL     1      -8.961   7.059  65.814  1.00  0.00    -0.346 NA 
HETATM    3  H   UNL     1      -9.462   6.797  64.966  1.00  0.00     0.000 HD 
ENDROOT
BRANCH   2   4
HETATM    4  C   UNL     1      -9.514   6.358  66.988  1.00  0.00    -0.139 C  
HETATM    5  C   UNL     1     -10.571   5.320  66.581  1.00  0.00    -0.334 C  
BRANCH   4   6
HETATM    6  C   UNL     1     -10.109   7.418  67.955  1.00  0.00    -0.220 C  
BRANCH   6   7
HETATM    7  C   UNL     1     -10.258   6.911  69.372  1.00  0.00    -0.194 A  
HETATM    8  C   UNL     1     -11.520   6.867  69.983  1.00  0.00    -0.328 A  
HETATM    9  C   UNL     1     -11.643   6.512  71.325  1.00  0.00    -0.381 A  
HETATM   10  C   UNL     1     -10.510   6.182  72.066  1.00  0.00    -0.249 A  
HETATM   11  C   UNL     1      -9.255   6.186  71.460  1.00  0.00    -0.152 A  
HETATM   12  C   UNL     1      -9.129   6.545  70.118  1.00  0.00    -0.155 A  
ENDBRANCH   6   7
ENDBRANCH   4   6
ENDBRANCH   2   4
TORSDOF 3
ENDMDL
MODEL      192
REMARK 921   NORMALIZED FREE ENERGY PREDICTED BY IDOCK:   -2.19 KCAL/MOL
REMARK 922        TOTAL FREE ENERGY PREDICTED BY IDOCK:   -2.80 KCAL/MOL
REMARK 923 INTER-LIGAND FREE ENERGY PREDICTED BY IDOCK:   -2.61 KCAL/MOL
REMARK 924 INTRA-LIGAND FREE ENERGY PREDICTED BY IDOCK:   -0.19 KCAL/MOL
REMARK 927      BINDING AFFINITY PREDICTED BY RF-SCORE:    0.00 PKD
ROOT
HETATM    1  C   UNL     1      -7.360   3.199  71.695  1.00  0.00    -0.040 C  
HETATM    2  N   UNL     1      -8.254   3.870  72.629  1.00  0.00    -0.092 NA 
HETATM    3  H   UNL     1      -8.006   3.647  73.592  1.00  0.00     0.000 HD 
ENDROOT
BRANCH   2   4
HETATM    4  C   UNL     1      -8.316   5.330  72.428  1.00  0.00    -0.118 C  
HETATM    5  C   UNL     1      -6.940   5.986  72.616  1.00  0.00    -0.079 C  
BRANCH   4   6
HETATM    6  C   UNL     1      -9.360   5.916  73.417  1.00  0.00    -0.134 C  
BRANCH   6   7
HETATM    7  C   UNL     1     -10.419   6.754  72.736  1.00  0.00    -0.247 A  
HETATM    8  C   UNL     1     -11.490   6.143  72.069  1.00  0.00    -0.366 A  
HETATM    9  C   UNL     1     -12.400   6.909  71.343  1.00  0.00    -0.421 A  
HETATM   10  C   UNL     1     -12.259   8.295  71.291  1.00  0.00    -0.295 A  
HETATM   11  C   UNL     1     -11.221   8.917  71.980  1.00  0.00    -0.422 A  
HETATM   12  C   UNL     1     -10.306   8.151  72.704  1.00  0.00    -0.398 A  
ENDBRANCH   6   7
ENDBRANCH   4   6
ENDBRANCH   2   4
TORSDOF 3
ENDMDL
MODEL      193
REMARK 921   NORMALIZED FREE ENERGY PREDICTED BY IDOCK:   -2.16 KCAL/MOL
REMARK 922        TOTAL FREE ENERGY PREDICTED BY IDOCK:   -2.77 KCAL/MOL
REMARK 923 INTER-LIGAND FREE ENERGY PREDICTED BY IDOCK:   -3.03 KCAL/MOL
REMARK 924 INTRA-LIGAND FREE ENERGY PREDICTED BY IDOCK:    0.26 KCAL/MOL
REMARK 927      BINDING AFFINITY PREDICTED BY RF-SCORE:    0.00 PKD
ROOT
HETATM    1  C   UNL     1     -14.400   8.115  71.637  1.00  0.00    -0.469 C  
HETATM    2  N   UNL     1     -13.135   7.640  71.094  1.00  0.00    -0.559 NA 
HETATM    3  H   UNL     1     -12.816   8.244  70.336  1.00  0.00     0.000 HD 
ENDROOT
BRANCH   2   4
HETATM    4  C   UNL     1     -12.085   7.484  72.117  1.00  0.00    -0.269 C  
HETATM    5  C   UNL     1     -10.987   8.549  71.968  1.00  0.00    -0.410 C  
BRANCH   4   6
HETATM    6  C   UNL     1     -11.498   6.051  72.000  1.00  0.00    -0.343 C  
BRANCH   6   7
HETATM    7  C   UNL     1     -10.152   6.014  71.311  1.00  0.00    -0.237 A  
HETATM    8  C   UNL     1     -10.047   5.595  69.977  1.00  0.00    -0.295 A  
HETATM    9  C   UNL     1      -8.796   5.449  69.378  1.00  0.00    -0.117 A  
HETATM   10  C   UNL     1      -7.640   5.736  70.101  1.00  0.00    -0.086 A  
HETATM   11  C   UNL     1      -7.733   6.189  71.415  1.00  0.00    -0.100 A  
HETATM   12  C   UNL     1      -8.983   6.332  72.018  1.00  0.00    -0.142 A  
ENDBRANCH   6   7
ENDBRANCH   4   6
ENDBRANCH   2   4
TORSDOF 3
ENDMDL
MODEL      194
REMARK 921   NORMALIZED FREE ENERGY PREDICTED BY IDOCK:   -2.15 KCAL/MOL
REMARK 922        TOTAL FREE ENERGY PREDICTED BY IDOCK:   -2.76 KCAL/MOL
REMARK 923 INTER-LIGAND FREE ENERGY PREDICTED BY IDOCK:   -2.53 KCAL/MOL
REMARK 924 INTRA-LIGAND FREE ENERGY PREDICTED BY IDOCK:   -0.22 KCAL/MOL
REMARK 927      BINDING AFFINITY PREDICTED BY RF-SCORE:    0.00 PKD
ROOT
HETATM    1  C   UNL     1      -9.980   6.508  67.303  1.00  0.00    -0.147 C  
HETATM    2  N   UNL     1     -11.049   7.092  68.102  1.00  0.00    -0.492 NA 
HETATM    3  H   UNL     1     -11.912   6.559  67.997  1.00  0.00     0.000 HD 
ENDROOT
BRANCH   2   4
HETATM    4  C   UNL     1     -10.696   7.244  69.525  1.00  0.00    -0.232 C  
HETATM    5  C   UNL     1     -11.598   6.387  70.427  1.00  0.00    -0.440 C  
BRANCH   4   6
HETATM    6  C   UNL     1     -10.794   8.748  69.896  1.00  0.00    -0.211 C  
BRANCH   6   7
HETATM    7  C   UNL     1      -9.526   9.518  69.599  1.00  0.00    -0.213 A  
HETATM    8  C   UNL     1      -8.318   9.162  70.215  1.00  0.00    -0.187 A  
HETATM    9  C   UNL     1      -7.176   9.942  70.033  1.00  0.00    -0.146 A  
HETATM   10  C   UNL     1      -7.226  11.073  69.221  1.00  0.00    -0.124 A  
HETATM   11  C   UNL     1      -8.412  11.415  68.574  1.00  0.00    -0.152 A  
HETATM   12  C   UNL     1      -9.557  10.639  68.757  1.00  0.00    -0.190 A  
ENDBRANCH   6   7
ENDBRANCH   4   6
ENDBRANCH   2   4
TORSDOF 3
ENDMDL
MODEL      195
REMARK 921   NORMALIZED FREE ENERGY PREDICTED BY IDOCK:   -2.15 KCAL/MOL
REMARK 922        TOTAL FREE ENERGY PREDICTED BY IDOCK:   -2.75 KCAL/MOL
REMARK 923 INTER-LIGAND FREE ENERGY PREDICTED BY IDOCK:   -2.55 KCAL/MOL
REMARK 924 INTRA-LIGAND FREE ENERGY PREDICTED BY IDOCK:   -0.20 KCAL/MOL
REMARK 927      BINDING AFFINITY PREDICTED BY RF-SCORE:    0.00 PKD
ROOT
HETATM    1  C   UNL     1      -6.335  10.567  65.469  1.00  0.00    -0.112 C  
HETATM    2  N   UNL     1      -7.303  10.169  64.456  1.00  0.00    -0.177 NA 
HETATM    3  H   UNL     1      -6.941   9.402  63.890  1.00  0.00     0.000 HD 
ENDROOT
BRANCH   2   4
HETATM    4  C   UNL     1      -8.625   9.830  65.015  1.00  0.00    -0.162 C  
HETATM    5  C   UNL     1      -9.491  11.081  65.220  1.00  0.00    -0.259 C  
BRANCH   4   6
HETATM    6  C   UNL     1      -8.409   9.068  66.351  1.00  0.00    -0.117 C  
BRANCH   6   7
HETATM    7  C   UNL     1      -9.175   7.765  66.422  1.00  0.00    -0.229 A  
HETATM    8  C   UNL     1     -10.465   7.728  66.970  1.00  0.00    -0.419 A  
HETATM    9  C   UNL     1     -11.123   6.511  67.144  1.00  0.00    -0.434 A  
HETATM   10  C   UNL     1     -10.507   5.323  66.756  1.00  0.00    -0.330 A  
HETATM   11  C   UNL     1      -9.240   5.352  66.176  1.00  0.00    -0.162 A  
HETATM   12  C   UNL     1      -8.578   6.567  66.005  1.00  0.00    -0.150 A  
ENDBRANCH   6   7
ENDBRANCH   4   6
ENDBRANCH   2   4
TORSDOF 3
ENDMDL
MODEL      196
REMARK 921   NORMALIZED FREE ENERGY PREDICTED BY IDOCK:   -2.15 KCAL/MOL
REMARK 922        TOTAL FREE ENERGY PREDICTED BY IDOCK:   -2.75 KCAL/MOL
REMARK 923 INTER-LIGAND FREE ENERGY PREDICTED BY IDOCK:   -2.54 KCAL/MOL
REMARK 924 INTRA-LIGAND FREE ENERGY PREDICTED BY IDOCK:   -0.21 KCAL/MOL
REMARK 927      BINDING AFFINITY PREDICTED BY RF-SCORE:    0.00 PKD
ROOT
HETATM    1  C   UNL     1      -5.856   6.753  73.791  1.00  0.00    -0.058 C  
HETATM    2  N   UNL     1      -7.261   6.530  74.107  1.00  0.00    -0.088 NA 
HETATM    3  H   UNL     1      -7.508   6.974  74.991  1.00  0.00     0.000 HD 
ENDROOT
BRANCH   2   4
HETATM    4  C   UNL     1      -8.173   6.959  73.031  1.00  0.00    -0.107 C  
HETATM    5  C   UNL     1      -7.480   7.912  72.046  1.00  0.00    -0.091 C  
BRANCH   4   6
HETATM    6  C   UNL     1      -9.415   7.627  73.681  1.00  0.00    -0.340 C  
BRANCH   6   7
HETATM    7  C   UNL     1     -10.681   7.442  72.873  1.00  0.00    -0.387 A  
HETATM    8  C   UNL     1     -11.420   8.554  72.444  1.00  0.00    -0.419 A  
HETATM    9  C   UNL     1     -12.645   8.382  71.802  1.00  0.00    -0.378 A  
HETATM   10  C   UNL     1     -13.136   7.099  71.566  1.00  0.00    -0.427 A  
HETATM   11  C   UNL     1     -12.393   5.987  71.955  1.00  0.00     0.065 A  
HETATM   12  C   UNL     1     -11.168   6.155  72.601  1.00  0.00    -0.312 A  
ENDBRANCH   6   7
ENDBRANCH   4   6
ENDBRANCH   2   4
TORSDOF 3
ENDMDL
MODEL      197
REMARK 921   NORMALIZED FREE ENERGY PREDICTED BY IDOCK:   -2.13 KCAL/MOL
REMARK 922        TOTAL FREE ENERGY PREDICTED BY IDOCK:   -2.73 KCAL/MOL
REMARK 923 INTER-LIGAND FREE ENERGY PREDICTED BY IDOCK:   -2.54 KCAL/MOL
REMARK 924 INTRA-LIGAND FREE ENERGY PREDICTED BY IDOCK:   -0.19 KCAL/MOL
REMARK 927      BINDING AFFINITY PREDICTED BY RF-SCORE:    0.00 PKD
ROOT
HETATM    1  C   UNL     1      -7.216   4.364  63.908  1.00  0.00    -0.054 C  
HETATM    2  N   UNL     1      -8.513   4.923  64.264  1.00  0.00    -0.134 NA 
HETATM    3  H   UNL     1      -8.949   5.370  63.458  1.00  0.00     0.000 HD 
ENDROOT
BRANCH   2   4
HETATM    4  C   UNL     1      -9.425   3.936  64.872  1.00  0.00    -0.170 C  
HETATM    5  C   UNL     1      -9.933   2.921  63.837  1.00  0.00    -0.161 C  
BRANCH   4   6
HETATM    6  C   UNL     1     -10.603   4.702  65.535  1.00  0.00    -0.208 C  
BRANCH   6   7
HETATM    7  C   UNL     1     -10.369   4.998  67.000  1.00  0.00    -0.242 A  
HETATM    8  C   UNL     1      -9.626   4.114  67.795  1.00  0.00    -0.208 A  
HETATM    9  C   UNL     1      -9.510   4.326  69.168  1.00  0.00    -0.245 A  
HETATM   10  C   UNL     1     -10.121   5.431  69.757  1.00  0.00    -0.319 A  
HETATM   11  C   UNL     1     -10.831   6.337  68.971  1.00  0.00    -0.400 A  
HETATM   12  C   UNL     1     -10.952   6.125  67.598  1.00  0.00    -0.400 A  
ENDBRANCH   6   7
ENDBRANCH   4   6
ENDBRANCH   2   4
TORSDOF 3
ENDMDL
MODEL      198
REMARK 921   NORMALIZED FREE ENERGY PREDICTED BY IDOCK:   -2.12 KCAL/MOL
REMARK 922        TOTAL FREE ENERGY PREDICTED BY IDOCK:   -2.71 KCAL/MOL
REMARK 923 INTER-LIGAND FREE ENERGY PREDICTED BY IDOCK:   -2.47 KCAL/MOL
REMARK 924 INTRA-LIGAND FREE ENERGY PREDICTED BY IDOCK:   -0.24 KCAL/MOL
REMARK 927      BINDING AFFINITY PREDICTED BY RF-SCORE:    0.00 PKD
ROOT
HETATM    1  C   UNL     1      -6.005   7.389  72.039  1.00  0.00    -0.036 C  
HETATM    2  N   UNL     1      -6.396   7.195  73.429  1.00  0.00    -0.064 NA 
HETATM    3  H   UNL     1      -6.254   8.050  73.968  1.00  0.00     0.000 HD 
ENDROOT
BRANCH   2   4
HETATM    4  C   UNL     1      -7.777   6.702  73.581  1.00  0.00    -0.089 C  
HETATM    5  C   UNL     1      -7.844   5.486  74.517  1.00  0.00    -0.097 C  
BRANCH   4   6
HETATM    6  C   UNL     1      -8.332   6.360  72.172  1.00  0.00    -0.108 C  
BRANCH   6   7
HETATM    7  C   UNL     1      -9.789   6.730  72.000  1.00  0.00    -0.166 A  
HETATM    8  C   UNL     1     -10.548   6.169  70.963  1.00  0.00    -0.301 A  
HETATM    9  C   UNL     1     -11.854   6.597  70.733  1.00  0.00    -0.441 A  
HETATM   10  C   UNL     1     -12.421   7.577  71.546  1.00  0.00    -0.375 A  
HETATM   11  C   UNL     1     -11.689   8.115  72.602  1.00  0.00    -0.419 A  
HETATM   12  C   UNL     1     -10.379   7.691  72.832  1.00  0.00    -0.380 A  
ENDBRANCH   6   7
ENDBRANCH   4   6
ENDBRANCH   2   4
TORSDOF 3
ENDMDL
MODEL      199
REMARK 921   NORMALIZED FREE ENERGY PREDICTED BY IDOCK:   -2.12 KCAL/MOL
REMARK 922        TOTAL FREE ENERGY PREDICTED BY IDOCK:   -2.71 KCAL/MOL
REMARK 923 INTER-LIGAND FREE ENERGY PREDICTED BY IDOCK:   -2.44 KCAL/MOL
REMARK 924 INTRA-LIGAND FREE ENERGY PREDICTED BY IDOCK:   -0.27 KCAL/MOL
REMARK 927      BINDING AFFINITY PREDICTED BY RF-SCORE:    0.00 PKD
ROOT
HETATM    1  C   UNL     1      -9.608   6.828  67.681  1.00  0.00    -0.125 C  
HETATM    2  N   UNL     1      -9.974   7.189  66.318  1.00  0.00    -0.441 NA 
HETATM    3  H   UNL     1     -10.828   6.711  66.033  1.00  0.00     0.000 HD 
ENDROOT
BRANCH   2   4
HETATM    4  C   UNL     1     -10.096   8.645  66.114  1.00  0.00    -0.035 C  
HETATM    5  C   UNL     1      -9.305   9.112  64.883  1.00  0.00    -0.050 C  
BRANCH   4   6
HETATM    6  C   UNL     1      -9.607   9.361  67.402  1.00  0.00    -0.184 C  
BRANCH   6   7
HETATM    7  C   UNL     1      -9.901  10.845  67.405  1.00  0.00    -0.199 A  
HETATM    8  C   UNL     1     -11.222  11.308  67.320  1.00  0.00    -0.364 A  
HETATM    9  C   UNL     1     -11.486  12.672  67.204  1.00  0.00    -0.406 A  
HETATM   10  C   UNL     1     -10.435  13.587  67.190  1.00  0.00    -0.256 A  
HETATM   11  C   UNL     1      -9.121  13.141  67.312  1.00  0.00    -0.217 A  
HETATM   12  C   UNL     1      -8.854  11.777  67.423  1.00  0.00    -0.164 A  
ENDBRANCH   6   7
ENDBRANCH   4   6
ENDBRANCH   2   4
TORSDOF 3
ENDMDL
MODEL      200
REMARK 921   NORMALIZED FREE ENERGY PREDICTED BY IDOCK:   -2.08 KCAL/MOL
REMARK 922        TOTAL FREE ENERGY PREDICTED BY IDOCK:   -2.67 KCAL/MOL
REMARK 923 INTER-LIGAND FREE ENERGY PREDICTED BY IDOCK:   -2.50 KCAL/MOL
REMARK 924 INTRA-LIGAND FREE ENERGY PREDICTED BY IDOCK:   -0.17 KCAL/MOL
REMARK 927      BINDING AFFINITY PREDICTED BY RF-SCORE:    0.00 PKD
ROOT
HETATM    1  C   UNL     1      -8.228   7.531  66.871  1.00  0.00    -0.124 C  
HETATM    2  N   UNL     1      -9.144   6.493  67.326  1.00  0.00    -0.116 NA 
HETATM    3  H   UNL     1      -9.006   5.631  66.798  1.00  0.00     0.000 HD 
ENDROOT
BRANCH   2   4
HETATM    4  C   UNL     1      -9.061   6.239  68.776  1.00  0.00    -0.127 C  
HETATM    5  C   UNL     1      -7.652   5.791  69.193  1.00  0.00    -0.089 C  
BRANCH   4   6
HETATM    6  C   UNL     1     -10.125   5.169  69.146  1.00  0.00    -0.274 C  
BRANCH   6   7
HETATM    7  C   UNL     1     -10.276   4.973  70.638  1.00  0.00    -0.306 A  
HETATM    8  C   UNL     1      -9.774   3.821  71.259  1.00  0.00    -0.245 A  
HETATM    9  C   UNL     1     -10.016   3.584  72.611  1.00  0.00    -0.225 A  
HETATM   10  C   UNL     1     -10.746   4.505  73.361  1.00  0.00    -0.320 A  
HETATM   11  C   UNL     1     -11.218   5.672  72.764  1.00  0.00    -0.347 A  
HETATM   12  C   UNL     1     -10.981   5.909  71.409  1.00  0.00    -0.327 A  
ENDBRANCH   6   7
ENDBRANCH   4   6
ENDBRANCH   2   4
TORSDOF 3
ENDMDL
MODEL      201
REMARK 921   NORMALIZED FREE ENERGY PREDICTED BY IDOCK:   -2.06 KCAL/MOL
REMARK 922        TOTAL FREE ENERGY PREDICTED BY IDOCK:   -2.65 KCAL/MOL
REMARK 923 INTER-LIGAND FREE ENERGY PREDICTED BY IDOCK:   -2.48 KCAL/MOL
REMARK 924 INTRA-LIGAND FREE ENERGY PREDICTED BY IDOCK:   -0.17 KCAL/MOL
REMARK 927      BINDING AFFINITY PREDICTED BY RF-SCORE:    0.00 PKD
ROOT
HETATM    1  C   UNL     1     -11.064   5.999  72.701  1.00  0.00    -0.275 C  
HETATM    2  N   UNL     1     -10.821   6.216  71.281  1.00  0.00    -0.255 NA 
HETATM    3  H   UNL     1     -11.689   6.153  70.750  1.00  0.00     0.000 HD 
ENDROOT
BRANCH   2   4
HETATM    4  C   UNL     1     -10.123   7.483  70.997  1.00  0.00    -0.186 C  
HETATM    5  C   UNL     1      -9.962   8.337  72.263  1.00  0.00    -0.366 C  
BRANCH   4   6
HETATM    6  C   UNL     1     -10.920   8.244  69.902  1.00  0.00    -0.166 C  
BRANCH   6   7
HETATM    7  C   UNL     1     -10.069   8.640  68.715  1.00  0.00    -0.210 A  
HETATM    8  C   UNL     1     -10.641   8.768  67.441  1.00  0.00    -0.304 A  
HETATM    9  C   UNL     1      -9.838   9.017  66.329  1.00  0.00    -0.361 A  
HETATM   10  C   UNL     1      -8.460   9.158  66.481  1.00  0.00    -0.127 A  
HETATM   11  C   UNL     1      -7.886   9.071  67.747  1.00  0.00    -0.101 A  
HETATM   12  C   UNL     1      -8.686   8.817  68.861  1.00  0.00    -0.134 A  
ENDBRANCH   6   7
ENDBRANCH   4   6
ENDBRANCH   2   4
TORSDOF 3
ENDMDL
MODEL      202
REMARK 921   NORMALIZED FREE ENERGY PREDICTED BY IDOCK:   -2.01 KCAL/MOL
REMARK 922        TOTAL FREE ENERGY PREDICTED BY IDOCK:   -2.59 KCAL/MOL
REMARK 923 INTER-LIGAND FREE ENERGY PREDICTED BY IDOCK:   -2.49 KCAL/MOL
REMARK 924 INTRA-LIGAND FREE ENERGY PREDICTED BY IDOCK:   -0.10 KCAL/MOL
REMARK 927      BINDING AFFINITY PREDICTED BY RF-SCORE:    0.00 PKD
ROOT
HETATM    1  C   UNL     1     -10.373   6.487  68.162  1.00  0.00    -0.187 C  
HETATM    2  N   UNL     1     -10.802   7.672  68.894  1.00  0.00    -0.414 NA 
HETATM    3  H   UNL     1     -11.693   8.016  68.537  1.00  0.00     0.000 HD 
ENDROOT
BRANCH   2   4
HETATM    4  C   UNL     1     -10.867   7.462  70.352  1.00  0.00    -0.243 C  
HETATM    5  C   UNL     1     -11.326   8.731  71.086  1.00  0.00    -0.345 C  
BRANCH   4   6
HETATM    6  C   UNL     1      -9.467   7.002  70.843  1.00  0.00    -0.160 C  
BRANCH   6   7
HETATM    7  C   UNL     1      -9.495   5.663  71.547  1.00  0.00    -0.177 A  
HETATM    8  C   UNL     1      -9.402   4.472  70.814  1.00  0.00    -0.218 A  
HETATM    9  C   UNL     1      -9.545   3.239  71.449  1.00  0.00    -0.230 A  
HETATM   10  C   UNL     1      -9.765   3.184  72.824  1.00  0.00    -0.188 A  
HETATM   11  C   UNL     1      -9.823   4.360  73.568  1.00  0.00    -0.161 A  
HETATM   12  C   UNL     1      -9.684   5.596  72.935  1.00  0.00    -0.169 A  
ENDBRANCH   6   7
ENDBRANCH   4   6
ENDBRANCH   2   4
TORSDOF 3
ENDMDL
MODEL      203
REMARK 921   NORMALIZED FREE ENERGY PREDICTED BY IDOCK:   -2.00 KCAL/MOL
REMARK 922        TOTAL FREE ENERGY PREDICTED BY IDOCK:   -2.58 KCAL/MOL
REMARK 923 INTER-LIGAND FREE ENERGY PREDICTED BY IDOCK:   -2.37 KCAL/MOL
REMARK 924 INTRA-LIGAND FREE ENERGY PREDICTED BY IDOCK:   -0.21 KCAL/MOL
REMARK 927      BINDING AFFINITY PREDICTED BY RF-SCORE:    0.00 PKD
ROOT
HETATM    1  C   UNL     1     -11.408   5.452  72.740  1.00  0.00    -0.296 C  
HETATM    2  N   UNL     1     -11.996   6.357  71.762  1.00  0.00    -0.333 NA 
HETATM    3  H   UNL     1     -13.001   6.449  71.911  1.00  0.00     0.000 HD 
ENDROOT
BRANCH   2   4
HETATM    4  C   UNL     1     -11.348   7.681  71.731  1.00  0.00    -0.255 C  
HETATM    5  C   UNL     1     -12.284   8.783  72.250  1.00  0.00    -0.429 C  
BRANCH   4   6
HETATM    6  C   UNL     1     -10.893   7.969  70.274  1.00  0.00    -0.241 C  
BRANCH   6   7
HETATM    7  C   UNL     1      -9.427   8.327  70.169  1.00  0.00    -0.167 A  
HETATM    8  C   UNL     1      -8.440   7.381  70.479  1.00  0.00    -0.137 A  
HETATM    9  C   UNL     1      -7.094   7.745  70.495  1.00  0.00    -0.047 A  
HETATM   10  C   UNL     1      -6.720   9.051  70.186  1.00  0.00    -0.047 A  
HETATM   11  C   UNL     1      -7.690   9.990  69.840  1.00  0.00    -0.183 A  
HETATM   12  C   UNL     1      -9.038   9.630  69.827  1.00  0.00    -0.232 A  
ENDBRANCH   6   7
ENDBRANCH   4   6
ENDBRANCH   2   4
TORSDOF 3
ENDMDL
MODEL      204
REMARK 921   NORMALIZED FREE ENERGY PREDICTED BY IDOCK:   -1.99 KCAL/MOL
REMARK 922        TOTAL FREE ENERGY PREDICTED BY IDOCK:   -2.57 KCAL/MOL
REMARK 923 INTER-LIGAND FREE ENERGY PREDICTED BY IDOCK:   -2.39 KCAL/MOL
REMARK 924 INTRA-LIGAND FREE ENERGY PREDICTED BY IDOCK:   -0.18 KCAL/MOL
REMARK 927      BINDING AFFINITY PREDICTED BY RF-SCORE:    0.00 PKD
ROOT
HETATM    1  C   UNL     1      -7.616   4.568  73.195  1.00  0.00    -0.086 C  
HETATM    2  N   UNL     1      -8.096   4.426  71.827  1.00  0.00    -0.095 NA 
HETATM    3  H   UNL     1      -8.319   3.453  71.621  1.00  0.00     0.000 HD 
ENDROOT
BRANCH   2   4
HETATM    4  C   UNL     1      -9.241   5.303  71.518  1.00  0.00    -0.146 C  
HETATM    5  C   UNL     1     -10.239   5.363  72.684  1.00  0.00    -0.225 C  
BRANCH   4   6
HETATM    6  C   UNL     1      -9.920   4.783  70.222  1.00  0.00    -0.320 C  
BRANCH   6   7
HETATM    7  C   UNL     1      -9.850   5.769  69.077  1.00  0.00    -0.204 A  
HETATM    8  C   UNL     1     -11.002   6.092  68.346  1.00  0.00    -0.391 A  
HETATM    9  C   UNL     1     -10.917   6.909  67.220  1.00  0.00    -0.406 A  
HETATM   10  C   UNL     1      -9.685   7.425  66.823  1.00  0.00    -0.271 A  
HETATM   11  C   UNL     1      -8.540   7.141  67.564  1.00  0.00    -0.122 A  
HETATM   12  C   UNL     1      -8.621   6.320  68.689  1.00  0.00    -0.121 A  
ENDBRANCH   6   7
ENDBRANCH   4   6
ENDBRANCH   2   4
TORSDOF 3
ENDMDL
MODEL      205
REMARK 921   NORMALIZED FREE ENERGY PREDICTED BY IDOCK:   -1.99 KCAL/MOL
REMARK 922        TOTAL FREE ENERGY PREDICTED BY IDOCK:   -2.56 KCAL/MOL
REMARK 923 INTER-LIGAND FREE ENERGY PREDICTED BY IDOCK:   -2.31 KCAL/MOL
REMARK 924 INTRA-LIGAND FREE ENERGY PREDICTED BY IDOCK:   -0.25 KCAL/MOL
REMARK 927      BINDING AFFINITY PREDICTED BY RF-SCORE:    0.00 PKD
ROOT
HETATM    1  C   UNL     1      -8.576   4.113  64.225  1.00  0.00    -0.112 C  
HETATM    2  N   UNL     1      -7.475   3.664  65.067  1.00  0.00    -0.072 NA 
HETATM    3  H   UNL     1      -6.579   3.951  64.673  1.00  0.00     0.000 HD 
ENDROOT
BRANCH   2   4
HETATM    4  C   UNL     1      -7.597   4.104  66.468  1.00  0.00    -0.089 C  
HETATM    5  C   UNL     1      -6.380   3.680  67.304  1.00  0.00    -0.037 C  
BRANCH   4   6
HETATM    6  C   UNL     1      -8.912   3.519  67.052  1.00  0.00    -0.165 C  
BRANCH   6   7
HETATM    7  C   UNL     1      -9.676   4.507  67.905  1.00  0.00    -0.195 A  
HETATM    8  C   UNL     1      -9.684   4.383  69.302  1.00  0.00    -0.252 A  
HETATM    9  C   UNL     1     -10.481   5.221  70.081  1.00  0.00    -0.338 A  
HETATM   10  C   UNL     1     -11.264   6.201  69.474  1.00  0.00    -0.482 A  
HETATM   11  C   UNL     1     -11.235   6.358  68.090  1.00  0.00    -0.270 A  
HETATM   12  C   UNL     1     -10.442   5.518  67.308  1.00  0.00    -0.300 A  
ENDBRANCH   6   7
ENDBRANCH   4   6
ENDBRANCH   2   4
TORSDOF 3
ENDMDL
MODEL      206
REMARK 921   NORMALIZED FREE ENERGY PREDICTED BY IDOCK:   -1.97 KCAL/MOL
REMARK 922        TOTAL FREE ENERGY PREDICTED BY IDOCK:   -2.55 KCAL/MOL
REMARK 923 INTER-LIGAND FREE ENERGY PREDICTED BY IDOCK:   -2.63 KCAL/MOL
REMARK 924 INTRA-LIGAND FREE ENERGY PREDICTED BY IDOCK:    0.08 KCAL/MOL
REMARK 927      BINDING AFFINITY PREDICTED BY RF-SCORE:    0.00 PKD
ROOT
HETATM    1  C   UNL     1      -8.955   5.419  67.249  1.00  0.00    -0.111 C  
HETATM    2  N   UNL     1      -8.581   5.130  68.627  1.00  0.00    -0.087 NA 
HETATM    3  H   UNL     1      -7.573   5.220  68.756  1.00  0.00     0.000 HD 
ENDROOT
BRANCH   2   4
HETATM    4  C   UNL     1      -9.310   5.951  69.612  1.00  0.00    -0.140 C  
HETATM    5  C   UNL     1     -10.811   6.018  69.293  1.00  0.00    -0.428 C  
BRANCH   4   6
HETATM    6  C   UNL     1      -8.674   7.368  69.634  1.00  0.00    -0.137 C  
BRANCH   6   7
HETATM    7  C   UNL     1      -9.680   8.473  69.399  1.00  0.00    -0.177 A  
HETATM    8  C   UNL     1      -9.999   8.879  68.095  1.00  0.00    -0.208 A  
HETATM    9  C   UNL     1     -10.834   9.975  67.881  1.00  0.00    -0.323 A  
HETATM   10  C   UNL     1     -11.373  10.663  68.966  1.00  0.00    -0.340 A  
HETATM   11  C   UNL     1     -11.093  10.246  70.265  1.00  0.00    -0.388 A  
HETATM   12  C   UNL     1     -10.254   9.153  70.482  1.00  0.00    -0.288 A  
ENDBRANCH   6   7
ENDBRANCH   4   6
ENDBRANCH   2   4
TORSDOF 3
ENDMDL
MODEL      207
REMARK 921   NORMALIZED FREE ENERGY PREDICTED BY IDOCK:   -1.97 KCAL/MOL
REMARK 922        TOTAL FREE ENERGY PREDICTED BY IDOCK:   -2.54 KCAL/MOL
REMARK 923 INTER-LIGAND FREE ENERGY PREDICTED BY IDOCK:   -2.51 KCAL/MOL
REMARK 924 INTRA-LIGAND FREE ENERGY PREDICTED BY IDOCK:   -0.03 KCAL/MOL
REMARK 927      BINDING AFFINITY PREDICTED BY RF-SCORE:    0.00 PKD
ROOT
HETATM    1  C   UNL     1      -8.766   4.412  70.179  1.00  0.00    -0.074 C  
HETATM    2  N   UNL     1      -9.917   4.621  69.311  1.00  0.00    -0.191 NA 
HETATM    3  H   UNL     1     -10.665   3.965  69.537  1.00  0.00     0.000 HD 
ENDROOT
BRANCH   2   4
HETATM    4  C   UNL     1     -10.415   6.009  69.328  1.00  0.00    -0.264 C  
HETATM    5  C   UNL     1     -11.474   6.217  70.422  1.00  0.00    -0.414 C  
BRANCH   4   6
HETATM    6  C   UNL     1     -10.984   6.341  67.922  1.00  0.00    -0.421 C  
BRANCH   6   7
HETATM    7  C   UNL     1     -10.052   5.951  66.796  1.00  0.00    -0.235 A  
HETATM    8  C   UNL     1      -9.003   6.800  66.415  1.00  0.00    -0.165 A  
HETATM    9  C   UNL     1      -8.218   6.497  65.304  1.00  0.00    -0.135 A  
HETATM   10  C   UNL     1      -8.461   5.335  64.573  1.00  0.00    -0.133 A  
HETATM   11  C   UNL     1      -9.477   4.466  64.965  1.00  0.00    -0.169 A  
HETATM   12  C   UNL     1     -10.267   4.769  66.074  1.00  0.00    -0.308 A  
ENDBRANCH   6   7
ENDBRANCH   4   6
ENDBRANCH   2   4
TORSDOF 3
ENDMDL
MODEL      208
REMARK 921   NORMALIZED FREE ENERGY PREDICTED BY IDOCK:   -1.95 KCAL/MOL
REMARK 922        TOTAL FREE ENERGY PREDICTED BY IDOCK:   -2.52 KCAL/MOL
REMARK 923 INTER-LIGAND FREE ENERGY PREDICTED BY IDOCK:   -2.58 KCAL/MOL
REMARK 924 INTRA-LIGAND FREE ENERGY PREDICTED BY IDOCK:    0.06 KCAL/MOL
REMARK 927      BINDING AFFINITY PREDICTED BY RF-SCORE:    0.00 PKD
ROOT
HETATM    1  C   UNL     1      -7.677   7.867  66.992  1.00  0.00    -0.100 C  
HETATM    2  N   UNL     1      -8.197   7.580  68.322  1.00  0.00    -0.124 NA 
HETATM    3  H   UNL     1      -8.585   6.637  68.364  1.00  0.00     0.000 HD 
ENDROOT
BRANCH   2   4
HETATM    4  C   UNL     1      -7.204   7.786  69.392  1.00  0.00    -0.080 C  
HETATM    5  C   UNL     1      -7.161   6.595  70.362  1.00  0.00    -0.068 C  
BRANCH   4   6
HETATM    6  C   UNL     1      -7.552   9.105  70.135  1.00  0.00    -0.093 C  
BRANCH   6   7
HETATM    7  C   UNL     1      -9.016   9.212  70.501  1.00  0.00    -0.274 A  
HETATM    8  C   UNL     1      -9.873  10.046  69.769  1.00  0.00    -0.270 A  
HETATM    9  C   UNL     1     -11.192  10.236  70.176  1.00  0.00    -0.387 A  
HETATM   10  C   UNL     1     -11.673   9.581  71.308  1.00  0.00    -0.444 A  
HETATM   11  C   UNL     1     -10.842   8.720  72.022  1.00  0.00    -0.428 A  
HETATM   12  C   UNL     1      -9.520   8.532  71.619  1.00  0.00    -0.316 A  
ENDBRANCH   6   7
ENDBRANCH   4   6
ENDBRANCH   2   4
TORSDOF 3
ENDMDL
MODEL      209
REMARK 921   NORMALIZED FREE ENERGY PREDICTED BY IDOCK:   -1.93 KCAL/MOL
REMARK 922        TOTAL FREE ENERGY PREDICTED BY IDOCK:   -2.50 KCAL/MOL
REMARK 923 INTER-LIGAND FREE ENERGY PREDICTED BY IDOCK:   -2.31 KCAL/MOL
REMARK 924 INTRA-LIGAND FREE ENERGY PREDICTED BY IDOCK:   -0.19 KCAL/MOL
REMARK 927      BINDING AFFINITY PREDICTED BY RF-SCORE:    0.00 PKD
ROOT
HETATM    1  C   UNL     1     -11.467  11.901  68.434  1.00  0.00    -0.299 C  
HETATM    2  N   UNL     1     -10.717  10.687  68.140  1.00  0.00    -0.207 NA 
HETATM    3  H   UNL     1     -11.337   9.951  67.805  1.00  0.00     0.000 HD 
ENDROOT
BRANCH   2   4
HETATM    4  C   UNL     1      -9.604  10.905  67.198  1.00  0.00    -0.165 C  
HETATM    5  C   UNL     1      -9.057  12.338  67.289  1.00  0.00    -0.184 C  
BRANCH   4   6
HETATM    6  C   UNL     1     -10.108  10.585  65.764  1.00  0.00    -0.329 C  
BRANCH   6   7
HETATM    7  C   UNL     1      -9.315   9.490  65.086  1.00  0.00    -0.316 A  
HETATM    8  C   UNL     1      -9.073   8.276  65.743  1.00  0.00    -0.169 A  
HETATM    9  C   UNL     1      -8.245   7.314  65.166  1.00  0.00    -0.112 A  
HETATM   10  C   UNL     1      -7.665   7.549  63.921  1.00  0.00    -0.125 A  
HETATM   11  C   UNL     1      -7.928   8.736  63.242  1.00  0.00    -0.160 A  
HETATM   12  C   UNL     1      -8.753   9.702  63.818  1.00  0.00    -0.241 A  
ENDBRANCH   6   7
ENDBRANCH   4   6
ENDBRANCH   2   4
TORSDOF 3
ENDMDL
MODEL      210
REMARK 921   NORMALIZED FREE ENERGY PREDICTED BY IDOCK:   -1.93 KCAL/MOL
REMARK 922        TOTAL FREE ENERGY PREDICTED BY IDOCK:   -2.50 KCAL/MOL
REMARK 923 INTER-LIGAND FREE ENERGY PREDICTED BY IDOCK:   -2.34 KCAL/MOL
REMARK 924 INTRA-LIGAND FREE ENERGY PREDICTED BY IDOCK:   -0.16 KCAL/MOL
REMARK 927      BINDING AFFINITY PREDICTED BY RF-SCORE:    0.00 PKD
ROOT
HETATM    1  C   UNL     1      -8.014   6.379  66.802  1.00  0.00    -0.109 C  
HETATM    2  N   UNL     1      -9.403   6.798  66.930  1.00  0.00    -0.145 NA 
HETATM    3  H   UNL     1      -9.988   6.022  67.242  1.00  0.00     0.000 HD 
ENDROOT
BRANCH   2   4
HETATM    4  C   UNL     1      -9.579   7.972  67.805  1.00  0.00    -0.151 C  
HETATM    5  C   UNL     1      -9.822   7.559  69.265  1.00  0.00    -0.170 C  
BRANCH   4   6
HETATM    6  C   UNL     1     -10.759   8.818  67.255  1.00  0.00    -0.217 C  
BRANCH   6   7
HETATM    7  C   UNL     1     -10.443  10.296  67.174  1.00  0.00    -0.311 A  
HETATM    8  C   UNL     1     -10.212  10.907  65.933  1.00  0.00    -0.314 A  
HETATM    9  C   UNL     1      -9.807  12.239  65.867  1.00  0.00    -0.266 A  
HETATM   10  C   UNL     1      -9.644  12.978  67.037  1.00  0.00    -0.236 A  
HETATM   11  C   UNL     1      -9.907  12.392  68.273  1.00  0.00    -0.224 A  
HETATM   12  C   UNL     1     -10.309  11.058  68.343  1.00  0.00    -0.200 A  
ENDBRANCH   6   7
ENDBRANCH   4   6
ENDBRANCH   2   4
TORSDOF 3
ENDMDL
MODEL      211
REMARK 921   NORMALIZED FREE ENERGY PREDICTED BY IDOCK:   -1.91 KCAL/MOL
REMARK 922        TOTAL FREE ENERGY PREDICTED BY IDOCK:   -2.47 KCAL/MOL
REMARK 923 INTER-LIGAND FREE ENERGY PREDICTED BY IDOCK:   -2.25 KCAL/MOL
REMARK 924 INTRA-LIGAND FREE ENERGY PREDICTED BY IDOCK:   -0.23 KCAL/MOL
REMARK 927      BINDING AFFINITY PREDICTED BY RF-SCORE:    0.00 PKD
ROOT
HETATM    1  C   UNL     1      -6.266   7.146  73.944  1.00  0.00    -0.065 C  
HETATM    2  N   UNL     1      -7.518   6.402  73.967  1.00  0.00    -0.085 NA 
HETATM    3  H   UNL     1      -7.936   6.424  74.897  1.00  0.00     0.000 HD 
ENDROOT
BRANCH   2   4
HETATM    4  C   UNL     1      -8.482   6.855  72.947  1.00  0.00    -0.115 C  
HETATM    5  C   UNL     1      -9.641   7.644  73.575  1.00  0.00    -0.348 C  
BRANCH   4   6
HETATM    6  C   UNL     1      -9.001   5.609  72.178  1.00  0.00    -0.140 C  
BRANCH   6   7
HETATM    7  C   UNL     1      -9.532   5.940  70.801  1.00  0.00    -0.192 A  
HETATM    8  C   UNL     1      -8.671   6.415  69.802  1.00  0.00    -0.138 A  
HETATM    9  C   UNL     1      -9.178   6.830  68.571  1.00  0.00    -0.128 A  
HETATM   10  C   UNL     1     -10.547   6.759  68.321  1.00  0.00    -0.276 A  
HETATM   11  C   UNL     1     -11.408   6.254  69.293  1.00  0.00    -0.411 A  
HETATM   12  C   UNL     1     -10.904   5.842  70.527  1.00  0.00    -0.348 A  
ENDBRANCH   6   7
ENDBRANCH   4   6
ENDBRANCH   2   4
TORSDOF 3
ENDMDL
MODEL      212
REMARK 921   NORMALIZED FREE ENERGY PREDICTED BY IDOCK:   -1.91 KCAL/MOL
REMARK 922        TOTAL FREE ENERGY PREDICTED BY IDOCK:   -2.47 KCAL/MOL
REMARK 923 INTER-LIGAND FREE ENERGY PREDICTED BY IDOCK:   -2.23 KCAL/MOL
REMARK 924 INTRA-LIGAND FREE ENERGY PREDICTED BY IDOCK:   -0.24 KCAL/MOL
REMARK 927      BINDING AFFINITY PREDICTED BY RF-SCORE:    0.00 PKD
ROOT
HETATM    1  C   UNL     1      -9.601   2.813  64.825  1.00  0.00    -0.086 C  
HETATM    2  N   UNL     1      -8.552   3.113  65.790  1.00  0.00    -0.112 NA 
HETATM    3  H   UNL     1      -7.630   2.981  65.376  1.00  0.00     0.000 HD 
ENDROOT
BRANCH   2   4
HETATM    4  C   UNL     1      -8.673   4.458  66.383  1.00  0.00    -0.112 C  
HETATM    5  C   UNL     1      -7.498   4.771  67.321  1.00  0.00    -0.082 C  
BRANCH   4   6
HETATM    6  C   UNL     1     -10.030   4.540  67.133  1.00  0.00    -0.201 C  
BRANCH   6   7
HETATM    7  C   UNL     1     -10.302   5.908  67.721  1.00  0.00    -0.262 A  
HETATM    8  C   UNL     1     -10.279   7.049  66.907  1.00  0.00    -0.318 A  
HETATM    9  C   UNL     1     -10.413   8.319  67.467  1.00  0.00    -0.325 A  
HETATM   10  C   UNL     1     -10.588   8.459  68.842  1.00  0.00    -0.162 A  
HETATM   11  C   UNL     1     -10.650   7.331  69.656  1.00  0.00    -0.246 A  
HETATM   12  C   UNL     1     -10.512   6.059  69.099  1.00  0.00    -0.321 A  
ENDBRANCH   6   7
ENDBRANCH   4   6
ENDBRANCH   2   4
TORSDOF 3
ENDMDL
MODEL      213
REMARK 921   NORMALIZED FREE ENERGY PREDICTED BY IDOCK:   -1.90 KCAL/MOL
REMARK 922        TOTAL FREE ENERGY PREDICTED BY IDOCK:   -2.46 KCAL/MOL
REMARK 923 INTER-LIGAND FREE ENERGY PREDICTED BY IDOCK:   -2.38 KCAL/MOL
REMARK 924 INTRA-LIGAND FREE ENERGY PREDICTED BY IDOCK:   -0.09 KCAL/MOL
REMARK 927      BINDING AFFINITY PREDICTED BY RF-SCORE:    0.00 PKD
ROOT
HETATM    1  C   UNL     1      -6.804   9.050  63.726  1.00  0.00    -0.088 C  
HETATM    2  N   UNL     1      -7.368  10.375  63.946  1.00  0.00    -0.318 NA 
HETATM    3  H   UNL     1      -6.927  11.063  63.337  1.00  0.00     0.000 HD 
ENDROOT
BRANCH   2   4
HETATM    4  C   UNL     1      -8.835  10.413  63.805  1.00  0.00    -0.212 C  
HETATM    5  C   UNL     1      -9.266  11.278  62.611  1.00  0.00    -0.330 C  
BRANCH   4   6
HETATM    6  C   UNL     1      -9.441  10.943  65.132  1.00  0.00    -0.268 C  
BRANCH   6   7
HETATM    7  C   UNL     1      -9.262   9.987  66.291  1.00  0.00    -0.199 A  
HETATM    8  C   UNL     1      -8.168  10.116  67.158  1.00  0.00    -0.121 A  
HETATM    9  C   UNL     1      -7.939   9.167  68.153  1.00  0.00    -0.100 A  
HETATM   10  C   UNL     1      -8.810   8.089  68.302  1.00  0.00    -0.133 A  
HETATM   11  C   UNL     1      -9.921   7.971  67.471  1.00  0.00    -0.253 A  
HETATM   12  C   UNL     1     -10.150   8.917  66.471  1.00  0.00    -0.356 A  
ENDBRANCH   6   7
ENDBRANCH   4   6
ENDBRANCH   2   4
TORSDOF 3
ENDMDL
MODEL      214
REMARK 921   NORMALIZED FREE ENERGY PREDICTED BY IDOCK:   -1.89 KCAL/MOL
REMARK 922        TOTAL FREE ENERGY PREDICTED BY IDOCK:   -2.45 KCAL/MOL
REMARK 923 INTER-LIGAND FREE ENERGY PREDICTED BY IDOCK:   -2.24 KCAL/MOL
REMARK 924 INTRA-LIGAND FREE ENERGY PREDICTED BY IDOCK:   -0.21 KCAL/MOL
REMARK 927      BINDING AFFINITY PREDICTED BY RF-SCORE:    0.00 PKD
ROOT
HETATM    1  C   UNL     1     -11.241  11.755  69.158  1.00  0.00    -0.264 C  
HETATM    2  N   UNL     1     -10.219  11.127  68.331  1.00  0.00    -0.181 NA 
HETATM    3  H   UNL     1     -10.586  10.291  67.876  1.00  0.00     0.000 HD 
ENDROOT
BRANCH   2   4
HETATM    4  C   UNL     1      -9.626  12.045  67.342  1.00  0.00    -0.176 C  
HETATM    5  C   UNL     1      -9.125  11.293  66.100  1.00  0.00    -0.216 C  
BRANCH   4   6
HETATM    6  C   UNL     1      -8.473  12.825  68.030  1.00  0.00    -0.177 C  
BRANCH   6   7
HETATM    7  C   UNL     1      -8.635  14.327  67.940  1.00  0.00    -0.171 A  
HETATM    8  C   UNL     1      -9.888  14.920  68.146  1.00  0.00    -0.218 A  
HETATM    9  C   UNL     1     -10.063  16.289  67.949  1.00  0.00    -0.247 A  
HETATM   10  C   UNL     1      -8.983  17.081  67.561  1.00  0.00    -0.220 A  
HETATM   11  C   UNL     1      -7.725  16.508  67.389  1.00  0.00    -0.174 A  
HETATM   12  C   UNL     1      -7.549  15.138  67.582  1.00  0.00    -0.194 A  
ENDBRANCH   6   7
ENDBRANCH   4   6
ENDBRANCH   2   4
TORSDOF 3
ENDMDL
MODEL      215
REMARK 921   NORMALIZED FREE ENERGY PREDICTED BY IDOCK:   -1.88 KCAL/MOL
REMARK 922        TOTAL FREE ENERGY PREDICTED BY IDOCK:   -2.43 KCAL/MOL
REMARK 923 INTER-LIGAND FREE ENERGY PREDICTED BY IDOCK:   -2.24 KCAL/MOL
REMARK 924 INTRA-LIGAND FREE ENERGY PREDICTED BY IDOCK:   -0.19 KCAL/MOL
REMARK 927      BINDING AFFINITY PREDICTED BY RF-SCORE:    0.00 PKD
ROOT
HETATM    1  C   UNL     1      -9.659  10.371  69.122  1.00  0.00    -0.213 C  
HETATM    2  N   UNL     1      -9.722   9.749  70.437  1.00  0.00    -0.344 NA 
HETATM    3  H   UNL     1     -10.248  10.331  71.089  1.00  0.00     0.000 HD 
ENDROOT
BRANCH   2   4
HETATM    4  C   UNL     1     -10.262   8.377  70.407  1.00  0.00    -0.197 C  
HETATM    5  C   UNL     1     -10.802   7.951  71.781  1.00  0.00    -0.286 C  
BRANCH   4   6
HETATM    6  C   UNL     1      -9.140   7.421  69.921  1.00  0.00    -0.141 C  
BRANCH   6   7
HETATM    7  C   UNL     1      -9.421   6.816  68.563  1.00  0.00    -0.131 A  
HETATM    8  C   UNL     1     -10.561   6.026  68.359  1.00  0.00    -0.322 A  
HETATM    9  C   UNL     1     -10.759   5.373  67.142  1.00  0.00    -0.206 A  
HETATM   10  C   UNL     1      -9.829   5.517  66.114  1.00  0.00    -0.137 A  
HETATM   11  C   UNL     1      -8.712   6.330  66.293  1.00  0.00    -0.143 A  
HETATM   12  C   UNL     1      -8.509   6.981  67.511  1.00  0.00    -0.122 A  
ENDBRANCH   6   7
ENDBRANCH   4   6
ENDBRANCH   2   4
TORSDOF 3
ENDMDL
MODEL      216
REMARK 921   NORMALIZED FREE ENERGY PREDICTED BY IDOCK:   -1.85 KCAL/MOL
REMARK 922        TOTAL FREE ENERGY PREDICTED BY IDOCK:   -2.40 KCAL/MOL
REMARK 923 INTER-LIGAND FREE ENERGY PREDICTED BY IDOCK:   -3.03 KCAL/MOL
REMARK 924 INTRA-LIGAND FREE ENERGY PREDICTED BY IDOCK:    0.63 KCAL/MOL
REMARK 927      BINDING AFFINITY PREDICTED BY RF-SCORE:    0.00 PKD
ROOT
HETATM    1  C   UNL     1     -10.301  11.099  64.950  1.00  0.00    -0.313 C  
HETATM    2  N   UNL     1     -10.538  12.480  65.350  1.00  0.00    -0.274 NA 
HETATM    3  H   UNL     1     -10.490  13.104  64.545  1.00  0.00     0.000 HD 
ENDROOT
BRANCH   2   4
HETATM    4  C   UNL     1     -11.804  12.664  66.082  1.00  0.00    -0.418 C  
HETATM    5  C   UNL     1     -12.652  13.790  65.472  1.00  0.00    -0.551 C  
BRANCH   4   6
HETATM    6  C   UNL     1     -11.471  12.954  67.571  1.00  0.00    -0.386 C  
BRANCH   6   7
HETATM    7  C   UNL     1     -10.214  12.258  68.045  1.00  0.00    -0.206 A  
HETATM    8  C   UNL     1      -8.951  12.757  67.698  1.00  0.00    -0.191 A  
HETATM    9  C   UNL     1      -7.796  12.052  68.035  1.00  0.00    -0.145 A  
HETATM   10  C   UNL     1      -7.892  10.851  68.736  1.00  0.00    -0.132 A  
HETATM   11  C   UNL     1      -9.140  10.365  69.119  1.00  0.00    -0.197 A  
HETATM   12  C   UNL     1     -10.297  11.066  68.779  1.00  0.00    -0.217 A  
ENDBRANCH   6   7
ENDBRANCH   4   6
ENDBRANCH   2   4
TORSDOF 3
ENDMDL
MODEL      217
REMARK 921   NORMALIZED FREE ENERGY PREDICTED BY IDOCK:   -1.83 KCAL/MOL
REMARK 922        TOTAL FREE ENERGY PREDICTED BY IDOCK:   -2.37 KCAL/MOL
REMARK 923 INTER-LIGAND FREE ENERGY PREDICTED BY IDOCK:   -2.55 KCAL/MOL
REMARK 924 INTRA-LIGAND FREE ENERGY PREDICTED BY IDOCK:    0.17 KCAL/MOL
REMARK 927      BINDING AFFINITY PREDICTED BY RF-SCORE:    0.00 PKD
ROOT
HETATM    1  C   UNL     1      -6.885   6.045  71.718  1.00  0.00    -0.068 C  
HETATM    2  N   UNL     1      -7.582   4.770  71.612  1.00  0.00    -0.088 NA 
HETATM    3  H   UNL     1      -8.432   4.773  72.176  1.00  0.00     0.000 HD 
ENDROOT
BRANCH   2   4
HETATM    4  C   UNL     1      -7.877   4.383  70.220  1.00  0.00    -0.059 C  
HETATM    5  C   UNL     1      -7.595   5.532  69.241  1.00  0.00    -0.086 C  
BRANCH   4   6
HETATM    6  C   UNL     1      -9.360   3.928  70.144  1.00  0.00    -0.241 C  
BRANCH   6   7
HETATM    7  C   UNL     1     -10.322   4.936  70.734  1.00  0.00    -0.228 A  
HETATM    8  C   UNL     1     -10.919   5.910  69.921  1.00  0.00    -0.444 A  
HETATM    9  C   UNL     1     -11.712   6.909  70.483  1.00  0.00    -0.401 A  
HETATM   10  C   UNL     1     -11.930   6.935  71.859  1.00  0.00    -0.363 A  
HETATM   11  C   UNL     1     -11.372   5.951  72.672  1.00  0.00    -0.337 A  
HETATM   12  C   UNL     1     -10.574   4.952  72.113  1.00  0.00    -0.232 A  
ENDBRANCH   6   7
ENDBRANCH   4   6
ENDBRANCH   2   4
TORSDOF 3
ENDMDL
MODEL      218
REMARK 921   NORMALIZED FREE ENERGY PREDICTED BY IDOCK:   -1.81 KCAL/MOL
REMARK 922        TOTAL FREE ENERGY PREDICTED BY IDOCK:   -2.36 KCAL/MOL
REMARK 923 INTER-LIGAND FREE ENERGY PREDICTED BY IDOCK:   -2.16 KCAL/MOL
REMARK 924 INTRA-LIGAND FREE ENERGY PREDICTED BY IDOCK:   -0.19 KCAL/MOL
REMARK 927      BINDING AFFINITY PREDICTED BY RF-SCORE:    0.00 PKD
ROOT
HETATM    1  C   UNL     1      -5.824   8.659  73.512  1.00  0.00    -0.108 C  
HETATM    2  N   UNL     1      -7.233   8.544  73.863  1.00  0.00    -0.324 NA 
HETATM    3  H   UNL     1      -7.771   9.310  73.459  1.00  0.00     0.000 HD 
ENDROOT
BRANCH   2   4
HETATM    4  C   UNL     1      -7.819   7.242  73.495  1.00  0.00    -0.102 C  
HETATM    5  C   UNL     1      -7.250   6.102  74.353  1.00  0.00    -0.090 C  
BRANCH   4   6
HETATM    6  C   UNL     1      -7.554   6.995  71.985  1.00  0.00    -0.091 C  
BRANCH   6   7
HETATM    7  C   UNL     1      -8.788   6.555  71.229  1.00  0.00    -0.137 A  
HETATM    8  C   UNL     1      -8.898   5.242  70.749  1.00  0.00    -0.151 A  
HETATM    9  C   UNL     1      -9.980   4.870  69.953  1.00  0.00    -0.317 A  
HETATM   10  C   UNL     1     -10.971   5.799  69.643  1.00  0.00    -0.385 A  
HETATM   11  C   UNL     1     -10.892   7.096  70.145  1.00  0.00    -0.279 A  
HETATM   12  C   UNL     1      -9.808   7.473  70.939  1.00  0.00    -0.177 A  
ENDBRANCH   6   7
ENDBRANCH   4   6
ENDBRANCH   2   4
TORSDOF 3
ENDMDL
MODEL      219
REMARK 921   NORMALIZED FREE ENERGY PREDICTED BY IDOCK:   -1.80 KCAL/MOL
REMARK 922        TOTAL FREE ENERGY PREDICTED BY IDOCK:   -2.34 KCAL/MOL
REMARK 923 INTER-LIGAND FREE ENERGY PREDICTED BY IDOCK:   -2.36 KCAL/MOL
REMARK 924 INTRA-LIGAND FREE ENERGY PREDICTED BY IDOCK:    0.02 KCAL/MOL
REMARK 927      BINDING AFFINITY PREDICTED BY RF-SCORE:    0.00 PKD
ROOT
HETATM    1  C   UNL     1      -6.737   8.418  71.514  1.00  0.00    -0.070 C  
HETATM    2  N   UNL     1      -7.182   8.933  72.802  1.00  0.00    -0.332 NA 
HETATM    3  H   UNL     1      -7.366   9.935  72.748  1.00  0.00     0.000 HD 
ENDROOT
BRANCH   2   4
HETATM    4  C   UNL     1      -8.351   8.214  73.342  1.00  0.00    -0.219 C  
HETATM    5  C   UNL     1      -7.947   7.224  74.445  1.00  0.00    -0.184 C  
BRANCH   4   6
HETATM    6  C   UNL     1      -9.065   7.489  72.169  1.00  0.00    -0.165 C  
BRANCH   6   7
HETATM    7  C   UNL     1      -9.591   6.122  72.547  1.00  0.00    -0.149 A  
HETATM    8  C   UNL     1      -8.883   4.965  72.195  1.00  0.00    -0.137 A  
HETATM    9  C   UNL     1      -9.424   3.704  72.439  1.00  0.00    -0.185 A  
HETATM   10  C   UNL     1     -10.669   3.586  73.053  1.00  0.00    -0.232 A  
HETATM   11  C   UNL     1     -11.365   4.729  73.442  1.00  0.00    -0.397 A  
HETATM   12  C   UNL     1     -10.828   5.992  73.195  1.00  0.00    -0.287 A  
ENDBRANCH   6   7
ENDBRANCH   4   6
ENDBRANCH   2   4
TORSDOF 3
ENDMDL
MODEL      220
REMARK 921   NORMALIZED FREE ENERGY PREDICTED BY IDOCK:   -1.79 KCAL/MOL
REMARK 922        TOTAL FREE ENERGY PREDICTED BY IDOCK:   -2.33 KCAL/MOL
REMARK 923 INTER-LIGAND FREE ENERGY PREDICTED BY IDOCK:   -2.14 KCAL/MOL
REMARK 924 INTRA-LIGAND FREE ENERGY PREDICTED BY IDOCK:   -0.19 KCAL/MOL
REMARK 927      BINDING AFFINITY PREDICTED BY RF-SCORE:    0.00 PKD
ROOT
HETATM    1  C   UNL     1      -6.299   9.367  68.264  1.00  0.00    -0.053 C  
HETATM    2  N   UNL     1      -7.662   9.249  67.762  1.00  0.00    -0.089 NA 
HETATM    3  H   UNL     1      -7.972   8.278  67.781  1.00  0.00     0.000 HD 
ENDROOT
BRANCH   2   4
HETATM    4  C   UNL     1      -8.619  10.119  68.470  1.00  0.00    -0.118 C  
HETATM    5  C   UNL     1      -8.249  11.603  68.327  1.00  0.00    -0.156 C  
BRANCH   4   6
HETATM    6  C   UNL     1      -8.660   9.690  69.961  1.00  0.00    -0.237 C  
BRANCH   6   7
HETATM    7  C   UNL     1      -9.671   8.599  70.239  1.00  0.00    -0.191 A  
HETATM    8  C   UNL     1     -11.003   8.922  70.535  1.00  0.00    -0.280 A  
HETATM    9  C   UNL     1     -11.906   7.927  70.905  1.00  0.00    -0.242 A  
HETATM   10  C   UNL     1     -11.492   6.598  70.967  1.00  0.00    -0.382 A  
HETATM   11  C   UNL     1     -10.181   6.260  70.639  1.00  0.00    -0.240 A  
HETATM   12  C   UNL     1      -9.274   7.255  70.272  1.00  0.00    -0.155 A  
ENDBRANCH   6   7
ENDBRANCH   4   6
ENDBRANCH   2   4
TORSDOF 3
ENDMDL
MODEL      221
REMARK 921   NORMALIZED FREE ENERGY PREDICTED BY IDOCK:   -1.77 KCAL/MOL
REMARK 922        TOTAL FREE ENERGY PREDICTED BY IDOCK:   -2.30 KCAL/MOL
REMARK 923 INTER-LIGAND FREE ENERGY PREDICTED BY IDOCK:   -2.38 KCAL/MOL
REMARK 924 INTRA-LIGAND FREE ENERGY PREDICTED BY IDOCK:    0.07 KCAL/MOL
REMARK 927      BINDING AFFINITY PREDICTED BY RF-SCORE:    0.00 PKD
ROOT
HETATM    1  C   UNL     1      -9.029   6.002  71.650  1.00  0.00    -0.142 C  
HETATM    2  N   UNL     1      -9.271   7.374  72.075  1.00  0.00    -0.132 NA 
HETATM    3  H   UNL     1      -8.574   8.005  71.679  1.00  0.00     0.000 HD 
ENDROOT
BRANCH   2   4
HETATM    4  C   UNL     1     -10.635   7.845  71.774  1.00  0.00    -0.226 C  
HETATM    5  C   UNL     1     -11.266   7.051  70.619  1.00  0.00    -0.327 C  
BRANCH   4   6
HETATM    6  C   UNL     1     -10.568   9.361  71.444  1.00  0.00    -0.381 C  
BRANCH   6   7
HETATM    7  C   UNL     1      -9.893   9.652  70.121  1.00  0.00    -0.310 A  
HETATM    8  C   UNL     1      -8.503   9.528  69.990  1.00  0.00    -0.210 A  
HETATM    9  C   UNL     1      -7.868   9.908  68.808  1.00  0.00    -0.091 A  
HETATM   10  C   UNL     1      -8.617  10.399  67.741  1.00  0.00    -0.122 A  
HETATM   11  C   UNL     1     -10.003  10.492  67.847  1.00  0.00    -0.193 A  
HETATM   12  C   UNL     1     -10.641  10.116  69.030  1.00  0.00    -0.245 A  
ENDBRANCH   6   7
ENDBRANCH   4   6
ENDBRANCH   2   4
TORSDOF 3
ENDMDL
MODEL      222
REMARK 921   NORMALIZED FREE ENERGY PREDICTED BY IDOCK:   -1.74 KCAL/MOL
REMARK 922        TOTAL FREE ENERGY PREDICTED BY IDOCK:   -2.28 KCAL/MOL
REMARK 923 INTER-LIGAND FREE ENERGY PREDICTED BY IDOCK:   -2.38 KCAL/MOL
REMARK 924 INTRA-LIGAND FREE ENERGY PREDICTED BY IDOCK:    0.11 KCAL/MOL
REMARK 927      BINDING AFFINITY PREDICTED BY RF-SCORE:    0.00 PKD
ROOT
HETATM    1  C   UNL     1      -9.255   8.855  67.160  1.00  0.00    -0.139 C  
HETATM    2  N   UNL     1      -9.154   7.730  68.081  1.00  0.00    -0.130 NA 
HETATM    3  H   UNL     1      -8.222   7.680  68.491  1.00  0.00     0.000 HD 
ENDROOT
BRANCH   2   4
HETATM    4  C   UNL     1     -10.189   7.744  69.131  1.00  0.00    -0.208 C  
HETATM    5  C   UNL     1      -9.570   7.678  70.536  1.00  0.00    -0.167 C  
BRANCH   4   6
HETATM    6  C   UNL     1     -11.152   6.551  68.884  1.00  0.00    -0.371 C  
BRANCH   6   7
HETATM    7  C   UNL     1     -10.512   5.422  68.106  1.00  0.00    -0.188 A  
HETATM    8  C   UNL     1      -9.767   4.436  68.768  1.00  0.00    -0.200 A  
HETATM    9  C   UNL     1      -9.081   3.463  68.042  1.00  0.00    -0.208 A  
HETATM   10  C   UNL     1      -9.147   3.456  66.650  1.00  0.00    -0.178 A  
HETATM   11  C   UNL     1      -9.914   4.409  65.983  1.00  0.00    -0.256 A  
HETATM   12  C   UNL     1     -10.598   5.386  66.707  1.00  0.00    -0.339 A  
ENDBRANCH   6   7
ENDBRANCH   4   6
ENDBRANCH   2   4
TORSDOF 3
ENDMDL
MODEL      223
REMARK 921   NORMALIZED FREE ENERGY PREDICTED BY IDOCK:   -1.74 KCAL/MOL
REMARK 922        TOTAL FREE ENERGY PREDICTED BY IDOCK:   -2.27 KCAL/MOL
REMARK 923 INTER-LIGAND FREE ENERGY PREDICTED BY IDOCK:   -2.10 KCAL/MOL
REMARK 924 INTRA-LIGAND FREE ENERGY PREDICTED BY IDOCK:   -0.18 KCAL/MOL
REMARK 927      BINDING AFFINITY PREDICTED BY RF-SCORE:    0.00 PKD
ROOT
HETATM    1  C   UNL     1     -11.851  11.814  68.575  1.00  0.00    -0.303 C  
HETATM    2  N   UNL     1     -11.113  10.570  68.747  1.00  0.00    -0.249 NA 
HETATM    3  H   UNL     1     -11.719   9.765  68.593  1.00  0.00     0.000 HD 
ENDROOT
BRANCH   2   4
HETATM    4  C   UNL     1      -9.907  10.488  67.903  1.00  0.00    -0.160 C  
HETATM    5  C   UNL     1      -9.459  11.875  67.418  1.00  0.00    -0.175 C  
BRANCH   4   6
HETATM    6  C   UNL     1     -10.211   9.545  66.707  1.00  0.00    -0.313 C  
BRANCH   6   7
HETATM    7  C   UNL     1      -9.336   8.311  66.685  1.00  0.00    -0.246 A  
HETATM    8  C   UNL     1      -9.905   7.034  66.784  1.00  0.00    -0.250 A  
HETATM    9  C   UNL     1      -9.094   5.904  66.883  1.00  0.00    -0.120 A  
HETATM   10  C   UNL     1      -7.707   6.039  66.866  1.00  0.00    -0.100 A  
HETATM   11  C   UNL     1      -7.130   7.299  66.730  1.00  0.00    -0.082 A  
HETATM   12  C   UNL     1      -7.940   8.432  66.636  1.00  0.00    -0.097 A  
ENDBRANCH   6   7
ENDBRANCH   4   6
ENDBRANCH   2   4
TORSDOF 3
ENDMDL
MODEL      224
REMARK 921   NORMALIZED FREE ENERGY PREDICTED BY IDOCK:   -1.73 KCAL/MOL
REMARK 922        TOTAL FREE ENERGY PREDICTED BY IDOCK:   -2.26 KCAL/MOL
REMARK 923 INTER-LIGAND FREE ENERGY PREDICTED BY IDOCK:   -2.01 KCAL/MOL
REMARK 924 INTRA-LIGAND FREE ENERGY PREDICTED BY IDOCK:   -0.25 KCAL/MOL
REMARK 927      BINDING AFFINITY PREDICTED BY RF-SCORE:    0.00 PKD
ROOT
HETATM    1  C   UNL     1     -10.567   5.871  70.036  1.00  0.00    -0.295 C  
HETATM    2  N   UNL     1     -11.525   6.904  69.665  1.00  0.00    -0.555 NA 
HETATM    3  H   UNL     1     -12.461   6.666  69.994  1.00  0.00     0.000 HD 
ENDROOT
BRANCH   2   4
HETATM    4  C   UNL     1     -11.135   8.251  70.122  1.00  0.00    -0.189 C  
HETATM    5  C   UNL     1     -12.288   8.957  70.852  1.00  0.00    -0.129 C  
BRANCH   4   6
HETATM    6  C   UNL     1     -10.666   9.069  68.888  1.00  0.00    -0.149 C  
BRANCH   6   7
HETATM    7  C   UNL     1      -9.267   9.625  69.041  1.00  0.00    -0.156 A  
HETATM    8  C   UNL     1      -8.780  10.582  68.140  1.00  0.00    -0.130 A  
HETATM    9  C   UNL     1      -7.454  11.008  68.210  1.00  0.00    -0.092 A  
HETATM   10  C   UNL     1      -6.608  10.494  69.190  1.00  0.00    -0.057 A  
HETATM   11  C   UNL     1      -7.091   9.570  70.114  1.00  0.00    -0.099 A  
HETATM   12  C   UNL     1      -8.416   9.139  70.044  1.00  0.00    -0.164 A  
ENDBRANCH   6   7
ENDBRANCH   4   6
ENDBRANCH   2   4
TORSDOF 3
ENDMDL
MODEL      225
REMARK 921   NORMALIZED FREE ENERGY PREDICTED BY IDOCK:   -1.73 KCAL/MOL
REMARK 922        TOTAL FREE ENERGY PREDICTED BY IDOCK:   -2.26 KCAL/MOL
REMARK 923 INTER-LIGAND FREE ENERGY PREDICTED BY IDOCK:   -2.28 KCAL/MOL
REMARK 924 INTRA-LIGAND FREE ENERGY PREDICTED BY IDOCK:    0.02 KCAL/MOL
REMARK 927      BINDING AFFINITY PREDICTED BY RF-SCORE:    0.00 PKD
ROOT
HETATM    1  C   UNL     1     -10.742   7.840  69.887  1.00  0.00    -0.245 C  
HETATM    2  N   UNL     1     -10.287   6.456  69.860  1.00  0.00    -0.185 NA 
HETATM    3  H   UNL     1     -10.709   5.951  69.081  1.00  0.00     0.000 HD 
ENDROOT
BRANCH   2   4
HETATM    4  C   UNL     1      -8.819   6.327  69.836  1.00  0.00    -0.141 C  
HETATM    5  C   UNL     1      -8.355   5.338  68.756  1.00  0.00    -0.092 C  
BRANCH   4   6
HETATM    6  C   UNL     1      -8.343   5.885  71.246  1.00  0.00    -0.124 C  
BRANCH   6   7
HETATM    7  C   UNL     1      -9.296   4.922  71.920  1.00  0.00    -0.180 A  
HETATM    8  C   UNL     1     -10.222   5.383  72.866  1.00  0.00    -0.217 A  
HETATM    9  C   UNL     1     -11.018   4.482  73.572  1.00  0.00    -0.387 A  
HETATM   10  C   UNL     1     -10.910   3.115  73.327  1.00  0.00    -0.283 A  
HETATM   11  C   UNL     1     -10.020   2.648  72.362  1.00  0.00    -0.235 A  
HETATM   12  C   UNL     1      -9.219   3.547  71.657  1.00  0.00    -0.188 A  
ENDBRANCH   6   7
ENDBRANCH   4   6
ENDBRANCH   2   4
TORSDOF 3
ENDMDL
MODEL      226
REMARK 921   NORMALIZED FREE ENERGY PREDICTED BY IDOCK:   -1.70 KCAL/MOL
REMARK 922        TOTAL FREE ENERGY PREDICTED BY IDOCK:   -2.23 KCAL/MOL
REMARK 923 INTER-LIGAND FREE ENERGY PREDICTED BY IDOCK:   -2.02 KCAL/MOL
REMARK 924 INTRA-LIGAND FREE ENERGY PREDICTED BY IDOCK:   -0.21 KCAL/MOL
REMARK 927      BINDING AFFINITY PREDICTED BY RF-SCORE:    0.00 PKD
ROOT
HETATM    1  C   UNL     1      -5.846   3.908  69.253  1.00  0.00    -0.022 C  
HETATM    2  N   UNL     1      -7.105   3.176  69.202  1.00  0.00    -0.045 NA 
HETATM    3  H   UNL     1      -7.367   2.842  70.129  1.00  0.00     0.000 HD 
ENDROOT
BRANCH   2   4
HETATM    4  C   UNL     1      -8.203   3.949  68.593  1.00  0.00    -0.074 C  
HETATM    5  C   UNL     1      -8.099   3.968  67.060  1.00  0.00    -0.096 C  
BRANCH   4   6
HETATM    6  C   UNL     1      -8.171   5.387  69.177  1.00  0.00    -0.093 C  
BRANCH   6   7
HETATM    7  C   UNL     1      -9.339   5.683  70.092  1.00  0.00    -0.188 A  
HETATM    8  C   UNL     1      -9.345   5.211  71.412  1.00  0.00    -0.189 A  
HETATM    9  C   UNL     1     -10.470   5.382  72.218  1.00  0.00    -0.272 A  
HETATM   10  C   UNL     1     -11.592   6.040  71.718  1.00  0.00    -0.288 A  
HETATM   11  C   UNL     1     -11.583   6.546  70.420  1.00  0.00    -0.470 A  
HETATM   12  C   UNL     1     -10.461   6.373  69.611  1.00  0.00    -0.278 A  
ENDBRANCH   6   7
ENDBRANCH   4   6
ENDBRANCH   2   4
TORSDOF 3
ENDMDL
MODEL      227
REMARK 921   NORMALIZED FREE ENERGY PREDICTED BY IDOCK:   -1.69 KCAL/MOL
REMARK 922        TOTAL FREE ENERGY PREDICTED BY IDOCK:   -2.21 KCAL/MOL
REMARK 923 INTER-LIGAND FREE ENERGY PREDICTED BY IDOCK:   -2.00 KCAL/MOL
REMARK 924 INTRA-LIGAND FREE ENERGY PREDICTED BY IDOCK:   -0.21 KCAL/MOL
REMARK 927      BINDING AFFINITY PREDICTED BY RF-SCORE:    0.00 PKD
ROOT
HETATM    1  C   UNL     1      -6.344   6.663  72.226  1.00  0.00    -0.053 C  
HETATM    2  N   UNL     1      -6.781   8.051  72.156  1.00  0.00    -0.063 NA 
HETATM    3  H   UNL     1      -6.132   8.608  71.600  1.00  0.00     0.000 HD 
ENDROOT
BRANCH   2   4
HETATM    4  C   UNL     1      -8.161   8.202  71.658  1.00  0.00    -0.124 C  
HETATM    5  C   UNL     1      -9.179   7.543  72.601  1.00  0.00    -0.201 C  
BRANCH   4   6
HETATM    6  C   UNL     1      -8.236   7.591  70.232  1.00  0.00    -0.128 C  
BRANCH   6   7
HETATM    7  C   UNL     1      -9.095   8.398  69.284  1.00  0.00    -0.150 A  
HETATM    8  C   UNL     1      -9.441   9.722  69.590  1.00  0.00    -0.237 A  
HETATM    9  C   UNL     1     -10.328  10.426  68.776  1.00  0.00    -0.213 A  
HETATM   10  C   UNL     1     -10.863   9.821  67.641  1.00  0.00    -0.301 A  
HETATM   11  C   UNL     1     -10.497   8.519  67.307  1.00  0.00    -0.366 A  
HETATM   12  C   UNL     1      -9.614   7.810  68.121  1.00  0.00    -0.161 A  
ENDBRANCH   6   7
ENDBRANCH   4   6
ENDBRANCH   2   4
TORSDOF 3
ENDMDL
MODEL      228
REMARK 921   NORMALIZED FREE ENERGY PREDICTED BY IDOCK:   -1.67 KCAL/MOL
REMARK 922        TOTAL FREE ENERGY PREDICTED BY IDOCK:   -2.19 KCAL/MOL
REMARK 923 INTER-LIGAND FREE ENERGY PREDICTED BY IDOCK:   -1.94 KCAL/MOL
REMARK 924 INTRA-LIGAND FREE ENERGY PREDICTED BY IDOCK:   -0.26 KCAL/MOL
REMARK 927      BINDING AFFINITY PREDICTED BY RF-SCORE:    0.00 PKD
ROOT
HETATM    1  C   UNL     1      -8.003   2.333  65.087  1.00  0.00    -0.078 C  
HETATM    2  N   UNL     1      -7.318   2.369  66.372  1.00  0.00    -0.064 NA 
HETATM    3  H   UNL     1      -6.307   2.341  66.244  1.00  0.00     0.000 HD 
ENDROOT
BRANCH   2   4
HETATM    4  C   UNL     1      -7.710   3.518  67.209  1.00  0.00    -0.079 C  
HETATM    5  C   UNL     1      -7.579   3.200  68.706  1.00  0.00    -0.048 C  
BRANCH   4   6
HETATM    6  C   UNL     1      -9.165   3.915  66.843  1.00  0.00    -0.190 C  
BRANCH   6   7
HETATM    7  C   UNL     1      -9.392   5.411  66.844  1.00  0.00    -0.127 A  
HETATM    8  C   UNL     1     -10.579   5.951  67.359  1.00  0.00    -0.356 A  
HETATM    9  C   UNL     1     -10.838   7.317  67.253  1.00  0.00    -0.354 A  
HETATM   10  C   UNL     1      -9.907   8.159  66.649  1.00  0.00    -0.331 A  
HETATM   11  C   UNL     1      -8.707   7.640  66.168  1.00  0.00    -0.176 A  
HETATM   12  C   UNL     1      -8.447   6.273  66.268  1.00  0.00    -0.133 A  
ENDBRANCH   6   7
ENDBRANCH   4   6
ENDBRANCH   2   4
TORSDOF 3
ENDMDL
MODEL      229
REMARK 921   NORMALIZED FREE ENERGY PREDICTED BY IDOCK:   -1.66 KCAL/MOL
REMARK 922        TOTAL FREE ENERGY PREDICTED BY IDOCK:   -2.18 KCAL/MOL
REMARK 923 INTER-LIGAND FREE ENERGY PREDICTED BY IDOCK:   -2.01 KCAL/MOL
REMARK 924 INTRA-LIGAND FREE ENERGY PREDICTED BY IDOCK:   -0.17 KCAL/MOL
REMARK 927      BINDING AFFINITY PREDICTED BY RF-SCORE:    0.00 PKD
ROOT
HETATM    1  C   UNL     1      -9.055   7.104  67.656  1.00  0.00    -0.127 C  
HETATM    2  N   UNL     1     -10.162   7.655  68.425  1.00  0.00    -0.194 NA 
HETATM    3  H   UNL     1     -11.049   7.499  67.947  1.00  0.00     0.000 HD 
ENDROOT
BRANCH   2   4
HETATM    4  C   UNL     1     -10.217   7.149  69.809  1.00  0.00    -0.208 C  
HETATM    5  C   UNL     1     -11.535   6.410  70.090  1.00  0.00    -0.484 C  
BRANCH   4   6
HETATM    6  C   UNL     1     -10.028   8.349  70.776  1.00  0.00    -0.222 C  
BRANCH   6   7
HETATM    7  C   UNL     1      -8.575   8.694  71.018  1.00  0.00    -0.211 A  
HETATM    8  C   UNL     1      -7.870   8.104  72.077  1.00  0.00    -0.150 A  
HETATM    9  C   UNL     1      -6.569   8.508  72.371  1.00  0.00    -0.091 A  
HETATM   10  C   UNL     1      -5.953   9.493  71.600  1.00  0.00     0.002 A  
HETATM   11  C   UNL     1      -6.631  10.060  70.523  1.00  0.00    -0.122 A  
HETATM   12  C   UNL     1      -7.934   9.660  70.229  1.00  0.00    -0.198 A  
ENDBRANCH   6   7
ENDBRANCH   4   6
ENDBRANCH   2   4
TORSDOF 3
ENDMDL
MODEL      230
REMARK 921   NORMALIZED FREE ENERGY PREDICTED BY IDOCK:   -1.64 KCAL/MOL
REMARK 922        TOTAL FREE ENERGY PREDICTED BY IDOCK:   -2.15 KCAL/MOL
REMARK 923 INTER-LIGAND FREE ENERGY PREDICTED BY IDOCK:   -2.18 KCAL/MOL
REMARK 924 INTRA-LIGAND FREE ENERGY PREDICTED BY IDOCK:    0.02 KCAL/MOL
REMARK 927      BINDING AFFINITY PREDICTED BY RF-SCORE:    0.00 PKD
ROOT
HETATM    1  C   UNL     1     -10.930  11.285  66.615  1.00  0.00    -0.268 C  
HETATM    2  N   UNL     1     -10.323  12.456  65.996  1.00  0.00    -0.245 NA 
HETATM    3  H   UNL     1     -10.604  12.534  65.018  1.00  0.00     0.000 HD 
ENDROOT
BRANCH   2   4
HETATM    4  C   UNL     1     -10.600  13.708  66.723  1.00  0.00    -0.273 C  
HETATM    5  C   UNL     1     -10.127  14.938  65.934  1.00  0.00    -0.348 C  
BRANCH   4   6
HETATM    6  C   UNL     1      -9.909  13.629  68.111  1.00  0.00    -0.236 C  
BRANCH   6   7
HETATM    7  C   UNL     1      -8.409  13.820  68.040  1.00  0.00    -0.171 A  
HETATM    8  C   UNL     1      -7.567  12.736  67.755  1.00  0.00    -0.141 A  
HETATM    9  C   UNL     1      -6.182  12.885  67.805  1.00  0.00    -0.144 A  
HETATM   10  C   UNL     1      -5.625  14.122  68.123  1.00  0.00    -0.123 A  
HETATM   11  C   UNL     1      -6.452  15.216  68.372  1.00  0.00    -0.107 A  
HETATM   12  C   UNL     1      -7.838  15.068  68.327  1.00  0.00    -0.119 A  
ENDBRANCH   6   7
ENDBRANCH   4   6
ENDBRANCH   2   4
TORSDOF 3
ENDMDL
MODEL      231
REMARK 921   NORMALIZED FREE ENERGY PREDICTED BY IDOCK:   -1.55 KCAL/MOL
REMARK 922        TOTAL FREE ENERGY PREDICTED BY IDOCK:   -2.05 KCAL/MOL
REMARK 923 INTER-LIGAND FREE ENERGY PREDICTED BY IDOCK:   -1.98 KCAL/MOL
REMARK 924 INTRA-LIGAND FREE ENERGY PREDICTED BY IDOCK:   -0.07 KCAL/MOL
REMARK 927      BINDING AFFINITY PREDICTED BY RF-SCORE:    0.00 PKD
ROOT
HETATM    1  C   UNL     1     -10.157   4.725  69.611  1.00  0.00    -0.205 C  
HETATM    2  N   UNL     1      -9.113   4.419  68.642  1.00  0.00    -0.116 NA 
HETATM    3  H   UNL     1      -9.516   4.075  67.771  1.00  0.00     0.000 HD 
ENDROOT
BRANCH   2   4
HETATM    4  C   UNL     1      -8.206   5.554  68.388  1.00  0.00    -0.099 C  
HETATM    5  C   UNL     1      -6.736   5.107  68.353  1.00  0.00    -0.054 C  
BRANCH   4   6
HETATM    6  C   UNL     1      -8.443   6.625  69.486  1.00  0.00    -0.132 C  
BRANCH   6   7
HETATM    7  C   UNL     1      -9.156   7.856  68.972  1.00  0.00    -0.144 A  
HETATM    8  C   UNL     1      -9.558   8.867  69.856  1.00  0.00    -0.185 A  
HETATM    9  C   UNL     1     -10.317   9.944  69.400  1.00  0.00    -0.238 A  
HETATM   10  C   UNL     1     -10.666  10.030  68.054  1.00  0.00    -0.303 A  
HETATM   11  C   UNL     1     -10.240   9.051  67.159  1.00  0.00    -0.334 A  
HETATM   12  C   UNL     1      -9.484   7.970  67.613  1.00  0.00    -0.171 A  
ENDBRANCH   6   7
ENDBRANCH   4   6
ENDBRANCH   2   4
TORSDOF 3
ENDMDL
MODEL      232
REMARK 921   NORMALIZED FREE ENERGY PREDICTED BY IDOCK:   -1.55 KCAL/MOL
REMARK 922        TOTAL FREE ENERGY PREDICTED BY IDOCK:   -2.04 KCAL/MOL
REMARK 923 INTER-LIGAND FREE ENERGY PREDICTED BY IDOCK:   -1.92 KCAL/MOL
REMARK 924 INTRA-LIGAND FREE ENERGY PREDICTED BY IDOCK:   -0.12 KCAL/MOL
REMARK 927      BINDING AFFINITY PREDICTED BY RF-SCORE:    0.00 PKD
ROOT
HETATM    1  C   UNL     1     -10.460   7.219  68.117  1.00  0.00    -0.198 C  
HETATM    2  N   UNL     1     -11.192   8.455  68.362  1.00  0.00    -0.166 NA 
HETATM    3  H   UNL     1     -11.890   8.323  69.094  1.00  0.00     0.000 HD 
ENDROOT
BRANCH   2   4
HETATM    4  C   UNL     1     -10.315   9.599  68.673  1.00  0.00    -0.203 C  
HETATM    5  C   UNL     1     -11.014  10.615  69.588  1.00  0.00    -0.331 C  
BRANCH   4   6
HETATM    6  C   UNL     1      -9.874  10.254  67.337  1.00  0.00    -0.214 C  
BRANCH   6   7
HETATM    7  C   UNL     1      -8.932  11.423  67.530  1.00  0.00    -0.150 A  
HETATM    8  C   UNL     1      -7.583  11.204  67.846  1.00  0.00    -0.099 A  
HETATM    9  C   UNL     1      -6.744  12.278  68.139  1.00  0.00    -0.069 A  
HETATM   10  C   UNL     1      -7.239  13.580  68.104  1.00  0.00    -0.117 A  
HETATM   11  C   UNL     1      -8.568  13.812  67.755  1.00  0.00    -0.184 A  
HETATM   12  C   UNL     1      -9.411  12.739  67.465  1.00  0.00    -0.189 A  
ENDBRANCH   6   7
ENDBRANCH   4   6
ENDBRANCH   2   4
TORSDOF 3
ENDMDL
MODEL      233
REMARK 921   NORMALIZED FREE ENERGY PREDICTED BY IDOCK:   -1.54 KCAL/MOL
REMARK 922        TOTAL FREE ENERGY PREDICTED BY IDOCK:   -2.04 KCAL/MOL
REMARK 923 INTER-LIGAND FREE ENERGY PREDICTED BY IDOCK:   -1.83 KCAL/MOL
REMARK 924 INTRA-LIGAND FREE ENERGY PREDICTED BY IDOCK:   -0.20 KCAL/MOL
REMARK 927      BINDING AFFINITY PREDICTED BY RF-SCORE:    0.00 PKD
ROOT
HETATM    1  C   UNL     1      -8.849   2.088  70.457  1.00  0.00    -0.069 C  
HETATM    2  N   UNL     1      -8.337   3.376  70.907  1.00  0.00    -0.064 NA 
HETATM    3  H   UNL     1      -8.185   4.002  70.117  1.00  0.00     0.000 HD 
ENDROOT
BRANCH   2   4
HETATM    4  C   UNL     1      -9.188   4.015  71.927  1.00  0.00    -0.126 C  
HETATM    5  C   UNL     1      -9.640   3.011  72.998  1.00  0.00    -0.144 C  
BRANCH   4   6
HETATM    6  C   UNL     1     -10.405   4.663  71.212  1.00  0.00    -0.148 C  
BRANCH   6   7
HETATM    7  C   UNL     1     -10.066   5.968  70.527  1.00  0.00    -0.244 A  
HETATM    8  C   UNL     1      -9.290   6.935  71.182  1.00  0.00    -0.162 A  
HETATM    9  C   UNL     1      -9.076   8.183  70.599  1.00  0.00    -0.156 A  
HETATM   10  C   UNL     1      -9.622   8.471  69.350  1.00  0.00    -0.170 A  
HETATM   11  C   UNL     1     -10.364   7.506  68.673  1.00  0.00    -0.218 A  
HETATM   12  C   UNL     1     -10.582   6.257  69.256  1.00  0.00    -0.332 A  
ENDBRANCH   6   7
ENDBRANCH   4   6
ENDBRANCH   2   4
TORSDOF 3
ENDMDL
MODEL      234
REMARK 921   NORMALIZED FREE ENERGY PREDICTED BY IDOCK:   -1.52 KCAL/MOL
REMARK 922        TOTAL FREE ENERGY PREDICTED BY IDOCK:   -2.01 KCAL/MOL
REMARK 923 INTER-LIGAND FREE ENERGY PREDICTED BY IDOCK:   -1.80 KCAL/MOL
REMARK 924 INTRA-LIGAND FREE ENERGY PREDICTED BY IDOCK:   -0.21 KCAL/MOL
REMARK 927      BINDING AFFINITY PREDICTED BY RF-SCORE:    0.00 PKD
ROOT
HETATM    1  C   UNL     1     -10.004   3.855  65.047  1.00  0.00    -0.184 C  
HETATM    2  N   UNL     1      -9.243   4.742  64.177  1.00  0.00    -0.329 NA 
HETATM    3  H   UNL     1      -9.863   5.264  63.559  1.00  0.00     0.000 HD 
ENDROOT
BRANCH   2   4
HETATM    4  C   UNL     1      -8.349   5.654  64.914  1.00  0.00    -0.139 C  
HETATM    5  C   UNL     1      -6.871   5.292  64.703  1.00  0.00    -0.048 C  
BRANCH   4   6
HETATM    6  C   UNL     1      -8.732   5.603  66.419  1.00  0.00    -0.126 C  
BRANCH   6   7
HETATM    7  C   UNL     1      -9.089   6.959  66.987  1.00  0.00    -0.146 A  
HETATM    8  C   UNL     1      -8.229   8.052  66.813  1.00  0.00    -0.111 A  
HETATM    9  C   UNL     1      -8.500   9.270  67.436  1.00  0.00    -0.122 A  
HETATM   10  C   UNL     1      -9.640   9.412  68.223  1.00  0.00    -0.156 A  
HETATM   11  C   UNL     1     -10.522   8.344  68.373  1.00  0.00    -0.208 A  
HETATM   12  C   UNL     1     -10.251   7.123  67.755  1.00  0.00    -0.234 A  
ENDBRANCH   6   7
ENDBRANCH   4   6
ENDBRANCH   2   4
TORSDOF 3
ENDMDL
MODEL      235
REMARK 921   NORMALIZED FREE ENERGY PREDICTED BY IDOCK:   -1.52 KCAL/MOL
REMARK 922        TOTAL FREE ENERGY PREDICTED BY IDOCK:   -2.01 KCAL/MOL
REMARK 923 INTER-LIGAND FREE ENERGY PREDICTED BY IDOCK:   -2.22 KCAL/MOL
REMARK 924 INTRA-LIGAND FREE ENERGY PREDICTED BY IDOCK:    0.20 KCAL/MOL
REMARK 927      BINDING AFFINITY PREDICTED BY RF-SCORE:    0.00 PKD
ROOT
HETATM    1  C   UNL     1     -10.508  12.642  64.588  1.00  0.00    -0.337 C  
HETATM    2  N   UNL     1     -10.876  11.263  64.879  1.00  0.00    -0.267 NA 
HETATM    3  H   UNL     1     -10.165  10.617  64.536  1.00  0.00     0.000 HD 
ENDROOT
BRANCH   2   4
HETATM    4  C   UNL     1     -11.155  11.025  66.307  1.00  0.00    -0.037 C  
HETATM    5  C   UNL     1     -10.494  12.088  67.198  1.00  0.00    -0.244 C  
BRANCH   4   6
HETATM    6  C   UNL     1     -10.660   9.598  66.671  1.00  0.00    -0.173 C  
BRANCH   6   7
HETATM    7  C   UNL     1      -9.903   9.548  67.980  1.00  0.00    -0.181 A  
HETATM    8  C   UNL     1     -10.577   9.287  69.181  1.00  0.00    -0.228 A  
HETATM    9  C   UNL     1      -9.902   9.356  70.399  1.00  0.00    -0.313 A  
HETATM   10  C   UNL     1      -8.545   9.669  70.427  1.00  0.00    -0.200 A  
HETATM   11  C   UNL     1      -7.856   9.893  69.237  1.00  0.00    -0.117 A  
HETATM   12  C   UNL     1      -8.530   9.829  68.017  1.00  0.00    -0.118 A  
ENDBRANCH   6   7
ENDBRANCH   4   6
ENDBRANCH   2   4
TORSDOF 3
ENDMDL
MODEL      236
REMARK 921   NORMALIZED FREE ENERGY PREDICTED BY IDOCK:   -1.45 KCAL/MOL
REMARK 922        TOTAL FREE ENERGY PREDICTED BY IDOCK:   -1.93 KCAL/MOL
REMARK 923 INTER-LIGAND FREE ENERGY PREDICTED BY IDOCK:   -1.71 KCAL/MOL
REMARK 924 INTRA-LIGAND FREE ENERGY PREDICTED BY IDOCK:   -0.22 KCAL/MOL
REMARK 927      BINDING AFFINITY PREDICTED BY RF-SCORE:    0.00 PKD
ROOT
HETATM    1  C   UNL     1     -10.149   4.300  64.233  1.00  0.00    -0.049 C  
HETATM    2  N   UNL     1     -10.578   4.109  65.612  1.00  0.00    -0.478 NA 
HETATM    3  H   UNL     1     -10.509   3.128  65.881  1.00  0.00     0.000 HD 
ENDROOT
BRANCH   2   4
HETATM    4  C   UNL     1      -9.855   4.966  66.570  1.00  0.00    -0.207 C  
HETATM    5  C   UNL     1      -8.605   5.595  65.936  1.00  0.00    -0.144 C  
BRANCH   4   6
HETATM    6  C   UNL     1      -9.487   4.109  67.811  1.00  0.00    -0.225 C  
BRANCH   6   7
HETATM    7  C   UNL     1      -8.773   4.898  68.888  1.00  0.00    -0.103 A  
HETATM    8  C   UNL     1      -7.454   4.583  69.243  1.00  0.00    -0.055 A  
HETATM    9  C   UNL     1      -6.837   5.231  70.312  1.00  0.00    -0.048 A  
HETATM   10  C   UNL     1      -7.525   6.209  71.026  1.00  0.00    -0.085 A  
HETATM   11  C   UNL     1      -8.824   6.556  70.659  1.00  0.00    -0.144 A  
HETATM   12  C   UNL     1      -9.445   5.907  69.592  1.00  0.00    -0.172 A  
ENDBRANCH   6   7
ENDBRANCH   4   6
ENDBRANCH   2   4
TORSDOF 3
ENDMDL
MODEL      237
REMARK 921   NORMALIZED FREE ENERGY PREDICTED BY IDOCK:   -1.44 KCAL/MOL
REMARK 922        TOTAL FREE ENERGY PREDICTED BY IDOCK:   -1.92 KCAL/MOL
REMARK 923 INTER-LIGAND FREE ENERGY PREDICTED BY IDOCK:   -1.74 KCAL/MOL
REMARK 924 INTRA-LIGAND FREE ENERGY PREDICTED BY IDOCK:   -0.18 KCAL/MOL
REMARK 927      BINDING AFFINITY PREDICTED BY RF-SCORE:    0.00 PKD
ROOT
HETATM    1  C   UNL     1      -6.123   6.833  73.646  1.00  0.00    -0.063 C  
HETATM    2  N   UNL     1      -7.285   6.079  74.096  1.00  0.00    -0.088 NA 
HETATM    3  H   UNL     1      -7.433   6.204  75.097  1.00  0.00     0.000 HD 
ENDROOT
BRANCH   2   4
HETATM    4  C   UNL     1      -8.512   6.397  73.342  1.00  0.00    -0.121 C  
HETATM    5  C   UNL     1      -9.323   7.510  74.022  1.00  0.00    -0.251 C  
BRANCH   4   6
HETATM    6  C   UNL     1      -9.349   5.096  73.200  1.00  0.00    -0.138 C  
BRANCH   6   7
HETATM    7  C   UNL     1      -9.398   4.572  71.782  1.00  0.00    -0.194 A  
HETATM    8  C   UNL     1      -8.505   3.578  71.359  1.00  0.00    -0.093 A  
HETATM    9  C   UNL     1      -8.472   3.179  70.024  1.00  0.00    -0.090 A  
HETATM   10  C   UNL     1      -9.342   3.758  69.102  1.00  0.00    -0.243 A  
HETATM   11  C   UNL     1     -10.259   4.720  69.517  1.00  0.00    -0.180 A  
HETATM   12  C   UNL     1     -10.292   5.124  70.852  1.00  0.00    -0.282 A  
ENDBRANCH   6   7
ENDBRANCH   4   6
ENDBRANCH   2   4
TORSDOF 3
ENDMDL
MODEL      238
REMARK 921   NORMALIZED FREE ENERGY PREDICTED BY IDOCK:   -1.44 KCAL/MOL
REMARK 922        TOTAL FREE ENERGY PREDICTED BY IDOCK:   -1.92 KCAL/MOL
REMARK 923 INTER-LIGAND FREE ENERGY PREDICTED BY IDOCK:   -1.89 KCAL/MOL
REMARK 924 INTRA-LIGAND FREE ENERGY PREDICTED BY IDOCK:   -0.03 KCAL/MOL
REMARK 927      BINDING AFFINITY PREDICTED BY RF-SCORE:    0.00 PKD
ROOT
HETATM    1  C   UNL     1      -9.765   6.477  68.257  1.00  0.00    -0.131 C  
HETATM    2  N   UNL     1     -10.298   5.764  69.410  1.00  0.00    -0.235 NA 
HETATM    3  H   UNL     1     -11.080   5.168  69.138  1.00  0.00     0.000 HD 
ENDROOT
BRANCH   2   4
HETATM    4  C   UNL     1      -9.277   4.990  70.139  1.00  0.00    -0.135 C  
HETATM    5  C   UNL     1      -9.854   4.347  71.410  1.00  0.00    -0.262 C  
BRANCH   4   6
HETATM    6  C   UNL     1      -8.093   5.936  70.474  1.00  0.00    -0.111 C  
BRANCH   6   7
HETATM    7  C   UNL     1      -8.133   6.459  71.893  1.00  0.00    -0.109 A  
HETATM    8  C   UNL     1      -8.979   7.524  72.234  1.00  0.00    -0.167 A  
HETATM    9  C   UNL     1      -8.931   8.083  73.511  1.00  0.00    -0.327 A  
HETATM   10  C   UNL     1      -8.051   7.572  74.463  1.00  0.00    -0.235 A  
HETATM   11  C   UNL     1      -7.232   6.490  74.146  1.00  0.00    -0.088 A  
HETATM   12  C   UNL     1      -7.275   5.932  72.868  1.00  0.00    -0.090 A  
ENDBRANCH   6   7
ENDBRANCH   4   6
ENDBRANCH   2   4
TORSDOF 3
ENDMDL
MODEL      239
REMARK 921   NORMALIZED FREE ENERGY PREDICTED BY IDOCK:   -1.41 KCAL/MOL
REMARK 922        TOTAL FREE ENERGY PREDICTED BY IDOCK:   -1.89 KCAL/MOL
REMARK 923 INTER-LIGAND FREE ENERGY PREDICTED BY IDOCK:   -1.70 KCAL/MOL
REMARK 924 INTRA-LIGAND FREE ENERGY PREDICTED BY IDOCK:   -0.18 KCAL/MOL
REMARK 927      BINDING AFFINITY PREDICTED BY RF-SCORE:    0.00 PKD
ROOT
HETATM    1  C   UNL     1     -10.752   7.726  69.926  1.00  0.00    -0.245 C  
HETATM    2  N   UNL     1     -10.768   6.442  69.238  1.00  0.00    -0.259 NA 
HETATM    3  H   UNL     1     -11.136   6.543  68.293  1.00  0.00     0.000 HD 
ENDROOT
BRANCH   2   4
HETATM    4  C   UNL     1      -9.454   5.775  69.221  1.00  0.00    -0.129 C  
HETATM    5  C   UNL     1      -8.733   5.978  67.880  1.00  0.00    -0.112 C  
BRANCH   4   6
HETATM    6  C   UNL     1      -9.667   4.266  69.523  1.00  0.00    -0.272 C  
BRANCH   6   7
HETATM    7  C   UNL     1      -9.057   3.831  70.837  1.00  0.00    -0.180 A  
HETATM    8  C   UNL     1      -7.748   3.332  70.882  1.00  0.00    -0.043 A  
HETATM    9  C   UNL     1      -7.227   2.822  72.070  1.00  0.00    -0.039 A  
HETATM   10  C   UNL     1      -8.002   2.821  73.228  1.00  0.00    -0.059 A  
HETATM   11  C   UNL     1      -9.291   3.349  73.204  1.00  0.00    -0.121 A  
HETATM   12  C   UNL     1      -9.817   3.856  72.015  1.00  0.00    -0.245 A  
ENDBRANCH   6   7
ENDBRANCH   4   6
ENDBRANCH   2   4
TORSDOF 3
ENDMDL
MODEL      240
REMARK 921   NORMALIZED FREE ENERGY PREDICTED BY IDOCK:   -1.41 KCAL/MOL
REMARK 922        TOTAL FREE ENERGY PREDICTED BY IDOCK:   -1.89 KCAL/MOL
REMARK 923 INTER-LIGAND FREE ENERGY PREDICTED BY IDOCK:   -1.67 KCAL/MOL
REMARK 924 INTRA-LIGAND FREE ENERGY PREDICTED BY IDOCK:   -0.22 KCAL/MOL
REMARK 927      BINDING AFFINITY PREDICTED BY RF-SCORE:    0.00 PKD
ROOT
HETATM    1  C   UNL     1      -9.886   2.185  73.795  1.00  0.00    -0.091 C  
HETATM    2  N   UNL     1     -10.781   3.107  73.110  1.00  0.00    -0.172 NA 
HETATM    3  H   UNL     1     -11.533   3.410  73.730  1.00  0.00     0.000 HD 
ENDROOT
BRANCH   2   4
HETATM    4  C   UNL     1     -10.085   4.267  72.524  1.00  0.00    -0.172 C  
HETATM    5  C   UNL     1     -10.064   4.199  70.990  1.00  0.00    -0.130 C  
BRANCH   4   6
HETATM    6  C   UNL     1      -8.646   4.318  73.105  1.00  0.00    -0.093 C  
BRANCH   6   7
HETATM    7  C   UNL     1      -8.248   5.696  73.586  1.00  0.00    -0.112 A  
HETATM    8  C   UNL     1      -9.121   6.782  73.434  1.00  0.00    -0.152 A  
HETATM    9  C   UNL     1      -8.709   8.071  73.769  1.00  0.00    -0.329 A  
HETATM   10  C   UNL     1      -7.429   8.285  74.276  1.00  0.00    -0.252 A  
HETATM   11  C   UNL     1      -6.566   7.208  74.466  1.00  0.00    -0.086 A  
HETATM   12  C   UNL     1      -6.973   5.918  74.128  1.00  0.00    -0.081 A  
ENDBRANCH   6   7
ENDBRANCH   4   6
ENDBRANCH   2   4
TORSDOF 3
ENDMDL
MODEL      241
REMARK 921   NORMALIZED FREE ENERGY PREDICTED BY IDOCK:   -1.39 KCAL/MOL
REMARK 922        TOTAL FREE ENERGY PREDICTED BY IDOCK:   -1.86 KCAL/MOL
REMARK 923 INTER-LIGAND FREE ENERGY PREDICTED BY IDOCK:   -1.66 KCAL/MOL
REMARK 924 INTRA-LIGAND FREE ENERGY PREDICTED BY IDOCK:   -0.20 KCAL/MOL
REMARK 927      BINDING AFFINITY PREDICTED BY RF-SCORE:    0.00 PKD
ROOT
HETATM    1  C   UNL     1     -10.366   4.428  65.268  1.00  0.00    -0.198 C  
HETATM    2  N   UNL     1      -9.635   5.686  65.342  1.00  0.00    -0.356 NA 
HETATM    3  H   UNL     1     -10.009   6.362  64.676  1.00  0.00     0.000 HD 
ENDROOT
BRANCH   2   4
HETATM    4  C   UNL     1      -9.594   6.256  66.701  1.00  0.00    -0.157 C  
HETATM    5  C   UNL     1     -10.971   6.778  67.137  1.00  0.00    -0.458 C  
BRANCH   4   6
HETATM    6  C   UNL     1      -8.530   7.387  66.725  1.00  0.00    -0.124 C  
BRANCH   6   7
HETATM    7  C   UNL     1      -7.600   7.303  67.916  1.00  0.00    -0.111 A  
HETATM    8  C   UNL     1      -6.699   8.341  68.189  1.00  0.00    -0.065 A  
HETATM    9  C   UNL     1      -5.764   8.213  69.215  1.00  0.00    -0.031 A  
HETATM   10  C   UNL     1      -5.730   7.054  69.987  1.00  0.00    -0.023 A  
HETATM   11  C   UNL     1      -6.645   6.031  69.749  1.00  0.00    -0.047 A  
HETATM   12  C   UNL     1      -7.580   6.155  68.720  1.00  0.00    -0.092 A  
ENDBRANCH   6   7
ENDBRANCH   4   6
ENDBRANCH   2   4
TORSDOF 3
ENDMDL
MODEL      242
REMARK 921   NORMALIZED FREE ENERGY PREDICTED BY IDOCK:   -1.38 KCAL/MOL
REMARK 922        TOTAL FREE ENERGY PREDICTED BY IDOCK:   -1.85 KCAL/MOL
REMARK 923 INTER-LIGAND FREE ENERGY PREDICTED BY IDOCK:   -1.60 KCAL/MOL
REMARK 924 INTRA-LIGAND FREE ENERGY PREDICTED BY IDOCK:   -0.25 KCAL/MOL
REMARK 927      BINDING AFFINITY PREDICTED BY RF-SCORE:    0.00 PKD
ROOT
HETATM    1  C   UNL     1      -7.271   1.783  69.834  1.00  0.00    -0.033 C  
HETATM    2  N   UNL     1      -6.520   3.029  69.767  1.00  0.00    -0.032 NA 
HETATM    3  H   UNL     1      -6.265   3.247  68.804  1.00  0.00     0.000 HD 
ENDROOT
BRANCH   2   4
HETATM    4  C   UNL     1      -7.221   4.165  70.394  1.00  0.00    -0.041 C  
HETATM    5  C   UNL     1      -6.283   5.364  70.603  1.00  0.00    -0.026 C  
BRANCH   4   6
HETATM    6  C   UNL     1      -7.827   3.683  71.740  1.00  0.00    -0.062 C  
BRANCH   6   7
HETATM    7  C   UNL     1      -9.176   4.298  72.038  1.00  0.00    -0.169 A  
HETATM    8  C   UNL     1      -9.926   4.898  71.017  1.00  0.00    -0.282 A  
HETATM    9  C   UNL     1     -11.113   5.567  71.311  1.00  0.00    -0.134 A  
HETATM   10  C   UNL     1     -11.571   5.628  72.626  1.00  0.00    -0.307 A  
HETATM   11  C   UNL     1     -10.854   5.004  73.644  1.00  0.00    -0.369 A  
HETATM   12  C   UNL     1      -9.664   4.337  73.352  1.00  0.00    -0.148 A  
ENDBRANCH   6   7
ENDBRANCH   4   6
ENDBRANCH   2   4
TORSDOF 3
ENDMDL
MODEL      243
REMARK 921   NORMALIZED FREE ENERGY PREDICTED BY IDOCK:   -1.38 KCAL/MOL
REMARK 922        TOTAL FREE ENERGY PREDICTED BY IDOCK:   -1.85 KCAL/MOL
REMARK 923 INTER-LIGAND FREE ENERGY PREDICTED BY IDOCK:   -1.67 KCAL/MOL
REMARK 924 INTRA-LIGAND FREE ENERGY PREDICTED BY IDOCK:   -0.17 KCAL/MOL
REMARK 927      BINDING AFFINITY PREDICTED BY RF-SCORE:    0.00 PKD
ROOT
HETATM    1  C   UNL     1      -8.498   9.299  67.266  1.00  0.00    -0.125 C  
HETATM    2  N   UNL     1      -9.097   8.801  68.497  1.00  0.00    -0.138 NA 
HETATM    3  H   UNL     1      -9.990   9.260  68.677  1.00  0.00     0.000 HD 
ENDROOT
BRANCH   2   4
HETATM    4  C   UNL     1      -9.246   7.335  68.521  1.00  0.00    -0.138 C  
HETATM    5  C   UNL     1      -9.774   6.798  67.181  1.00  0.00    -0.191 C  
BRANCH   4   6
HETATM    6  C   UNL     1     -10.195   6.958  69.691  1.00  0.00    -0.206 C  
BRANCH   6   7
HETATM    7  C   UNL     1      -9.459   6.659  70.979  1.00  0.00    -0.168 A  
HETATM    8  C   UNL     1      -8.520   5.620  71.037  1.00  0.00    -0.122 A  
HETATM    9  C   UNL     1      -7.930   5.268  72.250  1.00  0.00    -0.106 A  
HETATM   10  C   UNL     1      -8.259   5.961  73.413  1.00  0.00    -0.115 A  
HETATM   11  C   UNL     1      -9.163   7.020  73.361  1.00  0.00    -0.183 A  
HETATM   12  C   UNL     1      -9.758   7.372  72.149  1.00  0.00    -0.182 A  
ENDBRANCH   6   7
ENDBRANCH   4   6
ENDBRANCH   2   4
TORSDOF 3
ENDMDL
MODEL      244
REMARK 921   NORMALIZED FREE ENERGY PREDICTED BY IDOCK:   -1.38 KCAL/MOL
REMARK 922        TOTAL FREE ENERGY PREDICTED BY IDOCK:   -1.84 KCAL/MOL
REMARK 923 INTER-LIGAND FREE ENERGY PREDICTED BY IDOCK:   -1.64 KCAL/MOL
REMARK 924 INTRA-LIGAND FREE ENERGY PREDICTED BY IDOCK:   -0.21 KCAL/MOL
REMARK 927      BINDING AFFINITY PREDICTED BY RF-SCORE:    0.00 PKD
ROOT
HETATM    1  C   UNL     1      -8.622   4.967  64.120  1.00  0.00    -0.125 C  
HETATM    2  N   UNL     1      -8.626   5.144  65.566  1.00  0.00    -0.137 NA 
HETATM    3  H   UNL     1      -7.871   4.611  65.999  1.00  0.00     0.000 HD 
ENDROOT
BRANCH   2   4
HETATM    4  C   UNL     1      -8.574   6.558  65.980  1.00  0.00    -0.148 C  
HETATM    5  C   UNL     1      -7.911   7.437  64.909  1.00  0.00    -0.125 C  
BRANCH   4   6
HETATM    6  C   UNL     1      -7.813   6.645  67.331  1.00  0.00    -0.113 C  
BRANCH   6   7
HETATM    7  C   UNL     1      -8.398   7.669  68.278  1.00  0.00    -0.125 A  
HETATM    8  C   UNL     1      -9.720   7.548  68.728  1.00  0.00    -0.151 A  
HETATM    9  C   UNL     1     -10.296   8.552  69.505  1.00  0.00    -0.218 A  
HETATM   10  C   UNL     1      -9.551   9.677  69.855  1.00  0.00    -0.260 A  
HETATM   11  C   UNL     1      -8.225   9.790  69.444  1.00  0.00    -0.135 A  
HETATM   12  C   UNL     1      -7.647   8.790  68.663  1.00  0.00    -0.097 A  
ENDBRANCH   6   7
ENDBRANCH   4   6
ENDBRANCH   2   4
TORSDOF 3
ENDMDL
MODEL      245
REMARK 921   NORMALIZED FREE ENERGY PREDICTED BY IDOCK:   -1.35 KCAL/MOL
REMARK 922        TOTAL FREE ENERGY PREDICTED BY IDOCK:   -1.81 KCAL/MOL
REMARK 923 INTER-LIGAND FREE ENERGY PREDICTED BY IDOCK:   -1.83 KCAL/MOL
REMARK 924 INTRA-LIGAND FREE ENERGY PREDICTED BY IDOCK:    0.02 KCAL/MOL
REMARK 927      BINDING AFFINITY PREDICTED BY RF-SCORE:    0.00 PKD
ROOT
HETATM    1  C   UNL     1      -8.122   7.608  65.248  1.00  0.00    -0.133 C  
HETATM    2  N   UNL     1      -9.371   6.898  65.487  1.00  0.00    -0.277 NA 
HETATM    3  H   UNL     1      -9.231   5.889  65.433  1.00  0.00     0.000 HD 
ENDROOT
BRANCH   2   4
HETATM    4  C   UNL     1     -10.017   7.270  66.759  1.00  0.00    -0.217 C  
HETATM    5  C   UNL     1     -10.281   8.781  66.840  1.00  0.00    -0.357 C  
BRANCH   4   6
HETATM    6  C   UNL     1      -9.110   6.793  67.926  1.00  0.00    -0.114 C  
BRANCH   6   7
HETATM    7  C   UNL     1      -8.726   5.333  67.822  1.00  0.00    -0.103 A  
HETATM    8  C   UNL     1      -9.692   4.364  67.515  1.00  0.00    -0.211 A  
HETATM    9  C   UNL     1      -9.364   3.009  67.535  1.00  0.00    -0.229 A  
HETATM   10  C   UNL     1      -8.065   2.611  67.844  1.00  0.00    -0.069 A  
HETATM   11  C   UNL     1      -7.088   3.567  68.113  1.00  0.00    -0.051 A  
HETATM   12  C   UNL     1      -7.414   4.923  68.099  1.00  0.00    -0.074 A  
ENDBRANCH   6   7
ENDBRANCH   4   6
ENDBRANCH   2   4
TORSDOF 3
ENDMDL
MODEL      246
REMARK 921   NORMALIZED FREE ENERGY PREDICTED BY IDOCK:   -1.34 KCAL/MOL
REMARK 922        TOTAL FREE ENERGY PREDICTED BY IDOCK:   -1.80 KCAL/MOL
REMARK 923 INTER-LIGAND FREE ENERGY PREDICTED BY IDOCK:   -1.57 KCAL/MOL
REMARK 924 INTRA-LIGAND FREE ENERGY PREDICTED BY IDOCK:   -0.23 KCAL/MOL
REMARK 927      BINDING AFFINITY PREDICTED BY RF-SCORE:    0.00 PKD
ROOT
HETATM    1  C   UNL     1      -9.872   2.297  73.796  1.00  0.00    -0.091 C  
HETATM    2  N   UNL     1     -10.757   3.359  73.337  1.00  0.00    -0.192 NA 
HETATM    3  H   UNL     1     -11.480   3.553  74.029  1.00  0.00     0.000 HD 
ENDROOT
BRANCH   2   4
HETATM    4  C   UNL     1     -10.040   4.594  72.968  1.00  0.00    -0.162 C  
HETATM    5  C   UNL     1     -10.466   5.780  73.848  1.00  0.00    -0.295 C  
BRANCH   4   6
HETATM    6  C   UNL     1     -10.307   4.884  71.466  1.00  0.00    -0.228 C  
BRANCH   6   7
HETATM    7  C   UNL     1      -9.040   5.110  70.671  1.00  0.00    -0.178 A  
HETATM    8  C   UNL     1      -7.785   5.014  71.289  1.00  0.00    -0.092 A  
HETATM    9  C   UNL     1      -6.625   5.337  70.587  1.00  0.00    -0.038 A  
HETATM   10  C   UNL     1      -6.705   5.743  69.256  1.00  0.00    -0.060 A  
HETATM   11  C   UNL     1      -7.943   5.806  68.620  1.00  0.00    -0.101 A  
HETATM   12  C   UNL     1      -9.106   5.487  69.322  1.00  0.00    -0.132 A  
ENDBRANCH   6   7
ENDBRANCH   4   6
ENDBRANCH   2   4
TORSDOF 3
ENDMDL
MODEL      247
REMARK 921   NORMALIZED FREE ENERGY PREDICTED BY IDOCK:   -1.33 KCAL/MOL
REMARK 922        TOTAL FREE ENERGY PREDICTED BY IDOCK:   -1.79 KCAL/MOL
REMARK 923 INTER-LIGAND FREE ENERGY PREDICTED BY IDOCK:   -1.81 KCAL/MOL
REMARK 924 INTRA-LIGAND FREE ENERGY PREDICTED BY IDOCK:    0.02 KCAL/MOL
REMARK 927      BINDING AFFINITY PREDICTED BY RF-SCORE:    0.00 PKD
ROOT
HETATM    1  C   UNL     1      -8.225   6.946  65.511  1.00  0.00    -0.135 C  
HETATM    2  N   UNL     1      -8.506   7.407  64.158  1.00  0.00    -0.358 NA 
HETATM    3  H   UNL     1      -9.281   6.884  63.750  1.00  0.00     0.000 HD 
ENDROOT
BRANCH   2   4
HETATM    4  C   UNL     1      -8.753   8.858  64.077  1.00  0.00    -0.038 C  
HETATM    5  C   UNL     1      -7.455   9.663  64.243  1.00  0.00    -0.125 C  
BRANCH   4   6
HETATM    6  C   UNL     1      -9.794   9.238  65.165  1.00  0.00     0.152 C  
BRANCH   6   7
HETATM    7  C   UNL     1      -9.519  10.579  65.809  1.00  0.00    -0.249 A  
HETATM    8  C   UNL     1      -8.847  10.653  67.037  1.00  0.00    -0.141 A  
HETATM    9  C   UNL     1      -8.697  11.878  67.687  1.00  0.00    -0.162 A  
HETATM   10  C   UNL     1      -9.201  13.041  67.108  1.00  0.00    -0.226 A  
HETATM   11  C   UNL     1      -9.837  12.984  65.870  1.00  0.00    -0.243 A  
HETATM   12  C   UNL     1      -9.992  11.760  65.219  1.00  0.00    -0.284 A  
ENDBRANCH   6   7
ENDBRANCH   4   6
ENDBRANCH   2   4
TORSDOF 3
ENDMDL
MODEL      248
REMARK 921   NORMALIZED FREE ENERGY PREDICTED BY IDOCK:   -1.30 KCAL/MOL
REMARK 922        TOTAL FREE ENERGY PREDICTED BY IDOCK:   -1.76 KCAL/MOL
REMARK 923 INTER-LIGAND FREE ENERGY PREDICTED BY IDOCK:   -1.95 KCAL/MOL
REMARK 924 INTRA-LIGAND FREE ENERGY PREDICTED BY IDOCK:    0.19 KCAL/MOL
REMARK 927      BINDING AFFINITY PREDICTED BY RF-SCORE:    0.00 PKD
ROOT
HETATM    1  C   UNL     1      -9.234   8.865  67.188  1.00  0.00    -0.139 C  
HETATM    2  N   UNL     1      -8.978   7.870  68.220  1.00  0.00    -0.133 NA 
HETATM    3  H   UNL     1      -8.018   7.936  68.558  1.00  0.00     0.000 HD 
ENDROOT
BRANCH   2   4
HETATM    4  C   UNL     1      -9.934   7.936  69.341  1.00  0.00    -0.189 C  
HETATM    5  C   UNL     1      -9.230   8.263  70.667  1.00  0.00    -0.167 C  
BRANCH   4   6
HETATM    6  C   UNL     1     -10.686   6.580  69.423  1.00  0.00    -0.328 C  
BRANCH   6   7
HETATM    7  C   UNL     1      -9.913   5.515  70.170  1.00  0.00    -0.287 A  
HETATM    8  C   UNL     1      -9.983   5.435  71.568  1.00  0.00    -0.237 A  
HETATM    9  C   UNL     1      -9.181   4.532  72.264  1.00  0.00    -0.157 A  
HETATM   10  C   UNL     1      -8.316   3.689  71.570  1.00  0.00    -0.081 A  
HETATM   11  C   UNL     1      -8.265   3.733  70.179  1.00  0.00    -0.072 A  
HETATM   12  C   UNL     1      -9.063   4.639  69.479  1.00  0.00    -0.163 A  
ENDBRANCH   6   7
ENDBRANCH   4   6
ENDBRANCH   2   4
TORSDOF 3
ENDMDL
MODEL      249
REMARK 921   NORMALIZED FREE ENERGY PREDICTED BY IDOCK:   -1.26 KCAL/MOL
REMARK 922        TOTAL FREE ENERGY PREDICTED BY IDOCK:   -1.70 KCAL/MOL
REMARK 923 INTER-LIGAND FREE ENERGY PREDICTED BY IDOCK:   -1.56 KCAL/MOL
REMARK 924 INTRA-LIGAND FREE ENERGY PREDICTED BY IDOCK:   -0.15 KCAL/MOL
REMARK 927      BINDING AFFINITY PREDICTED BY RF-SCORE:    0.00 PKD
ROOT
HETATM    1  C   UNL     1      -7.326  10.304  66.076  1.00  0.00    -0.129 C  
HETATM    2  N   UNL     1      -8.303   9.236  65.912  1.00  0.00    -0.115 NA 
HETATM    3  H   UNL     1      -7.862   8.396  65.540  1.00  0.00     0.000 HD 
ENDROOT
BRANCH   2   4
HETATM    4  C   UNL     1      -9.047   8.935  67.149  1.00  0.00    -0.138 C  
HETATM    5  C   UNL     1      -9.158  10.168  68.058  1.00  0.00    -0.131 C  
BRANCH   4   6
HETATM    6  C   UNL     1      -8.334   7.762  67.875  1.00  0.00    -0.123 C  
BRANCH   6   7
HETATM    7  C   UNL     1      -8.819   7.558  69.293  1.00  0.00    -0.136 A  
HETATM    8  C   UNL     1      -7.969   7.813  70.379  1.00  0.00    -0.095 A  
HETATM    9  C   UNL     1      -8.375   7.514  71.679  1.00  0.00    -0.114 A  
HETATM   10  C   UNL     1      -9.639   6.975  71.908  1.00  0.00    -0.159 A  
HETATM   11  C   UNL     1     -10.507   6.752  70.841  1.00  0.00    -0.239 A  
HETATM   12  C   UNL     1     -10.101   7.046  69.538  1.00  0.00    -0.179 A  
ENDBRANCH   6   7
ENDBRANCH   4   6
ENDBRANCH   2   4
TORSDOF 3
ENDMDL
MODEL      250
REMARK 921   NORMALIZED FREE ENERGY PREDICTED BY IDOCK:   -1.23 KCAL/MOL
REMARK 922        TOTAL FREE ENERGY PREDICTED BY IDOCK:   -1.67 KCAL/MOL
REMARK 923 INTER-LIGAND FREE ENERGY PREDICTED BY IDOCK:   -1.55 KCAL/MOL
REMARK 924 INTRA-LIGAND FREE ENERGY PREDICTED BY IDOCK:   -0.12 KCAL/MOL
REMARK 927      BINDING AFFINITY PREDICTED BY RF-SCORE:    0.00 PKD
ROOT
HETATM    1  C   UNL     1      -8.587   5.247  72.270  1.00  0.00    -0.126 C  
HETATM    2  N   UNL     1      -8.538   5.626  70.864  1.00  0.00    -0.127 NA 
HETATM    3  H   UNL     1      -8.889   4.872  70.274  1.00  0.00     0.000 HD 
ENDROOT
BRANCH   2   4
HETATM    4  C   UNL     1      -9.242   6.889  70.577  1.00  0.00    -0.156 C  
HETATM    5  C   UNL     1     -10.378   7.144  71.579  1.00  0.00    -0.218 C  
BRANCH   4   6
HETATM    6  C   UNL     1      -9.778   6.829  69.121  1.00  0.00    -0.147 C  
BRANCH   6   7
HETATM    7  C   UNL     1      -8.898   7.562  68.133  1.00  0.00    -0.127 A  
HETATM    8  C   UNL     1      -7.600   7.953  68.490  1.00  0.00    -0.105 A  
HETATM    9  C   UNL     1      -6.832   8.729  67.623  1.00  0.00    -0.071 A  
HETATM   10  C   UNL     1      -7.347   9.109  66.386  1.00  0.00    -0.092 A  
HETATM   11  C   UNL     1      -8.622   8.696  66.005  1.00  0.00    -0.173 A  
HETATM   12  C   UNL     1      -9.394   7.922  66.872  1.00  0.00    -0.209 A  
ENDBRANCH   6   7
ENDBRANCH   4   6
ENDBRANCH   2   4
TORSDOF 3
ENDMDL
MODEL      251
REMARK 921   NORMALIZED FREE ENERGY PREDICTED BY IDOCK:   -1.22 KCAL/MOL
REMARK 922        TOTAL FREE ENERGY PREDICTED BY IDOCK:   -1.66 KCAL/MOL
REMARK 923 INTER-LIGAND FREE ENERGY PREDICTED BY IDOCK:   -1.44 KCAL/MOL
REMARK 924 INTRA-LIGAND FREE ENERGY PREDICTED BY IDOCK:   -0.23 KCAL/MOL
REMARK 927      BINDING AFFINITY PREDICTED BY RF-SCORE:    0.00 PKD
ROOT
HETATM    1  C   UNL     1      -7.100   1.658  69.996  1.00  0.00    -0.033 C  
HETATM    2  N   UNL     1      -6.254   2.528  70.802  1.00  0.00    -0.019 NA 
HETATM    3  H   UNL     1      -6.092   3.416  70.328  1.00  0.00     0.000 HD 
ENDROOT
BRANCH   2   4
HETATM    4  C   UNL     1      -6.777   2.748  72.163  1.00  0.00    -0.015 C  
HETATM    5  C   UNL     1      -6.095   1.829  73.187  1.00  0.00    -0.008 C  
BRANCH   4   6
HETATM    6  C   UNL     1      -8.313   2.523  72.139  1.00  0.00    -0.060 C  
BRANCH   6   7
HETATM    7  C   UNL     1      -9.090   3.656  72.773  1.00  0.00    -0.119 A  
HETATM    8  C   UNL     1     -10.485   3.583  72.892  1.00  0.00    -0.239 A  
HETATM    9  C   UNL     1     -11.211   4.674  73.367  1.00  0.00    -0.423 A  
HETATM   10  C   UNL     1     -10.550   5.841  73.745  1.00  0.00    -0.285 A  
HETATM   11  C   UNL     1      -9.161   5.911  73.667  1.00  0.00    -0.130 A  
HETATM   12  C   UNL     1      -8.432   4.823  73.187  1.00  0.00    -0.103 A  
ENDBRANCH   6   7
ENDBRANCH   4   6
ENDBRANCH   2   4
TORSDOF 3
ENDMDL
MODEL      252
REMARK 921   NORMALIZED FREE ENERGY PREDICTED BY IDOCK:   -1.18 KCAL/MOL
REMARK 922        TOTAL FREE ENERGY PREDICTED BY IDOCK:   -1.62 KCAL/MOL
REMARK 923 INTER-LIGAND FREE ENERGY PREDICTED BY IDOCK:   -1.60 KCAL/MOL
REMARK 924 INTRA-LIGAND FREE ENERGY PREDICTED BY IDOCK:   -0.02 KCAL/MOL
REMARK 927      BINDING AFFINITY PREDICTED BY RF-SCORE:    0.00 PKD
ROOT
HETATM    1  C   UNL     1      -7.614   9.672  63.649  1.00  0.00    -0.124 C  
HETATM    2  N   UNL     1      -6.638   8.746  64.207  1.00  0.00    -0.071 NA 
HETATM    3  H   UNL     1      -6.705   8.717  65.224  1.00  0.00     0.000 HD 
ENDROOT
BRANCH   2   4
HETATM    4  C   UNL     1      -6.732   7.389  63.637  1.00  0.00    -0.053 C  
HETATM    5  C   UNL     1      -7.975   7.233  62.748  1.00  0.00    -0.113 C  
BRANCH   4   6
HETATM    6  C   UNL     1      -6.744   6.368  64.807  1.00  0.00    -0.039 C  
BRANCH   6   7
HETATM    7  C   UNL     1      -8.133   6.091  65.340  1.00  0.00    -0.132 A  
HETATM    8  C   UNL     1      -8.686   6.905  66.338  1.00  0.00    -0.147 A  
HETATM    9  C   UNL     1      -9.915   6.582  66.912  1.00  0.00    -0.227 A  
HETATM   10  C   UNL     1     -10.610   5.453  66.482  1.00  0.00    -0.353 A  
HETATM   11  C   UNL     1     -10.088   4.658  65.464  1.00  0.00    -0.204 A  
HETATM   12  C   UNL     1      -8.856   4.977  64.892  1.00  0.00    -0.140 A  
ENDBRANCH   6   7
ENDBRANCH   4   6
ENDBRANCH   2   4
TORSDOF 3
ENDMDL
MODEL      253
REMARK 921   NORMALIZED FREE ENERGY PREDICTED BY IDOCK:   -1.18 KCAL/MOL
REMARK 922        TOTAL FREE ENERGY PREDICTED BY IDOCK:   -1.61 KCAL/MOL
REMARK 923 INTER-LIGAND FREE ENERGY PREDICTED BY IDOCK:   -1.75 KCAL/MOL
REMARK 924 INTRA-LIGAND FREE ENERGY PREDICTED BY IDOCK:    0.14 KCAL/MOL
REMARK 927      BINDING AFFINITY PREDICTED BY RF-SCORE:    0.00 PKD
ROOT
HETATM    1  C   UNL     1      -7.634  10.365  63.404  1.00  0.00    -0.059 C  
HETATM    2  N   UNL     1      -7.023  10.014  64.680  1.00  0.00    -0.134 NA 
HETATM    3  H   UNL     1      -7.403  10.587  65.433  1.00  0.00     0.000 HD 
ENDROOT
BRANCH   2   4
HETATM    4  C   UNL     1      -7.135   8.580  65.004  1.00  0.00    -0.079 C  
HETATM    5  C   UNL     1      -7.891   7.810  63.911  1.00  0.00    -0.126 C  
BRANCH   4   6
HETATM    6  C   UNL     1      -7.841   8.444  66.380  1.00  0.00    -0.098 C  
BRANCH   6   7
HETATM    7  C   UNL     1      -8.652   9.665  66.755  1.00  0.00    -0.140 A  
HETATM    8  C   UNL     1      -9.929   9.866  66.212  1.00  0.00    -0.322 A  
HETATM    9  C   UNL     1     -10.626  11.046  66.466  1.00  0.00    -0.310 A  
HETATM   10  C   UNL     1     -10.063  12.029  67.277  1.00  0.00    -0.208 A  
HETATM   11  C   UNL     1      -8.811  11.824  67.852  1.00  0.00    -0.165 A  
HETATM   12  C   UNL     1      -8.109  10.646  67.597  1.00  0.00    -0.107 A  
ENDBRANCH   6   7
ENDBRANCH   4   6
ENDBRANCH   2   4
TORSDOF 3
ENDMDL
MODEL      254
REMARK 921   NORMALIZED FREE ENERGY PREDICTED BY IDOCK:   -1.08 KCAL/MOL
REMARK 922        TOTAL FREE ENERGY PREDICTED BY IDOCK:   -1.50 KCAL/MOL
REMARK 923 INTER-LIGAND FREE ENERGY PREDICTED BY IDOCK:   -2.14 KCAL/MOL
REMARK 924 INTRA-LIGAND FREE ENERGY PREDICTED BY IDOCK:    0.64 KCAL/MOL
REMARK 927      BINDING AFFINITY PREDICTED BY RF-SCORE:    0.00 PKD
ROOT
HETATM    1  C   UNL     1      -9.889   8.144  66.700  1.00  0.00    -0.261 C  
HETATM    2  N   UNL     1      -9.578   8.897  65.492  1.00  0.00    -0.459 NA 
HETATM    3  H   UNL     1      -9.950   8.427  64.666  1.00  0.00     0.000 HD 
ENDROOT
BRANCH   2   4
HETATM    4  C   UNL     1     -10.032  10.298  65.547  1.00  0.00    -0.296 C  
HETATM    5  C   UNL     1     -10.319  10.856  64.144  1.00  0.00    -0.432 C  
BRANCH   4   6
HETATM    6  C   UNL     1      -8.946  11.136  66.274  1.00  0.00    -0.202 C  
BRANCH   6   7
HETATM    7  C   UNL     1      -7.621  10.416  66.393  1.00  0.00    -0.123 A  
HETATM    8  C   UNL     1      -6.923  10.017  65.244  1.00  0.00    -0.132 A  
HETATM    9  C   UNL     1      -5.763   9.251  65.353  1.00  0.00    -0.057 A  
HETATM   10  C   UNL     1      -5.280   8.892  66.610  1.00  0.00    -0.038 A  
HETATM   11  C   UNL     1      -5.944   9.315  67.759  1.00  0.00    -0.053 A  
HETATM   12  C   UNL     1      -7.108  10.077  67.653  1.00  0.00    -0.087 A  
ENDBRANCH   6   7
ENDBRANCH   4   6
ENDBRANCH   2   4
TORSDOF 3
ENDMDL
MODEL      255
REMARK 921   NORMALIZED FREE ENERGY PREDICTED BY IDOCK:   -1.04 KCAL/MOL
REMARK 922        TOTAL FREE ENERGY PREDICTED BY IDOCK:   -1.45 KCAL/MOL
REMARK 923 INTER-LIGAND FREE ENERGY PREDICTED BY IDOCK:   -1.60 KCAL/MOL
REMARK 924 INTRA-LIGAND FREE ENERGY PREDICTED BY IDOCK:    0.16 KCAL/MOL
REMARK 927      BINDING AFFINITY PREDICTED BY RF-SCORE:    0.00 PKD
ROOT
HETATM    1  C   UNL     1      -8.704   7.028  65.460  1.00  0.00    -0.025 C  
HETATM    2  N   UNL     1      -8.284   5.880  66.253  1.00  0.00    -0.111 NA 
HETATM    3  H   UNL     1      -7.614   5.309  65.737  1.00  0.00     0.000 HD 
ENDROOT
BRANCH   2   4
HETATM    4  C   UNL     1      -7.747   6.251  67.575  1.00  0.00    -0.101 C  
HETATM    5  C   UNL     1      -8.534   5.584  68.713  1.00  0.00    -0.101 C  
BRANCH   4   6
HETATM    6  C   UNL     1      -7.781   7.799  67.699  1.00  0.00    -0.121 C  
BRANCH   6   7
HETATM    7  C   UNL     1      -8.350   8.278  69.017  1.00  0.00    -0.120 A  
HETATM    8  C   UNL     1      -7.602   8.165  70.197  1.00  0.00    -0.077 A  
HETATM    9  C   UNL     1      -8.168   8.496  71.427  1.00  0.00    -0.186 A  
HETATM   10  C   UNL     1      -9.481   8.960  71.487  1.00  0.00    -0.347 A  
HETATM   11  C   UNL     1     -10.221   9.111  70.317  1.00  0.00    -0.253 A  
HETATM   12  C   UNL     1      -9.658   8.776  69.085  1.00  0.00    -0.162 A  
ENDBRANCH   6   7
ENDBRANCH   4   6
ENDBRANCH   2   4
TORSDOF 3
ENDMDL
MODEL      256
REMARK 921   NORMALIZED FREE ENERGY PREDICTED BY IDOCK:   -1.01 KCAL/MOL
REMARK 922        TOTAL FREE ENERGY PREDICTED BY IDOCK:   -1.42 KCAL/MOL
REMARK 923 INTER-LIGAND FREE ENERGY PREDICTED BY IDOCK:   -1.67 KCAL/MOL
REMARK 924 INTRA-LIGAND FREE ENERGY PREDICTED BY IDOCK:    0.25 KCAL/MOL
REMARK 927      BINDING AFFINITY PREDICTED BY RF-SCORE:    0.00 PKD
ROOT
HETATM    1  C   UNL     1      -8.230   7.534  66.872  1.00  0.00    -0.124 C  
HETATM    2  N   UNL     1      -9.172   6.521  67.331  1.00  0.00    -0.121 NA 
HETATM    3  H   UNL     1      -9.045   5.649  66.818  1.00  0.00     0.000 HD 
ENDROOT
BRANCH   2   4
HETATM    4  C   UNL     1      -9.111   6.287  68.785  1.00  0.00    -0.127 C  
HETATM    5  C   UNL     1      -7.719   5.812  69.225  1.00  0.00    -0.089 C  
BRANCH   4   6
HETATM    6  C   UNL     1     -10.205   5.250  69.160  1.00  0.00    -0.281 C  
BRANCH   6   7
HETATM    7  C   UNL     1      -9.640   3.985  69.768  1.00  0.00    -0.280 A  
HETATM    8  C   UNL     1      -9.593   2.798  69.024  1.00  0.00    -0.049 A  
HETATM    9  C   UNL     1      -9.183   1.606  69.620  1.00  0.00    -0.163 A  
HETATM   10  C   UNL     1      -8.800   1.593  70.960  1.00  0.00    -0.108 A  
HETATM   11  C   UNL     1      -8.808   2.774  71.699  1.00  0.00    -0.124 A  
HETATM   12  C   UNL     1      -9.222   3.966  71.106  1.00  0.00    -0.201 A  
ENDBRANCH   6   7
ENDBRANCH   4   6
ENDBRANCH   2   4
TORSDOF 3
ENDMDL
MODEL      257
REMARK 921   NORMALIZED FREE ENERGY PREDICTED BY IDOCK:   -1.01 KCAL/MOL
REMARK 922        TOTAL FREE ENERGY PREDICTED BY IDOCK:   -1.41 KCAL/MOL
REMARK 923 INTER-LIGAND FREE ENERGY PREDICTED BY IDOCK:   -1.17 KCAL/MOL
REMARK 924 INTRA-LIGAND FREE ENERGY PREDICTED BY IDOCK:   -0.25 KCAL/MOL
REMARK 927      BINDING AFFINITY PREDICTED BY RF-SCORE:    0.00 PKD
ROOT
HETATM    1  C   UNL     1      -8.207   7.138  65.489  1.00  0.00    -0.139 C  
HETATM    2  N   UNL     1      -8.500   5.719  65.644  1.00  0.00    -0.144 NA 
HETATM    3  H   UNL     1      -7.747   5.149  65.259  1.00  0.00     0.000 HD 
ENDROOT
BRANCH   2   4
HETATM    4  C   UNL     1      -8.790   5.334  67.037  1.00  0.00    -0.109 C  
HETATM    5  C   UNL     1     -10.068   4.487  67.136  1.00  0.00    -0.160 C  
BRANCH   4   6
HETATM    6  C   UNL     1      -8.905   6.628  67.888  1.00  0.00    -0.115 C  
BRANCH   6   7
HETATM    7  C   UNL     1      -8.072   6.585  69.150  1.00  0.00    -0.112 A  
HETATM    8  C   UNL     1      -6.681   6.419  69.078  1.00  0.00    -0.053 A  
HETATM    9  C   UNL     1      -5.928   6.262  70.241  1.00  0.00    -0.026 A  
HETATM   10  C   UNL     1      -6.554   6.286  71.486  1.00  0.00    -0.054 A  
HETATM   11  C   UNL     1      -7.930   6.488  71.571  1.00  0.00    -0.104 A  
HETATM   12  C   UNL     1      -8.686   6.641  70.409  1.00  0.00    -0.151 A  
ENDBRANCH   6   7
ENDBRANCH   4   6
ENDBRANCH   2   4
TORSDOF 3
ENDMDL
MODEL      258
REMARK 921   NORMALIZED FREE ENERGY PREDICTED BY IDOCK:   -0.99 KCAL/MOL
REMARK 922        TOTAL FREE ENERGY PREDICTED BY IDOCK:   -1.39 KCAL/MOL
REMARK 923 INTER-LIGAND FREE ENERGY PREDICTED BY IDOCK:   -1.17 KCAL/MOL
REMARK 924 INTRA-LIGAND FREE ENERGY PREDICTED BY IDOCK:   -0.22 KCAL/MOL
REMARK 927      BINDING AFFINITY PREDICTED BY RF-SCORE:    0.00 PKD
ROOT
HETATM    1  C   UNL     1      -8.291   8.148  67.345  1.00  0.00    -0.122 C  
HETATM    2  N   UNL     1      -8.533   6.842  67.944  1.00  0.00    -0.120 NA 
HETATM    3  H   UNL     1      -8.161   6.098  67.354  1.00  0.00     0.000 HD 
ENDROOT
BRANCH   2   4
HETATM    4  C   UNL     1      -8.015   6.728  69.320  1.00  0.00    -0.115 C  
HETATM    5  C   UNL     1      -6.625   7.370  69.456  1.00  0.00    -0.037 C  
BRANCH   4   6
HETATM    6  C   UNL     1      -7.981   5.225  69.707  1.00  0.00    -0.080 C  
BRANCH   6   7
HETATM    7  C   UNL     1      -8.399   4.970  71.139  1.00  0.00    -0.115 A  
HETATM    8  C   UNL     1      -9.405   5.743  71.734  1.00  0.00    -0.163 A  
HETATM    9  C   UNL     1      -9.708   5.588  73.086  1.00  0.00    -0.162 A  
HETATM   10  C   UNL     1      -9.021   4.648  73.851  1.00  0.00    -0.106 A  
HETATM   11  C   UNL     1      -8.045   3.848  73.261  1.00  0.00    -0.088 A  
HETATM   12  C   UNL     1      -7.737   4.004  71.910  1.00  0.00    -0.067 A  
ENDBRANCH   6   7
ENDBRANCH   4   6
ENDBRANCH   2   4
TORSDOF 3
ENDMDL
MODEL      259
REMARK 921   NORMALIZED FREE ENERGY PREDICTED BY IDOCK:   -0.96 KCAL/MOL
REMARK 922        TOTAL FREE ENERGY PREDICTED BY IDOCK:   -1.36 KCAL/MOL
REMARK 923 INTER-LIGAND FREE ENERGY PREDICTED BY IDOCK:   -1.11 KCAL/MOL
REMARK 924 INTRA-LIGAND FREE ENERGY PREDICTED BY IDOCK:   -0.25 KCAL/MOL
REMARK 927      BINDING AFFINITY PREDICTED BY RF-SCORE:    0.00 PKD
ROOT
HETATM    1  C   UNL     1      -6.972   9.439  63.343  1.00  0.00    -0.097 C  
HETATM    2  N   UNL     1      -6.564   8.391  64.270  1.00  0.00    -0.067 NA 
HETATM    3  H   UNL     1      -6.832   8.628  65.225  1.00  0.00     0.000 HD 
ENDROOT
BRANCH   2   4
HETATM    4  C   UNL     1      -7.069   7.057  63.899  1.00  0.00    -0.061 C  
HETATM    5  C   UNL     1      -7.861   7.097  62.583  1.00  0.00    -0.135 C  
BRANCH   4   6
HETATM    6  C   UNL     1      -7.943   6.523  65.066  1.00  0.00    -0.121 C  
BRANCH   6   7
HETATM    7  C   UNL     1      -8.234   5.041  64.961  1.00  0.00    -0.133 A  
HETATM    8  C   UNL     1      -7.194   4.126  64.745  1.00  0.00    -0.070 A  
HETATM    9  C   UNL     1      -7.473   2.777  64.532  1.00  0.00    -0.074 A  
HETATM   10  C   UNL     1      -8.792   2.327  64.549  1.00  0.00    -0.108 A  
HETATM   11  C   UNL     1      -9.830   3.221  64.799  1.00  0.00    -0.093 A  
HETATM   12  C   UNL     1      -9.554   4.572  65.009  1.00  0.00    -0.150 A  
ENDBRANCH   6   7
ENDBRANCH   4   6
ENDBRANCH   2   4
TORSDOF 3
ENDMDL
MODEL      260
REMARK 921   NORMALIZED FREE ENERGY PREDICTED BY IDOCK:   -0.83 KCAL/MOL
REMARK 922        TOTAL FREE ENERGY PREDICTED BY IDOCK:   -1.20 KCAL/MOL
REMARK 923 INTER-LIGAND FREE ENERGY PREDICTED BY IDOCK:   -1.29 KCAL/MOL
REMARK 924 INTRA-LIGAND FREE ENERGY PREDICTED BY IDOCK:    0.09 KCAL/MOL
REMARK 927      BINDING AFFINITY PREDICTED BY RF-SCORE:    0.00 PKD
ROOT
HETATM    1  C   UNL     1      -7.553   9.843  63.466  1.00  0.00    -0.143 C  
HETATM    2  N   UNL     1      -6.402   9.642  64.337  1.00  0.00    -0.094 NA 
HETATM    3  H   UNL     1      -6.137  10.514  64.795  1.00  0.00     0.000 HD 
ENDROOT
BRANCH   2   4
HETATM    4  C   UNL     1      -6.603   8.569  65.328  1.00  0.00    -0.063 C  
HETATM    5  C   UNL     1      -8.059   8.080  65.346  1.00  0.00    -0.135 C  
BRANCH   4   6
HETATM    6  C   UNL     1      -6.171   9.104  66.721  1.00  0.00    -0.065 C  
BRANCH   6   7
HETATM    7  C   UNL     1      -6.860  10.395  67.101  1.00  0.00    -0.083 A  
HETATM    8  C   UNL     1      -6.193  11.622  66.975  1.00  0.00    -0.144 A  
HETATM    9  C   UNL     1      -6.784  12.798  67.435  1.00  0.00    -0.138 A  
HETATM   10  C   UNL     1      -8.053  12.763  68.009  1.00  0.00    -0.162 A  
HETATM   11  C   UNL     1      -8.741  11.555  68.106  1.00  0.00    -0.157 A  
HETATM   12  C   UNL     1      -8.150  10.376  67.650  1.00  0.00    -0.107 A  
ENDBRANCH   6   7
ENDBRANCH   4   6
ENDBRANCH   2   4
TORSDOF 3
ENDMDL
MODEL      261
REMARK 921   NORMALIZED FREE ENERGY PREDICTED BY IDOCK:   -0.67 KCAL/MOL
REMARK 922        TOTAL FREE ENERGY PREDICTED BY IDOCK:   -1.01 KCAL/MOL
REMARK 923 INTER-LIGAND FREE ENERGY PREDICTED BY IDOCK:   -1.08 KCAL/MOL
REMARK 924 INTRA-LIGAND FREE ENERGY PREDICTED BY IDOCK:    0.08 KCAL/MOL
REMARK 927      BINDING AFFINITY PREDICTED BY RF-SCORE:    0.00 PKD
ROOT
HETATM    1  C   UNL     1      -7.684   7.867  66.991  1.00  0.00    -0.100 C  
HETATM    2  N   UNL     1      -8.225   7.590  68.315  1.00  0.00    -0.124 NA 
HETATM    3  H   UNL     1      -8.631   6.655  68.353  1.00  0.00     0.000 HD 
ENDROOT
BRANCH   2   4
HETATM    4  C   UNL     1      -7.242   7.779  69.397  1.00  0.00    -0.080 C  
HETATM    5  C   UNL     1      -5.856   8.145  68.845  1.00  0.00    -0.035 C  
BRANCH   4   6
HETATM    6  C   UNL     1      -7.186   6.476  70.240  1.00  0.00    -0.080 C  
BRANCH   6   7
HETATM    7  C   UNL     1      -7.729   5.270  69.505  1.00  0.00    -0.073 A  
HETATM    8  C   UNL     1      -9.001   4.764  69.811  1.00  0.00    -0.139 A  
HETATM    9  C   UNL     1      -9.453   3.586  69.219  1.00  0.00    -0.233 A  
HETATM   10  C   UNL     1      -8.647   2.911  68.305  1.00  0.00    -0.115 A  
HETATM   11  C   UNL     1      -7.397   3.424  67.965  1.00  0.00    -0.054 A  
HETATM   12  C   UNL     1      -6.940   4.600  68.559  1.00  0.00    -0.052 A  
ENDBRANCH   6   7
ENDBRANCH   4   6
ENDBRANCH   2   4
TORSDOF 3
ENDMDL
MODEL      262
REMARK 921   NORMALIZED FREE ENERGY PREDICTED BY IDOCK:   -0.57 KCAL/MOL
REMARK 922        TOTAL FREE ENERGY PREDICTED BY IDOCK:   -0.90 KCAL/MOL
REMARK 923 INTER-LIGAND FREE ENERGY PREDICTED BY IDOCK:   -1.32 KCAL/MOL
REMARK 924 INTRA-LIGAND FREE ENERGY PREDICTED BY IDOCK:    0.42 KCAL/MOL
REMARK 927      BINDING AFFINITY PREDICTED BY RF-SCORE:    0.00 PKD
ROOT
HETATM    1  C   UNL     1      -8.310   7.948  67.552  1.00  0.00    -0.124 C  
HETATM    2  N   UNL     1      -8.603   6.866  68.482  1.00  0.00    -0.123 NA 
HETATM    3  H   UNL     1      -8.142   6.004  68.191  1.00  0.00     0.000 HD 
ENDROOT
BRANCH   2   4
HETATM    4  C   UNL     1      -8.270   7.194  69.880  1.00  0.00    -0.133 C  
HETATM    5  C   UNL     1      -7.855   5.945  70.671  1.00  0.00    -0.105 C  
BRANCH   4   6
HETATM    6  C   UNL     1      -9.501   7.887  70.526  1.00  0.00    -0.162 C  
BRANCH   6   7
HETATM    7  C   UNL     1     -10.312   6.959  71.404  1.00  0.00    -0.219 A  
HETATM    8  C   UNL     1     -11.586   6.534  71.002  1.00  0.00    -0.405 A  
HETATM    9  C   UNL     1     -12.381   5.776  71.861  1.00  0.00     0.412 A  
HETATM   10  C   UNL     1     -11.904   5.422  73.122  1.00  0.00     0.015 A  
HETATM   11  C   UNL     1     -10.625   5.807  73.517  1.00  0.00    -0.295 A  
HETATM   12  C   UNL     1      -9.829   6.569  72.661  1.00  0.00    -0.179 A  
ENDBRANCH   6   7
ENDBRANCH   4   6
ENDBRANCH   2   4
TORSDOF 3
ENDMDL
MODEL      263
REMARK 921   NORMALIZED FREE ENERGY PREDICTED BY IDOCK:    5.28 KCAL/MOL
REMARK 922        TOTAL FREE ENERGY PREDICTED BY IDOCK:    5.97 KCAL/MOL
REMARK 923 INTER-LIGAND FREE ENERGY PREDICTED BY IDOCK:    5.28 KCAL/MOL
REMARK 924 INTRA-LIGAND FREE ENERGY PREDICTED BY IDOCK:    0.69 KCAL/MOL
REMARK 927      BINDING AFFINITY PREDICTED BY RF-SCORE:    0.00 PKD
ROOT
HETATM    1  C   UNL     1     -11.085  15.606  73.357  1.00  0.00     1.414 C  
HETATM    2  N   UNL     1     -12.063  14.550  73.128  1.00  0.00    -0.071 NA 
HETATM    3  H   UNL     1     -12.710  14.480  73.913  1.00  0.00     0.000 HD 
ENDROOT
BRANCH   2   4
HETATM    4  C   UNL     1     -12.794  14.700  71.857  1.00  0.00    -0.328 C  
HETATM    5  C   UNL     1     -12.205  13.805  70.756  1.00  0.00    -0.437 C  
BRANCH   4   6
HETATM    6  C   UNL     1     -12.757  16.197  71.445  1.00  0.00     0.083 C  
BRANCH   6   7
HETATM    7  C   UNL     1     -11.999  16.441  70.159  1.00  0.00     0.337 A  
HETATM    8  C   UNL     1     -10.647  16.086  70.051  1.00  0.00    -0.297 A  
HETATM    9  C   UNL     1      -9.919  16.417  68.909  1.00  0.00    -0.257 A  
HETATM   10  C   UNL     1     -10.538  17.090  67.858  1.00  0.00    -0.365 A  
HETATM   11  C   UNL     1     -11.890  17.414  67.938  1.00  0.00     1.455 A  
HETATM   12  C   UNL     1     -12.620  17.089  69.081  1.00  0.00     3.751 A  
ENDBRANCH   6   7
ENDBRANCH   4   6
ENDBRANCH   2   4
TORSDOF 3
ENDMDL
