MODEL        1
REMARK 921   NORMALIZED FREE ENERGY PREDICTED BY IDOCK:   -5.72 KCAL/MOL
REMARK 922        TOTAL FREE ENERGY PREDICTED BY IDOCK:  -10.73 KCAL/MOL
REMARK 923 INTER-LIGAND FREE ENERGY PREDICTED BY IDOCK:   -9.40 KCAL/MOL
REMARK 924 INTRA-LIGAND FREE ENERGY PREDICTED BY IDOCK:   -1.33 KCAL/MOL
REMARK 927      BINDING AFFINITY PREDICTED BY RF-SCORE:    0.00 PKD
ROOT
HETATM    1  C   UNL     1      -9.828   7.790  70.816  1.00  0.00    -0.183 C  
HETATM    2  C   UNL     1     -10.947   6.786  70.540  1.00  0.00    -0.280 C  
HETATM    3  C   UNL     1     -10.996   5.747  71.665  1.00  0.00    -0.308 C  
ENDROOT
BRANCH   2   4
HETATM    4  N   UNL     1     -12.273   7.409  70.441  1.00  0.00    -0.537 NA 
HETATM    5  H   UNL     1     -12.833   6.936  69.732  1.00  0.00     0.000 HD 
BRANCH   4   6
HETATM    6  C   UNL     1     -13.019   7.489  71.704  1.00  0.00    -0.358 C  
BRANCH   6   7
HETATM    7  C   UNL     1     -13.089   8.872  72.381  1.00  0.00    -0.418 C  
HETATM    8  O   UNL     1     -14.205   8.880  73.287  1.00  0.00    -1.197 OA 
HETATM    9  H   UNL     1     -14.248   9.732  73.704  1.00  0.00     0.000 HD 
BRANCH   7  10
HETATM   10  C   UNL     1     -13.260  10.002  71.361  1.00  0.00    -0.395 C  
BRANCH  10  11
HETATM   11  O   UNL     1     -11.951  10.459  70.976  1.00  0.00    -0.339 OA 
BRANCH  11  12
HETATM   12  C   UNL     1     -11.918  11.462  70.044  1.00  0.00    -0.363 A  
HETATM   13  C   UNL     1     -12.065  12.822  70.317  1.00  0.00    -0.373 A  
HETATM   14  C   UNL     1     -12.057  13.754  69.275  1.00  0.00    -0.374 A  
HETATM   15  C   UNL     1     -11.877  13.348  67.947  1.00  0.00    -0.392 A  
HETATM   16  C   UNL     1     -11.703  11.984  67.682  1.00  0.00    -0.365 A  
HETATM   17  C   UNL     1     -11.722  11.051  68.725  1.00  0.00    -0.383 A  
BRANCH  15  18
HETATM   18  C   UNL     1     -11.907  14.360  66.826  1.00  0.00    -0.431 C  
BRANCH  18  19
HETATM   19  C   UNL     1     -10.535  14.577  66.185  1.00  0.00    -0.298 C  
BRANCH  19  20
HETATM   20  O   UNL     1     -10.644  14.464  64.764  1.00  0.00    -0.421 OA 
BRANCH  20  21
HETATM   21  C   UNL     1     -12.001  14.238  64.382  1.00  0.00    -0.456 C  
BRANCH  21  22
HETATM   22  C   UNL     1     -12.047  13.157  63.352  1.00  0.00    -0.558 C  
HETATM   23  C   UNL     1     -11.300  11.869  63.598  1.00  0.00    -0.536 C  
HETATM   24  C   UNL     1     -12.803  11.876  63.602  1.00  0.00    -0.429 C  
ENDBRANCH  21  22
ENDBRANCH  20  21
ENDBRANCH  19  20
ENDBRANCH  18  19
ENDBRANCH  15  18
ENDBRANCH  11  12
ENDBRANCH  10  11
ENDBRANCH   7  10
ENDBRANCH   6   7
ENDBRANCH   4   6
ENDBRANCH   2   4
TORSDOF 11
ENDMDL
MODEL        2
REMARK 921   NORMALIZED FREE ENERGY PREDICTED BY IDOCK:   -5.52 KCAL/MOL
REMARK 922        TOTAL FREE ENERGY PREDICTED BY IDOCK:  -10.41 KCAL/MOL
REMARK 923 INTER-LIGAND FREE ENERGY PREDICTED BY IDOCK:   -9.48 KCAL/MOL
REMARK 924 INTRA-LIGAND FREE ENERGY PREDICTED BY IDOCK:   -0.93 KCAL/MOL
REMARK 927      BINDING AFFINITY PREDICTED BY RF-SCORE:    0.00 PKD
ROOT
HETATM    1  C   UNL     1     -11.367   6.338  69.828  1.00  0.00    -0.506 C  
HETATM    2  C   UNL     1     -11.243   6.096  71.333  1.00  0.00    -0.287 C  
HETATM    3  C   UNL     1      -9.973   6.772  71.860  1.00  0.00    -0.187 C  
ENDROOT
BRANCH   2   4
HETATM    4  N   UNL     1     -12.383   6.615  72.099  1.00  0.00    -0.519 NA 
HETATM    5  H   UNL     1     -12.113   6.772  73.070  1.00  0.00     0.000 HD 
BRANCH   4   6
HETATM    6  C   UNL     1     -13.007   7.824  71.546  1.00  0.00    -0.325 C  
BRANCH   6   7
HETATM    7  C   UNL     1     -13.095   9.048  72.479  1.00  0.00    -0.385 C  
HETATM    8  O   UNL     1     -14.284   8.927  73.276  1.00  0.00    -1.197 OA 
HETATM    9  H   UNL     1     -14.338   9.682  73.852  1.00  0.00     0.000 HD 
BRANCH   7  10
HETATM   10  C   UNL     1     -13.143  10.364  71.697  1.00  0.00    -0.448 C  
BRANCH  10  11
HETATM   11  O   UNL     1     -11.876  10.540  71.038  1.00  0.00    -0.350 OA 
BRANCH  11  12
HETATM   12  C   UNL     1     -11.873  11.394  69.967  1.00  0.00    -0.359 A  
HETATM   13  C   UNL     1     -11.647  11.025  68.641  1.00  0.00    -0.385 A  
HETATM   14  C   UNL     1     -11.624  11.994  67.635  1.00  0.00    -0.392 A  
HETATM   15  C   UNL     1     -11.851  13.344  67.929  1.00  0.00    -0.392 A  
HETATM   16  C   UNL     1     -12.103  13.705  69.258  1.00  0.00    -0.360 A  
HETATM   17  C   UNL     1     -12.116  12.736  70.267  1.00  0.00    -0.373 A  
BRANCH  15  18
HETATM   18  C   UNL     1     -11.787  14.387  66.839  1.00  0.00    -0.433 C  
BRANCH  18  19
HETATM   19  C   UNL     1     -12.437  13.924  65.535  1.00  0.00    -0.511 C  
BRANCH  19  20
HETATM   20  O   UNL     1     -11.438  13.780  64.522  1.00  0.00    -0.361 OA 
BRANCH  20  21
HETATM   21  C   UNL     1     -11.838  12.806  63.558  1.00  0.00    -0.546 C  
BRANCH  21  22
HETATM   22  C   UNL     1     -11.064  11.548  63.782  1.00  0.00    -0.471 C  
HETATM   23  C   UNL     1      -9.728  11.371  63.104  1.00  0.00    -0.413 C  
HETATM   24  C   UNL     1      -9.794  11.551  64.595  1.00  0.00    -0.283 C  
ENDBRANCH  21  22
ENDBRANCH  20  21
ENDBRANCH  19  20
ENDBRANCH  18  19
ENDBRANCH  15  18
ENDBRANCH  11  12
ENDBRANCH  10  11
ENDBRANCH   7  10
ENDBRANCH   6   7
ENDBRANCH   4   6
ENDBRANCH   2   4
TORSDOF 11
ENDMDL
MODEL        3
REMARK 921   NORMALIZED FREE ENERGY PREDICTED BY IDOCK:   -5.44 KCAL/MOL
REMARK 922        TOTAL FREE ENERGY PREDICTED BY IDOCK:  -10.27 KCAL/MOL
REMARK 923 INTER-LIGAND FREE ENERGY PREDICTED BY IDOCK:   -9.12 KCAL/MOL
REMARK 924 INTRA-LIGAND FREE ENERGY PREDICTED BY IDOCK:   -1.15 KCAL/MOL
REMARK 927      BINDING AFFINITY PREDICTED BY RF-SCORE:    0.00 PKD
ROOT
HETATM    1  C   UNL     1     -10.337  19.689  66.324  1.00  0.00    -0.619 C  
HETATM    2  C   UNL     1     -10.067  18.187  66.421  1.00  0.00    -0.389 C  
HETATM    3  C   UNL     1     -10.514  17.672  67.794  1.00  0.00    -0.379 C  
ENDROOT
BRANCH   2   4
HETATM    4  N   UNL     1     -10.768  17.404  65.394  1.00  0.00    -0.576 NA 
HETATM    5  H   UNL     1     -10.624  17.822  64.475  1.00  0.00     0.000 HD 
BRANCH   4   6
HETATM    6  C   UNL     1     -10.430  15.976  65.361  1.00  0.00    -0.392 C  
BRANCH   6   7
HETATM    7  C   UNL     1     -11.398  15.052  64.597  1.00  0.00    -0.352 C  
HETATM    8  O   UNL     1     -12.231  15.863  63.753  1.00  0.00    -1.213 OA 
HETATM    9  H   UNL     1     -12.829  15.294  63.282  1.00  0.00     0.000 HD 
BRANCH   7  10
HETATM   10  C   UNL     1     -12.284  14.238  65.546  1.00  0.00    -0.402 C  
BRANCH  10  11
HETATM   11  O   UNL     1     -11.935  14.592  66.897  1.00  0.00    -0.403 OA 
BRANCH  11  12
HETATM   12  C   UNL     1     -11.841  13.551  67.782  1.00  0.00    -0.362 A  
HETATM   13  C   UNL     1     -12.026  13.645  69.161  1.00  0.00    -0.394 A  
HETATM   14  C   UNL     1     -11.861  12.520  69.973  1.00  0.00    -0.363 A  
HETATM   15  C   UNL     1     -11.535  11.275  69.421  1.00  0.00    -0.370 A  
HETATM   16  C   UNL     1     -11.377  11.180  68.033  1.00  0.00    -0.380 A  
HETATM   17  C   UNL     1     -11.532  12.310  67.222  1.00  0.00    -0.426 A  
BRANCH  15  18
HETATM   18  C   UNL     1     -11.323  10.073  70.311  1.00  0.00    -0.376 C  
BRANCH  18  19
HETATM   19  C   UNL     1      -9.874   9.584  70.313  1.00  0.00    -0.261 C  
BRANCH  19  20
HETATM   20  O   UNL     1      -9.846   8.162  70.460  1.00  0.00    -0.184 OA 
BRANCH  20  21
HETATM   21  C   UNL     1     -10.808   7.551  69.601  1.00  0.00    -0.202 C  
BRANCH  21  22
HETATM   22  C   UNL     1     -10.139   7.137  68.331  1.00  0.00    -0.182 C  
HETATM   23  C   UNL     1     -10.944   6.437  67.264  1.00  0.00    -0.474 C  
HETATM   24  C   UNL     1     -10.442   7.835  67.029  1.00  0.00    -0.419 C  
ENDBRANCH  21  22
ENDBRANCH  20  21
ENDBRANCH  19  20
ENDBRANCH  18  19
ENDBRANCH  15  18
ENDBRANCH  11  12
ENDBRANCH  10  11
ENDBRANCH   7  10
ENDBRANCH   6   7
ENDBRANCH   4   6
ENDBRANCH   2   4
TORSDOF 11
ENDMDL
MODEL        4
REMARK 921   NORMALIZED FREE ENERGY PREDICTED BY IDOCK:   -5.42 KCAL/MOL
REMARK 922        TOTAL FREE ENERGY PREDICTED BY IDOCK:  -10.23 KCAL/MOL
REMARK 923 INTER-LIGAND FREE ENERGY PREDICTED BY IDOCK:   -9.18 KCAL/MOL
REMARK 924 INTRA-LIGAND FREE ENERGY PREDICTED BY IDOCK:   -1.06 KCAL/MOL
REMARK 927      BINDING AFFINITY PREDICTED BY RF-SCORE:    0.00 PKD
ROOT
HETATM    1  C   UNL     1     -10.548  17.230  67.636  1.00  0.00    -0.350 C  
HETATM    2  C   UNL     1      -9.922  17.341  66.245  1.00  0.00    -0.300 C  
HETATM    3  C   UNL     1      -8.447  17.736  66.374  1.00  0.00    -0.270 C  
ENDROOT
BRANCH   2   4
HETATM    4  N   UNL     1      -9.990  16.090  65.478  1.00  0.00    -0.459 NA 
HETATM    5  H   UNL     1      -9.739  15.300  66.071  1.00  0.00     0.000 HD 
BRANCH   4   6
HETATM    6  C   UNL     1     -11.276  15.837  64.814  1.00  0.00    -0.366 C  
BRANCH   6   7
HETATM    7  C   UNL     1     -11.714  14.364  64.693  1.00  0.00    -0.430 C  
HETATM    8  O   UNL     1     -12.372  14.187  63.428  1.00  0.00    -1.109 OA 
HETATM    9  H   UNL     1     -12.642  13.280  63.353  1.00  0.00     0.000 HD 
BRANCH   7  10
HETATM   10  C   UNL     1     -12.669  13.955  65.819  1.00  0.00    -0.461 C  
BRANCH  10  11
HETATM   11  O   UNL     1     -12.062  14.314  67.073  1.00  0.00    -0.425 OA 
BRANCH  11  12
HETATM   12  C   UNL     1     -11.906  13.295  67.975  1.00  0.00    -0.355 A  
HETATM   13  C   UNL     1     -11.538  11.987  67.659  1.00  0.00    -0.392 A  
HETATM   14  C   UNL     1     -11.452  11.018  68.663  1.00  0.00    -0.375 A  
HETATM   15  C   UNL     1     -11.707  11.342  70.001  1.00  0.00    -0.416 A  
HETATM   16  C   UNL     1     -12.051  12.663  70.315  1.00  0.00    -0.372 A  
HETATM   17  C   UNL     1     -12.146  13.630  69.308  1.00  0.00    -0.360 A  
BRANCH  15  18
HETATM   18  C   UNL     1     -11.648  10.278  71.072  1.00  0.00    -0.430 C  
BRANCH  18  19
HETATM   19  C   UNL     1     -12.920  10.217  71.918  1.00  0.00    -0.447 C  
BRANCH  19  20
HETATM   20  O   UNL     1     -13.049   8.917  72.501  1.00  0.00    -0.422 OA 
BRANCH  20  21
HETATM   21  C   UNL     1     -13.741   8.037  71.616  1.00  0.00    -0.356 C  
BRANCH  21  22
HETATM   22  C   UNL     1     -12.988   6.750  71.518  1.00  0.00    -0.281 C  
HETATM   23  C   UNL     1     -11.725   6.693  70.694  1.00  0.00    -0.452 C  
HETATM   24  C   UNL     1     -11.649   6.579  72.191  1.00  0.00    -0.349 C  
ENDBRANCH  21  22
ENDBRANCH  20  21
ENDBRANCH  19  20
ENDBRANCH  18  19
ENDBRANCH  15  18
ENDBRANCH  11  12
ENDBRANCH  10  11
ENDBRANCH   7  10
ENDBRANCH   6   7
ENDBRANCH   4   6
ENDBRANCH   2   4
TORSDOF 11
ENDMDL
MODEL        5
REMARK 921   NORMALIZED FREE ENERGY PREDICTED BY IDOCK:   -5.42 KCAL/MOL
REMARK 922        TOTAL FREE ENERGY PREDICTED BY IDOCK:  -10.23 KCAL/MOL
REMARK 923 INTER-LIGAND FREE ENERGY PREDICTED BY IDOCK:   -9.63 KCAL/MOL
REMARK 924 INTRA-LIGAND FREE ENERGY PREDICTED BY IDOCK:   -0.61 KCAL/MOL
REMARK 927      BINDING AFFINITY PREDICTED BY RF-SCORE:    0.00 PKD
ROOT
HETATM    1  C   UNL     1     -10.756   5.628  71.197  1.00  0.00    -0.310 C  
HETATM    2  C   UNL     1     -11.166   6.678  70.164  1.00  0.00    -0.360 C  
HETATM    3  C   UNL     1     -11.034   6.092  68.754  1.00  0.00    -0.421 C  
ENDROOT
BRANCH   2   4
HETATM    4  N   UNL     1     -12.548   7.147  70.331  1.00  0.00    -0.534 NA 
HETATM    5  H   UNL     1     -13.186   6.564  69.789  1.00  0.00     0.000 HD 
BRANCH   4   6
HETATM    6  C   UNL     1     -13.009   7.242  71.722  1.00  0.00    -0.326 C  
BRANCH   6   7
HETATM    7  C   UNL     1     -12.882   8.620  72.401  1.00  0.00    -0.355 C  
HETATM    8  O   UNL     1     -13.958   8.765  73.343  1.00  0.00    -1.132 OA 
HETATM    9  H   UNL     1     -13.880   9.614  73.761  1.00  0.00     0.000 HD 
BRANCH   7  10
HETATM   10  C   UNL     1     -12.942   9.767  71.388  1.00  0.00    -0.395 C  
BRANCH  10  11
HETATM   11  O   UNL     1     -13.238  10.980  72.102  1.00  0.00    -0.481 OA 
BRANCH  11  12
HETATM   12  C   UNL     1     -12.884  12.145  71.474  1.00  0.00    -0.289 A  
HETATM   13  C   UNL     1     -13.268  13.425  71.874  1.00  0.00    -0.522 A  
HETATM   14  C   UNL     1     -12.881  14.542  71.127  1.00  0.00    -0.408 A  
HETATM   15  C   UNL     1     -12.083  14.403  69.985  1.00  0.00    -0.401 A  
HETATM   16  C   UNL     1     -11.679  13.117  69.604  1.00  0.00    -0.370 A  
HETATM   17  C   UNL     1     -12.076  11.999  70.346  1.00  0.00    -0.407 A  
BRANCH  15  18
HETATM   18  C   UNL     1     -11.701  15.612  69.165  1.00  0.00    -0.402 C  
BRANCH  18  19
HETATM   19  C   UNL     1     -11.132  15.244  67.794  1.00  0.00    -0.318 C  
BRANCH  19  20
HETATM   20  O   UNL     1     -10.570  16.406  67.178  1.00  0.00    -0.310 OA 
BRANCH  20  21
HETATM   21  C   UNL     1     -10.652  17.528  68.056  1.00  0.00    -0.384 C  
BRANCH  21  22
HETATM   22  C   UNL     1      -9.901  18.674  67.459  1.00  0.00    -0.350 C  
HETATM   23  C   UNL     1     -10.625  19.641  66.554  1.00  0.00    -0.591 C  
HETATM   24  C   UNL     1     -10.156  20.090  67.911  1.00  0.00    -0.559 C  
ENDBRANCH  21  22
ENDBRANCH  20  21
ENDBRANCH  19  20
ENDBRANCH  18  19
ENDBRANCH  15  18
ENDBRANCH  11  12
ENDBRANCH  10  11
ENDBRANCH   7  10
ENDBRANCH   6   7
ENDBRANCH   4   6
ENDBRANCH   2   4
TORSDOF 11
ENDMDL
MODEL        6
REMARK 921   NORMALIZED FREE ENERGY PREDICTED BY IDOCK:   -5.37 KCAL/MOL
REMARK 922        TOTAL FREE ENERGY PREDICTED BY IDOCK:  -10.15 KCAL/MOL
REMARK 923 INTER-LIGAND FREE ENERGY PREDICTED BY IDOCK:   -9.19 KCAL/MOL
REMARK 924 INTRA-LIGAND FREE ENERGY PREDICTED BY IDOCK:   -0.96 KCAL/MOL
REMARK 927      BINDING AFFINITY PREDICTED BY RF-SCORE:    0.00 PKD
ROOT
HETATM    1  C   UNL     1     -10.679  19.923  67.065  1.00  0.00    -0.478 C  
HETATM    2  C   UNL     1      -9.990  18.565  66.931  1.00  0.00    -0.349 C  
HETATM    3  C   UNL     1     -10.317  17.699  68.152  1.00  0.00    -0.386 C  
ENDROOT
BRANCH   2   4
HETATM    4  N   UNL     1     -10.398  17.825  65.729  1.00  0.00    -0.609 NA 
HETATM    5  H   UNL     1      -9.768  18.038  64.954  1.00  0.00     0.000 HD 
BRANCH   4   6
HETATM    6  C   UNL     1     -10.515  16.372  65.902  1.00  0.00    -0.337 C  
BRANCH   6   7
HETATM    7  C   UNL     1     -10.938  15.558  64.664  1.00  0.00    -0.322 C  
HETATM    8  O   UNL     1     -11.619  16.437  63.753  1.00  0.00    -1.605 OA 
HETATM    9  H   UNL     1     -11.880  15.935  62.989  1.00  0.00     0.000 HD 
BRANCH   7  10
HETATM   10  C   UNL     1     -11.866  14.396  65.030  1.00  0.00    -0.400 C  
BRANCH  10  11
HETATM   11  O   UNL     1     -11.246  13.174  64.591  1.00  0.00    -0.314 OA 
BRANCH  11  12
HETATM   12  C   UNL     1     -11.037  12.228  65.559  1.00  0.00    -0.307 A  
HETATM   13  C   UNL     1     -11.584  12.250  66.842  1.00  0.00    -0.427 A  
HETATM   14  C   UNL     1     -11.262  11.249  67.762  1.00  0.00    -0.354 A  
HETATM   15  C   UNL     1     -10.411  10.194  67.412  1.00  0.00    -0.310 A  
HETATM   16  C   UNL     1      -9.886  10.162  66.114  1.00  0.00    -0.297 A  
HETATM   17  C   UNL     1     -10.200  11.171  65.196  1.00  0.00    -0.347 A  
BRANCH  15  18
HETATM   18  C   UNL     1     -10.042   9.138  68.426  1.00  0.00    -0.220 C  
BRANCH  18  19
HETATM   19  C   UNL     1      -9.307   9.711  69.639  1.00  0.00    -0.211 C  
BRANCH  19  20
HETATM   20  O   UNL     1      -9.745   9.045  70.826  1.00  0.00    -0.204 OA 
BRANCH  20  21
HETATM   21  C   UNL     1     -11.129   8.708  70.729  1.00  0.00    -0.255 C  
BRANCH  21  22
HETATM   22  C   UNL     1     -11.908   9.557  71.681  1.00  0.00    -0.468 C  
HETATM   23  C   UNL     1     -12.590  10.803  71.172  1.00  0.00    -0.532 C  
HETATM   24  C   UNL     1     -13.413   9.624  71.610  1.00  0.00    -0.455 C  
ENDBRANCH  21  22
ENDBRANCH  20  21
ENDBRANCH  19  20
ENDBRANCH  18  19
ENDBRANCH  15  18
ENDBRANCH  11  12
ENDBRANCH  10  11
ENDBRANCH   7  10
ENDBRANCH   6   7
ENDBRANCH   4   6
ENDBRANCH   2   4
TORSDOF 11
ENDMDL
MODEL        7
REMARK 921   NORMALIZED FREE ENERGY PREDICTED BY IDOCK:   -5.35 KCAL/MOL
REMARK 922        TOTAL FREE ENERGY PREDICTED BY IDOCK:  -10.12 KCAL/MOL
REMARK 923 INTER-LIGAND FREE ENERGY PREDICTED BY IDOCK:   -8.57 KCAL/MOL
REMARK 924 INTRA-LIGAND FREE ENERGY PREDICTED BY IDOCK:   -1.55 KCAL/MOL
REMARK 927      BINDING AFFINITY PREDICTED BY RF-SCORE:    0.00 PKD
ROOT
HETATM    1  C   UNL     1     -10.864   5.869  69.261  1.00  0.00    -0.414 C  
HETATM    2  C   UNL     1     -11.188   6.621  70.552  1.00  0.00    -0.334 C  
HETATM    3  C   UNL     1      -9.987   7.478  70.965  1.00  0.00    -0.189 C  
ENDROOT
BRANCH   2   4
HETATM    4  N   UNL     1     -12.354   7.506  70.429  1.00  0.00    -0.445 NA 
HETATM    5  H   UNL     1     -12.901   7.255  69.605  1.00  0.00     0.000 HD 
BRANCH   4   6
HETATM    6  C   UNL     1     -13.221   7.564  71.614  1.00  0.00    -0.356 C  
BRANCH   6   7
HETATM    7  C   UNL     1     -13.162   8.854  72.453  1.00  0.00    -0.430 C  
HETATM    8  O   UNL     1     -14.263   8.848  73.376  1.00  0.00    -1.241 OA 
HETATM    9  H   UNL     1     -14.226   9.644  73.894  1.00  0.00     0.000 HD 
BRANCH   7  10
HETATM   10  C   UNL     1     -13.243  10.111  71.581  1.00  0.00    -0.418 C  
BRANCH  10  11
HETATM   11  O   UNL     1     -11.918  10.414  71.109  1.00  0.00    -0.352 OA 
BRANCH  11  12
HETATM   12  C   UNL     1     -11.841  11.322  70.086  1.00  0.00    -0.364 A  
HETATM   13  C   UNL     1     -11.986  12.702  70.220  1.00  0.00    -0.363 A  
HETATM   14  C   UNL     1     -11.931  13.529  69.094  1.00  0.00    -0.378 A  
HETATM   15  C   UNL     1     -11.703  12.996  67.820  1.00  0.00    -0.405 A  
HETATM   16  C   UNL     1     -11.531  11.612  67.695  1.00  0.00    -0.373 A  
HETATM   17  C   UNL     1     -11.597  10.784  68.821  1.00  0.00    -0.350 A  
BRANCH  15  18
HETATM   18  C   UNL     1     -11.681  13.894  66.606  1.00  0.00    -0.417 C  
BRANCH  18  19
HETATM   19  C   UNL     1     -10.388  13.771  65.799  1.00  0.00    -0.307 C  
BRANCH  19  20
HETATM   20  O   UNL     1      -9.525  14.871  66.100  1.00  0.00    -0.284 OA 
BRANCH  20  21
HETATM   21  C   UNL     1     -10.280  16.075  66.241  1.00  0.00    -0.316 C  
BRANCH  21  22
HETATM   22  C   UNL     1      -9.740  16.859  67.393  1.00  0.00    -0.247 C  
HETATM   23  C   UNL     1     -10.557  16.974  68.657  1.00  0.00    -0.362 C  
HETATM   24  C   UNL     1      -9.287  16.171  68.657  1.00  0.00    -0.222 C  
ENDBRANCH  21  22
ENDBRANCH  20  21
ENDBRANCH  19  20
ENDBRANCH  18  19
ENDBRANCH  15  18
ENDBRANCH  11  12
ENDBRANCH  10  11
ENDBRANCH   7  10
ENDBRANCH   6   7
ENDBRANCH   4   6
ENDBRANCH   2   4
TORSDOF 11
ENDMDL
MODEL        8
REMARK 921   NORMALIZED FREE ENERGY PREDICTED BY IDOCK:   -5.34 KCAL/MOL
REMARK 922        TOTAL FREE ENERGY PREDICTED BY IDOCK:  -10.11 KCAL/MOL
REMARK 923 INTER-LIGAND FREE ENERGY PREDICTED BY IDOCK:   -8.97 KCAL/MOL
REMARK 924 INTRA-LIGAND FREE ENERGY PREDICTED BY IDOCK:   -1.14 KCAL/MOL
REMARK 927      BINDING AFFINITY PREDICTED BY RF-SCORE:    0.00 PKD
ROOT
HETATM    1  C   UNL     1      -9.376  10.128  62.406  1.00  0.00    -0.297 C  
HETATM    2  C   UNL     1     -10.073  10.918  63.514  1.00  0.00    -0.347 C  
HETATM    3  C   UNL     1      -9.789  10.263  64.870  1.00  0.00    -0.404 C  
ENDROOT
BRANCH   2   4
HETATM    4  N   UNL     1      -9.638  12.319  63.589  1.00  0.00    -0.661 NA 
HETATM    5  H   UNL     1      -9.597  12.725  62.654  1.00  0.00     0.000 HD 
BRANCH   4   6
HETATM    6  C   UNL     1     -10.439  13.173  64.476  1.00  0.00    -0.405 C  
BRANCH   6   7
HETATM    7  C   UNL     1     -11.971  13.068  64.341  1.00  0.00    -0.397 C  
HETATM    8  O   UNL     1     -12.390  13.898  63.246  1.00  0.00    -1.115 OA 
HETATM    9  H   UNL     1     -13.334  13.833  63.163  1.00  0.00     0.000 HD 
BRANCH   7  10
HETATM   10  C   UNL     1     -12.691  13.515  65.617  1.00  0.00    -0.421 C  
BRANCH  10  11
HETATM   11  O   UNL     1     -11.696  13.806  66.614  1.00  0.00    -0.353 OA 
BRANCH  11  12
HETATM   12  C   UNL     1     -11.836  13.148  67.808  1.00  0.00    -0.348 A  
HETATM   13  C   UNL     1     -12.029  13.758  69.047  1.00  0.00    -0.399 A  
HETATM   14  C   UNL     1     -12.115  12.984  70.208  1.00  0.00    -0.388 A  
HETATM   15  C   UNL     1     -12.036  11.587  70.149  1.00  0.00    -0.432 A  
HETATM   16  C   UNL     1     -11.870  10.979  68.898  1.00  0.00    -0.378 A  
HETATM   17  C   UNL     1     -11.773  11.755  67.738  1.00  0.00    -0.337 A  
BRANCH  15  18
HETATM   18  C   UNL     1     -12.093  10.762  71.413  1.00  0.00    -0.297 C  
BRANCH  18  19
HETATM   19  C   UNL     1     -13.338   9.877  71.488  1.00  0.00    -0.375 C  
BRANCH  19  20
HETATM   20  O   UNL     1     -12.970   8.510  71.284  1.00  0.00    -0.268 OA 
BRANCH  20  21
HETATM   21  C   UNL     1     -11.834   8.173  72.081  1.00  0.00    -0.359 C  
BRANCH  21  22
HETATM   22  C   UNL     1     -10.929   7.284  71.292  1.00  0.00    -0.264 C  
HETATM   23  C   UNL     1     -11.508   6.427  70.193  1.00  0.00    -0.484 C  
HETATM   24  C   UNL     1     -10.611   7.583  69.848  1.00  0.00    -0.243 C  
ENDBRANCH  21  22
ENDBRANCH  20  21
ENDBRANCH  19  20
ENDBRANCH  18  19
ENDBRANCH  15  18
ENDBRANCH  11  12
ENDBRANCH  10  11
ENDBRANCH   7  10
ENDBRANCH   6   7
ENDBRANCH   4   6
ENDBRANCH   2   4
TORSDOF 11
ENDMDL
MODEL        9
REMARK 921   NORMALIZED FREE ENERGY PREDICTED BY IDOCK:   -5.31 KCAL/MOL
REMARK 922        TOTAL FREE ENERGY PREDICTED BY IDOCK:  -10.06 KCAL/MOL
REMARK 923 INTER-LIGAND FREE ENERGY PREDICTED BY IDOCK:   -8.30 KCAL/MOL
REMARK 924 INTRA-LIGAND FREE ENERGY PREDICTED BY IDOCK:   -1.76 KCAL/MOL
REMARK 927      BINDING AFFINITY PREDICTED BY RF-SCORE:    0.00 PKD
ROOT
HETATM    1  C   UNL     1     -10.086  10.569  64.857  1.00  0.00    -0.403 C  
HETATM    2  C   UNL     1      -9.787  11.552  63.725  1.00  0.00    -0.319 C  
HETATM    3  C   UNL     1      -9.407  10.778  62.458  1.00  0.00    -0.310 C  
ENDROOT
BRANCH   2   4
HETATM    4  N   UNL     1     -10.925  12.423  63.399  1.00  0.00    -0.582 NA 
HETATM    5  H   UNL     1     -11.244  12.243  62.447  1.00  0.00     0.000 HD 
BRANCH   4   6
HETATM    6  C   UNL     1     -12.055  12.347  64.334  1.00  0.00    -0.426 C  
BRANCH   6   7
HETATM    7  C   UNL     1     -12.775  13.670  64.659  1.00  0.00    -0.149 C  
HETATM    8  O   UNL     1     -12.418  14.640  63.661  1.00  0.00    -1.070 OA 
HETATM    9  H   UNL     1     -12.862  15.456  63.861  1.00  0.00     0.000 HD 
BRANCH   7  10
HETATM   10  C   UNL     1     -12.393  14.207  66.042  1.00  0.00    -0.445 C  
BRANCH  10  11
HETATM   11  O   UNL     1     -11.108  13.666  66.393  1.00  0.00    -0.299 OA 
BRANCH  11  12
HETATM   12  C   UNL     1     -10.190  14.565  66.869  1.00  0.00    -0.264 A  
HETATM   13  C   UNL     1      -9.362  15.366  66.083  1.00  0.00    -0.367 A  
HETATM   14  C   UNL     1      -8.430  16.218  66.682  1.00  0.00    -0.306 A  
HETATM   15  C   UNL     1      -8.325  16.304  68.076  1.00  0.00    -0.165 A  
HETATM   16  C   UNL     1      -9.177  15.516  68.860  1.00  0.00    -0.218 A  
HETATM   17  C   UNL     1     -10.103  14.656  68.259  1.00  0.00    -0.228 A  
BRANCH  15  18
HETATM   18  C   UNL     1      -7.290  17.200  68.713  1.00  0.00    -0.241 C  
BRANCH  18  19
HETATM   19  C   UNL     1      -6.855  18.347  67.799  1.00  0.00    -0.208 C  
BRANCH  19  20
HETATM   20  O   UNL     1      -7.710  19.475  68.001  1.00  0.00    -0.282 OA 
BRANCH  20  21
HETATM   21  C   UNL     1      -8.197  19.965  66.751  1.00  0.00    -0.319 C  
BRANCH  21  22
HETATM   22  C   UNL     1      -9.678  20.142  66.838  1.00  0.00    -0.582 C  
HETATM   23  C   UNL     1     -10.579  19.234  66.036  1.00  0.00    -0.550 C  
HETATM   24  C   UNL     1     -10.543  19.121  67.535  1.00  0.00    -0.567 C  
ENDBRANCH  21  22
ENDBRANCH  20  21
ENDBRANCH  19  20
ENDBRANCH  18  19
ENDBRANCH  15  18
ENDBRANCH  11  12
ENDBRANCH  10  11
ENDBRANCH   7  10
ENDBRANCH   6   7
ENDBRANCH   4   6
ENDBRANCH   2   4
TORSDOF 11
ENDMDL
MODEL       10
REMARK 921   NORMALIZED FREE ENERGY PREDICTED BY IDOCK:   -5.31 KCAL/MOL
REMARK 922        TOTAL FREE ENERGY PREDICTED BY IDOCK:  -10.06 KCAL/MOL
REMARK 923 INTER-LIGAND FREE ENERGY PREDICTED BY IDOCK:   -8.79 KCAL/MOL
REMARK 924 INTRA-LIGAND FREE ENERGY PREDICTED BY IDOCK:   -1.27 KCAL/MOL
REMARK 927      BINDING AFFINITY PREDICTED BY RF-SCORE:    0.00 PKD
ROOT
HETATM    1  C   UNL     1      -9.708   7.496  70.841  1.00  0.00    -0.173 C  
HETATM    2  C   UNL     1     -11.002   6.683  70.805  1.00  0.00    -0.270 C  
HETATM    3  C   UNL     1     -11.196   5.964  72.144  1.00  0.00    -0.342 C  
ENDROOT
BRANCH   2   4
HETATM    4  N   UNL     1     -12.195   7.504  70.555  1.00  0.00    -0.525 NA 
HETATM    5  H   UNL     1     -12.695   7.157  69.736  1.00  0.00     0.000 HD 
BRANCH   4   6
HETATM    6  C   UNL     1     -13.113   7.630  71.694  1.00  0.00    -0.353 C  
BRANCH   6   7
HETATM    7  C   UNL     1     -13.073   8.959  72.472  1.00  0.00    -0.364 C  
HETATM    8  O   UNL     1     -14.205   9.004  73.356  1.00  0.00    -1.202 OA 
HETATM    9  H   UNL     1     -14.181   9.824  73.836  1.00  0.00     0.000 HD 
BRANCH   7  10
HETATM   10  C   UNL     1     -13.116  10.172  71.538  1.00  0.00    -0.429 C  
BRANCH  10  11
HETATM   11  O   UNL     1     -11.776  10.435  71.085  1.00  0.00    -0.352 OA 
BRANCH  11  12
HETATM   12  C   UNL     1     -11.666  11.034  69.858  1.00  0.00    -0.346 A  
HETATM   13  C   UNL     1     -12.003  12.357  69.572  1.00  0.00    -0.324 A  
HETATM   14  C   UNL     1     -11.889  12.847  68.268  1.00  0.00    -0.372 A  
HETATM   15  C   UNL     1     -11.412  12.034  67.232  1.00  0.00    -0.403 A  
HETATM   16  C   UNL     1     -11.050  10.715  67.530  1.00  0.00    -0.367 A  
HETATM   17  C   UNL     1     -11.174  10.222  68.834  1.00  0.00    -0.259 A  
BRANCH  15  18
HETATM   18  C   UNL     1     -11.328  12.563  65.820  1.00  0.00    -0.373 C  
BRANCH  18  19
HETATM   19  C   UNL     1     -12.443  13.557  65.491  1.00  0.00    -0.491 C  
BRANCH  19  20
HETATM   20  O   UNL     1     -11.913  14.638  64.720  1.00  0.00    -0.411 OA 
BRANCH  20  21
HETATM   21  C   UNL     1     -10.520  14.807  64.985  1.00  0.00    -0.416 C  
BRANCH  21  22
HETATM   22  C   UNL     1     -10.291  16.169  65.553  1.00  0.00    -0.391 C  
HETATM   23  C   UNL     1     -10.424  16.382  67.041  1.00  0.00    -0.291 C  
HETATM   24  C   UNL     1      -9.072  16.467  66.391  1.00  0.00    -0.332 C  
ENDBRANCH  21  22
ENDBRANCH  20  21
ENDBRANCH  19  20
ENDBRANCH  18  19
ENDBRANCH  15  18
ENDBRANCH  11  12
ENDBRANCH  10  11
ENDBRANCH   7  10
ENDBRANCH   6   7
ENDBRANCH   4   6
ENDBRANCH   2   4
TORSDOF 11
ENDMDL
MODEL       11
REMARK 921   NORMALIZED FREE ENERGY PREDICTED BY IDOCK:   -5.27 KCAL/MOL
REMARK 922        TOTAL FREE ENERGY PREDICTED BY IDOCK:   -9.99 KCAL/MOL
REMARK 923 INTER-LIGAND FREE ENERGY PREDICTED BY IDOCK:   -9.05 KCAL/MOL
REMARK 924 INTRA-LIGAND FREE ENERGY PREDICTED BY IDOCK:   -0.94 KCAL/MOL
REMARK 927      BINDING AFFINITY PREDICTED BY RF-SCORE:    0.00 PKD
ROOT
HETATM    1  C   UNL     1     -10.316  10.874  64.356  1.00  0.00    -0.430 C  
HETATM    2  C   UNL     1     -10.800  12.111  63.598  1.00  0.00    -0.464 C  
HETATM    3  C   UNL     1     -12.292  12.332  63.869  1.00  0.00    -0.606 C  
ENDROOT
BRANCH   2   4
HETATM    4  N   UNL     1     -10.085  13.338  63.976  1.00  0.00    -0.776 NA 
HETATM    5  H   UNL     1      -9.670  13.772  63.151  1.00  0.00     0.000 HD 
BRANCH   4   6
HETATM    6  C   UNL     1     -10.886  14.322  64.716  1.00  0.00    -0.405 C  
BRANCH   6   7
HETATM    7  C   UNL     1     -10.142  15.172  65.764  1.00  0.00    -0.346 C  
HETATM    8  O   UNL     1      -8.836  14.608  65.966  1.00  0.00    -0.458 OA 
HETATM    9  H   UNL     1      -8.378  15.132  66.612  1.00  0.00     0.000 HD 
BRANCH   7  10
HETATM   10  C   UNL     1     -10.885  15.213  67.103  1.00  0.00    -0.320 C  
BRANCH  10  11
HETATM   11  O   UNL     1     -11.943  14.239  67.057  1.00  0.00    -0.414 OA 
BRANCH  11  12
HETATM   12  C   UNL     1     -11.840  13.203  67.948  1.00  0.00    -0.348 A  
HETATM   13  C   UNL     1     -11.519  11.886  67.620  1.00  0.00    -0.387 A  
HETATM   14  C   UNL     1     -11.487  10.901  68.611  1.00  0.00    -0.380 A  
HETATM   15  C   UNL     1     -11.748  11.218  69.950  1.00  0.00    -0.430 A  
HETATM   16  C   UNL     1     -12.044  12.547  70.277  1.00  0.00    -0.373 A  
HETATM   17  C   UNL     1     -12.086  13.531  69.282  1.00  0.00    -0.335 A  
BRANCH  15  18
HETATM   18  C   UNL     1     -11.746  10.139  71.007  1.00  0.00    -0.470 C  
BRANCH  18  19
HETATM   19  C   UNL     1     -13.107   9.970  71.684  1.00  0.00    -0.445 C  
BRANCH  19  20
HETATM   20  O   UNL     1     -13.298   8.600  72.046  1.00  0.00    -0.347 OA 
BRANCH  20  21
HETATM   21  C   UNL     1     -12.054   8.000  72.410  1.00  0.00    -0.321 C  
BRANCH  21  22
HETATM   22  C   UNL     1     -12.120   6.533  72.135  1.00  0.00    -0.309 C  
HETATM   23  C   UNL     1     -11.005   5.874  71.359  1.00  0.00    -0.327 C  
HETATM   24  C   UNL     1     -11.181   5.571  72.821  1.00  0.00    -0.358 C  
ENDBRANCH  21  22
ENDBRANCH  20  21
ENDBRANCH  19  20
ENDBRANCH  18  19
ENDBRANCH  15  18
ENDBRANCH  11  12
ENDBRANCH  10  11
ENDBRANCH   7  10
ENDBRANCH   6   7
ENDBRANCH   4   6
ENDBRANCH   2   4
TORSDOF 11
ENDMDL
MODEL       12
REMARK 921   NORMALIZED FREE ENERGY PREDICTED BY IDOCK:   -5.26 KCAL/MOL
REMARK 922        TOTAL FREE ENERGY PREDICTED BY IDOCK:   -9.97 KCAL/MOL
REMARK 923 INTER-LIGAND FREE ENERGY PREDICTED BY IDOCK:   -8.30 KCAL/MOL
REMARK 924 INTRA-LIGAND FREE ENERGY PREDICTED BY IDOCK:   -1.68 KCAL/MOL
REMARK 927      BINDING AFFINITY PREDICTED BY RF-SCORE:    0.00 PKD
ROOT
HETATM    1  C   UNL     1     -11.796  11.620  67.943  1.00  0.00    -0.273 C  
HETATM    2  C   UNL     1     -11.140  12.017  66.619  1.00  0.00    -0.310 C  
HETATM    3  C   UNL     1     -10.332  10.836  66.072  1.00  0.00    -0.300 C  
ENDROOT
BRANCH   2   4
HETATM    4  N   UNL     1     -12.109  12.418  65.590  1.00  0.00    -0.584 NA 
HETATM    5  H   UNL     1     -12.855  11.725  65.520  1.00  0.00     0.000 HD 
BRANCH   4   6
HETATM    6  C   UNL     1     -12.681  13.760  65.762  1.00  0.00    -0.446 C  
BRANCH   6   7
HETATM    7  C   UNL     1     -12.409  14.777  64.638  1.00  0.00    -0.333 C  
HETATM    8  O   UNL     1     -12.298  14.065  63.395  1.00  0.00    -1.099 OA 
HETATM    9  H   UNL     1     -12.131  14.692  62.702  1.00  0.00     0.000 HD 
BRANCH   7  10
HETATM   10  C   UNL     1     -11.121  15.571  64.880  1.00  0.00    -0.416 C  
BRANCH  10  11
HETATM   11  O   UNL     1     -10.227  14.747  65.649  1.00  0.00    -0.313 OA 
BRANCH  11  12
HETATM   12  C   UNL     1      -9.470  15.400  66.586  1.00  0.00    -0.259 A  
HETATM   13  C   UNL     1      -9.706  15.396  67.960  1.00  0.00    -0.207 A  
HETATM   14  C   UNL     1      -8.889  16.137  68.818  1.00  0.00    -0.233 A  
HETATM   15  C   UNL     1      -7.806  16.874  68.323  1.00  0.00    -0.208 A  
HETATM   16  C   UNL     1      -7.557  16.853  66.945  1.00  0.00    -0.250 A  
HETATM   17  C   UNL     1      -8.383  16.119  66.086  1.00  0.00    -0.222 A  
BRANCH  15  18
HETATM   18  C   UNL     1      -6.952  17.700  69.255  1.00  0.00    -0.161 C  
BRANCH  18  19
HETATM   19  C   UNL     1      -6.895  19.175  68.856  1.00  0.00    -0.322 C  
BRANCH  19  20
HETATM   20  O   UNL     1      -8.221  19.699  68.754  1.00  0.00    -0.336 OA 
BRANCH  20  21
HETATM   21  C   UNL     1      -8.399  20.376  67.509  1.00  0.00    -0.282 C  
BRANCH  21  22
HETATM   22  C   UNL     1      -9.849  20.370  67.152  1.00  0.00    -0.601 C  
HETATM   23  C   UNL     1     -10.335  19.465  66.046  1.00  0.00    -0.584 C  
HETATM   24  C   UNL     1     -10.724  19.183  67.470  1.00  0.00    -0.555 C  
ENDBRANCH  21  22
ENDBRANCH  20  21
ENDBRANCH  19  20
ENDBRANCH  18  19
ENDBRANCH  15  18
ENDBRANCH  11  12
ENDBRANCH  10  11
ENDBRANCH   7  10
ENDBRANCH   6   7
ENDBRANCH   4   6
ENDBRANCH   2   4
TORSDOF 11
ENDMDL
MODEL       13
REMARK 921   NORMALIZED FREE ENERGY PREDICTED BY IDOCK:   -5.25 KCAL/MOL
REMARK 922        TOTAL FREE ENERGY PREDICTED BY IDOCK:   -9.96 KCAL/MOL
REMARK 923 INTER-LIGAND FREE ENERGY PREDICTED BY IDOCK:   -8.86 KCAL/MOL
REMARK 924 INTRA-LIGAND FREE ENERGY PREDICTED BY IDOCK:   -1.11 KCAL/MOL
REMARK 927      BINDING AFFINITY PREDICTED BY RF-SCORE:    0.00 PKD
ROOT
HETATM    1  C   UNL     1      -9.954  16.809  67.894  1.00  0.00    -0.268 C  
HETATM    2  C   UNL     1      -9.632  16.892  66.401  1.00  0.00    -0.284 C  
HETATM    3  C   UNL     1      -8.190  17.375  66.212  1.00  0.00    -0.288 C  
ENDROOT
BRANCH   2   4
HETATM    4  N   UNL     1      -9.774  15.606  65.705  1.00  0.00    -0.345 NA 
HETATM    5  H   UNL     1      -9.525  14.839  66.330  1.00  0.00     0.000 HD 
BRANCH   4   6
HETATM    6  C   UNL     1     -11.093  15.364  65.107  1.00  0.00    -0.394 C  
BRANCH   6   7
HETATM    7  C   UNL     1     -11.277  14.035  64.349  1.00  0.00    -0.306 C  
HETATM    8  O   UNL     1     -12.414  14.160  63.480  1.00  0.00    -1.076 OA 
HETATM    9  H   UNL     1     -12.528  13.341  63.012  1.00  0.00     0.000 HD 
BRANCH   7  10
HETATM   10  C   UNL     1     -11.497  12.857  65.301  1.00  0.00    -0.313 C  
BRANCH  10  11
HETATM   11  O   UNL     1     -10.673  13.060  66.463  1.00  0.00    -0.274 OA 
BRANCH  11  12
HETATM   12  C   UNL     1     -11.173  12.578  67.643  1.00  0.00    -0.282 A  
HETATM   13  C   UNL     1     -11.405  11.233  67.933  1.00  0.00    -0.367 A  
HETATM   14  C   UNL     1     -11.962  10.863  69.160  1.00  0.00    -0.359 A  
HETATM   15  C   UNL     1     -12.272  11.824  70.130  1.00  0.00    -0.342 A  
HETATM   16  C   UNL     1     -12.012  13.170  69.844  1.00  0.00    -0.387 A  
HETATM   17  C   UNL     1     -11.464  13.541  68.611  1.00  0.00    -0.343 A  
BRANCH  15  18
HETATM   18  C   UNL     1     -12.907  11.416  71.438  1.00  0.00    -0.502 C  
BRANCH  18  19
HETATM   19  C   UNL     1     -13.168  12.603  72.367  1.00  0.00    -0.243 C  
BRANCH  19  20
HETATM   20  O   UNL     1     -14.283  13.356  71.883  1.00  0.00    -0.223 OA 
BRANCH  20  21
HETATM   21  C   UNL     1     -14.228  14.698  72.368  1.00  0.00    -0.380 C  
BRANCH  21  22
HETATM   22  C   UNL     1     -12.884  14.947  72.970  1.00  0.00    -0.586 C  
HETATM   23  C   UNL     1     -11.980  15.988  72.357  1.00  0.00    -0.644 C  
HETATM   24  C   UNL     1     -12.588  16.228  73.711  1.00  0.00    -0.649 C  
ENDBRANCH  21  22
ENDBRANCH  20  21
ENDBRANCH  19  20
ENDBRANCH  18  19
ENDBRANCH  15  18
ENDBRANCH  11  12
ENDBRANCH  10  11
ENDBRANCH   7  10
ENDBRANCH   6   7
ENDBRANCH   4   6
ENDBRANCH   2   4
TORSDOF 11
ENDMDL
MODEL       14
REMARK 921   NORMALIZED FREE ENERGY PREDICTED BY IDOCK:   -5.24 KCAL/MOL
REMARK 922        TOTAL FREE ENERGY PREDICTED BY IDOCK:   -9.94 KCAL/MOL
REMARK 923 INTER-LIGAND FREE ENERGY PREDICTED BY IDOCK:   -9.24 KCAL/MOL
REMARK 924 INTRA-LIGAND FREE ENERGY PREDICTED BY IDOCK:   -0.70 KCAL/MOL
REMARK 927      BINDING AFFINITY PREDICTED BY RF-SCORE:    0.00 PKD
ROOT
HETATM    1  C   UNL     1     -10.852   6.307  67.230  1.00  0.00    -0.457 C  
HETATM    2  C   UNL     1     -10.726   6.199  68.751  1.00  0.00    -0.308 C  
HETATM    3  C   UNL     1      -9.459   6.924  69.215  1.00  0.00    -0.147 C  
ENDROOT
BRANCH   2   4
HETATM    4  N   UNL     1     -11.869   6.780  69.468  1.00  0.00    -0.633 NA 
HETATM    5  H   UNL     1     -12.745   6.444  69.067  1.00  0.00     0.000 HD 
BRANCH   4   6
HETATM    6  C   UNL     1     -11.864   6.569  70.922  1.00  0.00    -0.331 C  
BRANCH   6   7
HETATM    7  C   UNL     1     -12.816   7.450  71.753  1.00  0.00    -0.329 C  
HETATM    8  O   UNL     1     -13.982   7.732  70.963  1.00  0.00    -0.626 OA 
HETATM    9  H   UNL     1     -14.569   8.275  71.475  1.00  0.00     0.000 HD 
BRANCH   7  10
HETATM   10  C   UNL     1     -12.159   8.768  72.172  1.00  0.00    -0.371 C  
BRANCH  10  11
HETATM   11  O   UNL     1     -13.181   9.780  72.225  1.00  0.00    -0.437 OA 
BRANCH  11  12
HETATM   12  C   UNL     1     -12.886  10.961  71.596  1.00  0.00    -0.449 A  
HETATM   13  C   UNL     1     -13.355  12.218  71.978  1.00  0.00    -0.491 A  
HETATM   14  C   UNL     1     -13.021  13.351  71.231  1.00  0.00    -0.368 A  
HETATM   15  C   UNL     1     -12.193  13.254  70.106  1.00  0.00    -0.376 A  
HETATM   16  C   UNL     1     -11.704  11.993  69.743  1.00  0.00    -0.390 A  
HETATM   17  C   UNL     1     -12.047  10.858  70.485  1.00  0.00    -0.464 A  
BRANCH  15  18
HETATM   18  C   UNL     1     -11.869  14.480  69.285  1.00  0.00    -0.361 C  
BRANCH  18  19
HETATM   19  C   UNL     1     -11.195  14.142  67.955  1.00  0.00    -0.279 C  
BRANCH  19  20
HETATM   20  O   UNL     1     -12.189  13.819  66.979  1.00  0.00    -0.401 OA 
BRANCH  20  21
HETATM   21  C   UNL     1     -11.833  12.628  66.276  1.00  0.00    -0.410 C  
BRANCH  21  22
HETATM   22  C   UNL     1     -12.494  12.635  64.936  1.00  0.00    -0.564 C  
HETATM   23  C   UNL     1     -12.116  13.693  63.929  1.00  0.00    -0.462 C  
HETATM   24  C   UNL     1     -11.730  12.260  63.690  1.00  0.00    -0.591 C  
ENDBRANCH  21  22
ENDBRANCH  20  21
ENDBRANCH  19  20
ENDBRANCH  18  19
ENDBRANCH  15  18
ENDBRANCH  11  12
ENDBRANCH  10  11
ENDBRANCH   7  10
ENDBRANCH   6   7
ENDBRANCH   4   6
ENDBRANCH   2   4
TORSDOF 11
ENDMDL
MODEL       15
REMARK 921   NORMALIZED FREE ENERGY PREDICTED BY IDOCK:   -5.23 KCAL/MOL
REMARK 922        TOTAL FREE ENERGY PREDICTED BY IDOCK:   -9.93 KCAL/MOL
REMARK 923 INTER-LIGAND FREE ENERGY PREDICTED BY IDOCK:   -8.26 KCAL/MOL
REMARK 924 INTRA-LIGAND FREE ENERGY PREDICTED BY IDOCK:   -1.67 KCAL/MOL
REMARK 927      BINDING AFFINITY PREDICTED BY RF-SCORE:    0.00 PKD
ROOT
HETATM    1  C   UNL     1     -12.502  15.504  73.729  1.00  0.00    -0.748 C  
HETATM    2  C   UNL     1     -12.658  14.703  72.435  1.00  0.00    -0.328 C  
HETATM    3  C   UNL     1     -13.925  15.154  71.700  1.00  0.00    -0.618 C  
ENDROOT
BRANCH   2   4
HETATM    4  N   UNL     1     -11.522  14.860  71.517  1.00  0.00    -0.527 NA 
HETATM    5  H   UNL     1     -11.001  13.985  71.450  1.00  0.00     0.000 HD 
BRANCH   4   6
HETATM    6  C   UNL     1     -11.869  15.347  70.175  1.00  0.00    -0.335 C  
BRANCH   6   7
HETATM    7  C   UNL     1     -11.264  14.581  68.983  1.00  0.00    -0.268 C  
HETATM    8  O   UNL     1     -12.174  14.672  67.874  1.00  0.00    -0.593 OA 
HETATM    9  H   UNL     1     -11.801  14.200  67.139  1.00  0.00     0.000 HD 
BRANCH   7  10
HETATM   10  C   UNL     1     -11.018  13.106  69.313  1.00  0.00    -0.078 C  
BRANCH  10  11
HETATM   11  O   UNL     1     -12.256  12.538  69.776  1.00  0.00    -0.234 OA 
BRANCH  11  12
HETATM   12  C   UNL     1     -12.150  11.377  70.494  1.00  0.00    -0.394 A  
HETATM   13  C   UNL     1     -13.047  10.947  71.471  1.00  0.00    -0.503 A  
HETATM   14  C   UNL     1     -12.811   9.761  72.172  1.00  0.00    -0.448 A  
HETATM   15  C   UNL     1     -11.691   8.969  71.891  1.00  0.00    -0.445 A  
HETATM   16  C   UNL     1     -10.808   9.392  70.890  1.00  0.00    -0.392 A  
HETATM   17  C   UNL     1     -11.039  10.585  70.197  1.00  0.00    -0.369 A  
BRANCH  15  18
HETATM   18  C   UNL     1     -11.427   7.708  72.679  1.00  0.00    -0.403 C  
BRANCH  18  19
HETATM   19  C   UNL     1      -9.949   7.524  73.027  1.00  0.00    -0.268 C  
BRANCH  19  20
HETATM   20  O   UNL     1      -9.395   6.471  72.234  1.00  0.00    -0.140 OA 
BRANCH  20  21
HETATM   21  C   UNL     1     -10.412   5.547  71.846  1.00  0.00    -0.225 C  
BRANCH  21  22
HETATM   22  C   UNL     1     -10.231   5.195  70.406  1.00  0.00    -0.334 C  
HETATM   23  C   UNL     1     -10.972   5.982  69.353  1.00  0.00    -0.455 C  
HETATM   24  C   UNL     1      -9.479   6.109  69.471  1.00  0.00    -0.156 C  
ENDBRANCH  21  22
ENDBRANCH  20  21
ENDBRANCH  19  20
ENDBRANCH  18  19
ENDBRANCH  15  18
ENDBRANCH  11  12
ENDBRANCH  10  11
ENDBRANCH   7  10
ENDBRANCH   6   7
ENDBRANCH   4   6
ENDBRANCH   2   4
TORSDOF 11
ENDMDL
MODEL       16
REMARK 921   NORMALIZED FREE ENERGY PREDICTED BY IDOCK:   -5.22 KCAL/MOL
REMARK 922        TOTAL FREE ENERGY PREDICTED BY IDOCK:   -9.91 KCAL/MOL
REMARK 923 INTER-LIGAND FREE ENERGY PREDICTED BY IDOCK:   -7.86 KCAL/MOL
REMARK 924 INTRA-LIGAND FREE ENERGY PREDICTED BY IDOCK:   -2.05 KCAL/MOL
REMARK 927      BINDING AFFINITY PREDICTED BY RF-SCORE:    0.00 PKD
ROOT
HETATM    1  C   UNL     1     -14.009  14.581  72.116  1.00  0.00    -0.597 C  
HETATM    2  C   UNL     1     -12.744  15.137  71.460  1.00  0.00    -0.358 C  
HETATM    3  C   UNL     1     -12.049  16.106  72.423  1.00  0.00    -0.630 C  
ENDROOT
BRANCH   2   4
HETATM    4  N   UNL     1     -11.777  14.095  71.091  1.00  0.00    -0.487 NA 
HETATM    5  H   UNL     1     -11.158  13.895  71.876  1.00  0.00     0.000 HD 
BRANCH   4   6
HETATM    6  C   UNL     1     -12.368  12.850  70.581  1.00  0.00    -0.302 C  
BRANCH   6   7
HETATM    7  C   UNL     1     -11.806  12.310  69.252  1.00  0.00    -0.306 C  
HETATM    8  O   UNL     1     -10.482  11.807  69.488  1.00  0.00    -0.432 OA 
HETATM    9  H   UNL     1     -10.135  11.474  68.669  1.00  0.00     0.000 HD 
BRANCH   7  10
HETATM   10  C   UNL     1     -11.748  13.394  68.171  1.00  0.00    -0.362 C  
BRANCH  10  11
HETATM   11  O   UNL     1     -10.633  14.255  68.460  1.00  0.00    -0.243 OA 
BRANCH  11  12
HETATM   12  C   UNL     1     -10.604  15.445  67.782  1.00  0.00    -0.274 A  
HETATM   13  C   UNL     1     -10.383  15.588  66.412  1.00  0.00    -0.303 A  
HETATM   14  C   UNL     1     -10.332  16.860  65.836  1.00  0.00    -0.327 A  
HETATM   15  C   UNL     1     -10.527  18.010  66.610  1.00  0.00    -0.332 A  
HETATM   16  C   UNL     1     -10.776  17.859  67.980  1.00  0.00    -0.307 A  
HETATM   17  C   UNL     1     -10.816  16.585  68.558  1.00  0.00    -0.349 A  
BRANCH  15  18
HETATM   18  C   UNL     1     -10.434  19.381  65.983  1.00  0.00    -0.596 C  
BRANCH  18  19
HETATM   19  C   UNL     1      -9.727  20.397  66.881  1.00  0.00    -0.426 C  
BRANCH  19  20
HETATM   20  O   UNL     1      -8.311  20.262  66.740  1.00  0.00    -0.302 OA 
BRANCH  20  21
HETATM   21  C   UNL     1      -7.698  20.054  68.013  1.00  0.00    -0.266 C  
BRANCH  21  22
HETATM   22  C   UNL     1      -6.719  18.930  67.908  1.00  0.00    -0.230 C  
HETATM   23  C   UNL     1      -7.171  17.524  68.219  1.00  0.00    -0.217 C  
HETATM   24  C   UNL     1      -6.828  17.905  66.806  1.00  0.00    -0.220 C  
ENDBRANCH  21  22
ENDBRANCH  20  21
ENDBRANCH  19  20
ENDBRANCH  18  19
ENDBRANCH  15  18
ENDBRANCH  11  12
ENDBRANCH  10  11
ENDBRANCH   7  10
ENDBRANCH   6   7
ENDBRANCH   4   6
ENDBRANCH   2   4
TORSDOF 11
ENDMDL
MODEL       17
REMARK 921   NORMALIZED FREE ENERGY PREDICTED BY IDOCK:   -5.21 KCAL/MOL
REMARK 922        TOTAL FREE ENERGY PREDICTED BY IDOCK:   -9.89 KCAL/MOL
REMARK 923 INTER-LIGAND FREE ENERGY PREDICTED BY IDOCK:   -8.10 KCAL/MOL
REMARK 924 INTRA-LIGAND FREE ENERGY PREDICTED BY IDOCK:   -1.79 KCAL/MOL
REMARK 927      BINDING AFFINITY PREDICTED BY RF-SCORE:    0.00 PKD
ROOT
HETATM    1  C   UNL     1     -11.968  14.787  64.550  1.00  0.00    -0.451 C  
HETATM    2  C   UNL     1     -12.457  13.339  64.611  1.00  0.00    -0.349 C  
HETATM    3  C   UNL     1     -11.669  12.486  63.612  1.00  0.00    -0.594 C  
ENDROOT
BRANCH   2   4
HETATM    4  N   UNL     1     -12.306  12.733  65.941  1.00  0.00    -0.576 NA 
HETATM    5  H   UNL     1     -13.187  12.314  66.239  1.00  0.00     0.000 HD 
BRANCH   4   6
HETATM    6  C   UNL     1     -11.215  11.757  66.060  1.00  0.00    -0.296 C  
BRANCH   6   7
HETATM    7  C   UNL     1     -10.935  11.198  67.468  1.00  0.00    -0.275 C  
HETATM    8  O   UNL     1     -12.192  10.979  68.129  1.00  0.00    -0.765 OA 
HETATM    9  H   UNL     1     -12.020  10.635  68.998  1.00  0.00     0.000 HD 
BRANCH   7  10
HETATM   10  C   UNL     1     -10.085  12.157  68.308  1.00  0.00    -0.210 C  
BRANCH  10  11
HETATM   11  O   UNL     1     -10.673  13.468  68.222  1.00  0.00    -0.243 OA 
BRANCH  11  12
HETATM   12  C   UNL     1      -9.792  14.514  68.144  1.00  0.00    -0.223 A  
HETATM   13  C   UNL     1      -9.571  15.459  69.145  1.00  0.00    -0.253 A  
HETATM   14  C   UNL     1      -8.676  16.512  68.935  1.00  0.00    -0.247 A  
HETATM   15  C   UNL     1      -7.968  16.626  67.732  1.00  0.00    -0.182 A  
HETATM   16  C   UNL     1      -8.175  15.659  66.740  1.00  0.00    -0.300 A  
HETATM   17  C   UNL     1      -9.079  14.611  66.948  1.00  0.00    -0.272 A  
BRANCH  15  18
HETATM   18  C   UNL     1      -7.031  17.788  67.502  1.00  0.00    -0.189 C  
BRANCH  18  19
HETATM   19  C   UNL     1      -6.917  18.174  66.026  1.00  0.00    -0.292 C  
BRANCH  19  20
HETATM   20  O   UNL     1      -7.928  19.131  65.698  1.00  0.00    -0.433 OA 
BRANCH  20  21
HETATM   21  C   UNL     1      -8.034  20.118  66.724  1.00  0.00    -0.302 C  
BRANCH  21  22
HETATM   22  C   UNL     1      -9.477  20.337  67.045  1.00  0.00    -0.546 C  
HETATM   23  C   UNL     1     -10.447  19.189  66.909  1.00  0.00    -0.527 C  
HETATM   24  C   UNL     1     -10.102  19.722  68.272  1.00  0.00    -0.575 C  
ENDBRANCH  21  22
ENDBRANCH  20  21
ENDBRANCH  19  20
ENDBRANCH  18  19
ENDBRANCH  15  18
ENDBRANCH  11  12
ENDBRANCH  10  11
ENDBRANCH   7  10
ENDBRANCH   6   7
ENDBRANCH   4   6
ENDBRANCH   2   4
TORSDOF 11
ENDMDL
MODEL       18
REMARK 921   NORMALIZED FREE ENERGY PREDICTED BY IDOCK:   -5.18 KCAL/MOL
REMARK 922        TOTAL FREE ENERGY PREDICTED BY IDOCK:   -9.84 KCAL/MOL
REMARK 923 INTER-LIGAND FREE ENERGY PREDICTED BY IDOCK:   -7.76 KCAL/MOL
REMARK 924 INTRA-LIGAND FREE ENERGY PREDICTED BY IDOCK:   -2.08 KCAL/MOL
REMARK 927      BINDING AFFINITY PREDICTED BY RF-SCORE:    0.00 PKD
ROOT
HETATM    1  C   UNL     1     -10.613  19.167  65.844  1.00  0.00    -0.495 C  
HETATM    2  C   UNL     1      -9.990  20.294  66.668  1.00  0.00    -0.426 C  
HETATM    3  C   UNL     1     -10.181  20.006  68.161  1.00  0.00    -0.535 C  
ENDROOT
BRANCH   2   4
HETATM    4  N   UNL     1      -8.552  20.465  66.421  1.00  0.00    -0.551 NA 
HETATM    5  H   UNL     1      -8.295  21.449  66.502  1.00  0.00     0.000 HD 
BRANCH   4   6
HETATM    6  C   UNL     1      -7.674  19.641  67.262  1.00  0.00    -0.254 C  
BRANCH   6   7
HETATM    7  C   UNL     1      -6.913  18.500  66.560  1.00  0.00    -0.213 C  
HETATM    8  O   UNL     1      -6.851  18.791  65.154  1.00  0.00    -0.512 OA 
HETATM    9  H   UNL     1      -6.382  18.088  64.721  1.00  0.00     0.000 HD 
BRANCH   7  10
HETATM   10  C   UNL     1      -7.596  17.144  66.764  1.00  0.00    -0.239 C  
BRANCH  10  11
HETATM   11  O   UNL     1      -8.386  17.217  67.963  1.00  0.00    -0.215 OA 
BRANCH  11  12
HETATM   12  C   UNL     1      -9.297  16.210  68.142  1.00  0.00    -0.201 A  
HETATM   13  C   UNL     1     -10.670  16.385  68.315  1.00  0.00    -0.337 A  
HETATM   14  C   UNL     1     -11.499  15.280  68.533  1.00  0.00    -0.355 A  
HETATM   15  C   UNL     1     -10.977  13.982  68.555  1.00  0.00    -0.274 A  
HETATM   16  C   UNL     1      -9.602  13.810  68.354  1.00  0.00    -0.206 A  
HETATM   17  C   UNL     1      -8.771  14.917  68.147  1.00  0.00    -0.164 A  
BRANCH  15  18
HETATM   18  C   UNL     1     -11.876  12.799  68.828  1.00  0.00    -0.346 C  
BRANCH  18  19
HETATM   19  C   UNL     1     -11.616  11.625  67.882  1.00  0.00    -0.298 C  
BRANCH  19  20
HETATM   20  O   UNL     1     -12.161  11.916  66.593  1.00  0.00    -0.587 OA 
BRANCH  20  21
HETATM   21  C   UNL     1     -11.128  11.938  65.606  1.00  0.00    -0.310 C  
BRANCH  21  22
HETATM   22  C   UNL     1     -11.391  13.053  64.648  1.00  0.00    -0.361 C  
HETATM   23  C   UNL     1     -12.268  14.205  65.075  1.00  0.00    -0.450 C  
HETATM   24  C   UNL     1     -10.795  14.422  64.865  1.00  0.00    -0.430 C  
ENDBRANCH  21  22
ENDBRANCH  20  21
ENDBRANCH  19  20
ENDBRANCH  18  19
ENDBRANCH  15  18
ENDBRANCH  11  12
ENDBRANCH  10  11
ENDBRANCH   7  10
ENDBRANCH   6   7
ENDBRANCH   4   6
ENDBRANCH   2   4
TORSDOF 11
ENDMDL
MODEL       19
REMARK 921   NORMALIZED FREE ENERGY PREDICTED BY IDOCK:   -5.15 KCAL/MOL
REMARK 922        TOTAL FREE ENERGY PREDICTED BY IDOCK:   -9.79 KCAL/MOL
REMARK 923 INTER-LIGAND FREE ENERGY PREDICTED BY IDOCK:   -8.41 KCAL/MOL
REMARK 924 INTRA-LIGAND FREE ENERGY PREDICTED BY IDOCK:   -1.39 KCAL/MOL
REMARK 927      BINDING AFFINITY PREDICTED BY RF-SCORE:    0.00 PKD
ROOT
HETATM    1  C   UNL     1     -10.845   5.728  71.647  1.00  0.00    -0.316 C  
HETATM    2  C   UNL     1     -11.095   6.681  70.477  1.00  0.00    -0.307 C  
HETATM    3  C   UNL     1     -10.743   5.982  69.160  1.00  0.00    -0.399 C  
ENDROOT
BRANCH   2   4
HETATM    4  N   UNL     1     -12.489   7.136  70.389  1.00  0.00    -0.596 NA 
HETATM    5  H   UNL     1     -13.028   6.505  69.795  1.00  0.00     0.000 HD 
BRANCH   4   6
HETATM    6  C   UNL     1     -13.167   7.319  71.679  1.00  0.00    -0.366 C  
BRANCH   6   7
HETATM    7  C   UNL     1     -12.965   8.675  72.381  1.00  0.00    -0.351 C  
HETATM    8  O   UNL     1     -14.081   8.906  73.257  1.00  0.00    -1.211 OA 
HETATM    9  H   UNL     1     -13.956   9.742  73.690  1.00  0.00     0.000 HD 
BRANCH   7  10
HETATM   10  C   UNL     1     -12.863   9.830  71.380  1.00  0.00    -0.392 C  
BRANCH  10  11
HETATM   11  O   UNL     1     -11.470  10.128  71.181  1.00  0.00    -0.357 OA 
BRANCH  11  12
HETATM   12  C   UNL     1     -11.075  10.302  69.881  1.00  0.00    -0.304 A  
HETATM   13  C   UNL     1     -11.892  10.748  68.842  1.00  0.00    -0.287 A  
HETATM   14  C   UNL     1     -11.389  10.846  67.542  1.00  0.00    -0.309 A  
HETATM   15  C   UNL     1     -10.056  10.525  67.260  1.00  0.00    -0.242 A  
HETATM   16  C   UNL     1      -9.233  10.103  68.311  1.00  0.00    -0.130 A  
HETATM   17  C   UNL     1      -9.740   9.996  69.611  1.00  0.00    -0.255 A  
BRANCH  15  18
HETATM   18  C   UNL     1      -9.533  10.599  65.845  1.00  0.00    -0.239 C  
BRANCH  18  19
HETATM   19  C   UNL     1     -10.623  10.935  64.826  1.00  0.00    -0.246 C  
BRANCH  19  20
HETATM   20  O   UNL     1     -10.413  12.254  64.313  1.00  0.00    -0.301 OA 
BRANCH  20  21
HETATM   21  C   UNL     1     -11.607  12.752  63.710  1.00  0.00    -0.481 C  
BRANCH  21  22
HETATM   22  C   UNL     1     -11.969  14.055  64.345  1.00  0.00    -0.480 C  
HETATM   23  C   UNL     1     -12.195  14.113  65.836  1.00  0.00    -0.458 C  
HETATM   24  C   UNL     1     -10.993  14.785  65.233  1.00  0.00    -0.382 C  
ENDBRANCH  21  22
ENDBRANCH  20  21
ENDBRANCH  19  20
ENDBRANCH  18  19
ENDBRANCH  15  18
ENDBRANCH  11  12
ENDBRANCH  10  11
ENDBRANCH   7  10
ENDBRANCH   6   7
ENDBRANCH   4   6
ENDBRANCH   2   4
TORSDOF 11
ENDMDL
MODEL       20
REMARK 921   NORMALIZED FREE ENERGY PREDICTED BY IDOCK:   -5.14 KCAL/MOL
REMARK 922        TOTAL FREE ENERGY PREDICTED BY IDOCK:   -9.78 KCAL/MOL
REMARK 923 INTER-LIGAND FREE ENERGY PREDICTED BY IDOCK:   -8.94 KCAL/MOL
REMARK 924 INTRA-LIGAND FREE ENERGY PREDICTED BY IDOCK:   -0.84 KCAL/MOL
REMARK 927      BINDING AFFINITY PREDICTED BY RF-SCORE:    0.00 PKD
ROOT
HETATM    1  C   UNL     1     -10.602   6.797  68.484  1.00  0.00    -0.265 C  
HETATM    2  C   UNL     1     -11.504   6.591  69.702  1.00  0.00    -0.352 C  
HETATM    3  C   UNL     1     -10.794   5.695  70.723  1.00  0.00    -0.294 C  
ENDROOT
BRANCH   2   4
HETATM    4  N   UNL     1     -11.863   7.846  70.375  1.00  0.00    -0.472 NA 
HETATM    5  H   UNL     1     -12.400   8.442  69.745  1.00  0.00     0.000 HD 
BRANCH   4   6
HETATM    6  C   UNL     1     -12.574   7.687  71.651  1.00  0.00    -0.339 C  
BRANCH   6   7
HETATM    7  C   UNL     1     -12.934   8.980  72.409  1.00  0.00    -0.405 C  
HETATM    8  O   UNL     1     -14.134   8.746  73.164  1.00  0.00    -1.089 OA 
HETATM    9  H   UNL     1     -14.356   9.542  73.631  1.00  0.00     0.000 HD 
BRANCH   7  10
HETATM   10  C   UNL     1     -13.159  10.159  71.458  1.00  0.00    -0.429 C  
BRANCH  10  11
HETATM   11  O   UNL     1     -11.875  10.609  70.991  1.00  0.00    -0.336 OA 
BRANCH  11  12
HETATM   12  C   UNL     1     -11.894  11.482  69.936  1.00  0.00    -0.355 A  
HETATM   13  C   UNL     1     -11.676  11.141  68.601  1.00  0.00    -0.389 A  
HETATM   14  C   UNL     1     -11.677  12.128  67.612  1.00  0.00    -0.386 A  
HETATM   15  C   UNL     1     -11.922  13.469  67.933  1.00  0.00    -0.372 A  
HETATM   16  C   UNL     1     -12.166  13.802  69.271  1.00  0.00    -0.307 A  
HETATM   17  C   UNL     1     -12.155  12.814  70.262  1.00  0.00    -0.373 A  
BRANCH  15  18
HETATM   18  C   UNL     1     -11.884  14.533  66.862  1.00  0.00    -0.399 C  
BRANCH  18  19
HETATM   19  C   UNL     1     -10.510  14.662  66.202  1.00  0.00    -0.302 C  
BRANCH  19  20
HETATM   20  O   UNL     1     -10.231  16.039  65.937  1.00  0.00    -0.321 OA 
BRANCH  20  21
HETATM   21  C   UNL     1     -10.517  16.838  67.086  1.00  0.00    -0.299 C  
BRANCH  21  22
HETATM   22  C   UNL     1      -9.891  18.184  66.914  1.00  0.00    -0.331 C  
HETATM   23  C   UNL     1     -10.583  19.219  66.061  1.00  0.00    -0.550 C  
HETATM   24  C   UNL     1     -10.498  19.410  67.550  1.00  0.00    -0.577 C  
ENDBRANCH  21  22
ENDBRANCH  20  21
ENDBRANCH  19  20
ENDBRANCH  18  19
ENDBRANCH  15  18
ENDBRANCH  11  12
ENDBRANCH  10  11
ENDBRANCH   7  10
ENDBRANCH   6   7
ENDBRANCH   4   6
ENDBRANCH   2   4
TORSDOF 11
ENDMDL
MODEL       21
REMARK 921   NORMALIZED FREE ENERGY PREDICTED BY IDOCK:   -5.11 KCAL/MOL
REMARK 922        TOTAL FREE ENERGY PREDICTED BY IDOCK:   -9.73 KCAL/MOL
REMARK 923 INTER-LIGAND FREE ENERGY PREDICTED BY IDOCK:   -8.29 KCAL/MOL
REMARK 924 INTRA-LIGAND FREE ENERGY PREDICTED BY IDOCK:   -1.44 KCAL/MOL
REMARK 927      BINDING AFFINITY PREDICTED BY RF-SCORE:    0.00 PKD
ROOT
HETATM    1  C   UNL     1     -10.868  19.490  66.848  1.00  0.00    -0.523 C  
HETATM    2  C   UNL     1      -9.569  20.221  67.193  1.00  0.00    -0.443 C  
HETATM    3  C   UNL     1      -8.908  19.552  68.403  1.00  0.00    -0.389 C  
ENDROOT
BRANCH   2   4
HETATM    4  N   UNL     1      -8.597  20.225  66.092  1.00  0.00    -0.568 NA 
HETATM    5  H   UNL     1      -8.761  21.026  65.481  1.00  0.00     0.000 HD 
BRANCH   4   6
HETATM    6  C   UNL     1      -7.188  20.183  66.505  1.00  0.00    -0.262 C  
BRANCH   6   7
HETATM    7  C   UNL     1      -6.282  19.174  65.773  1.00  0.00    -0.214 C  
HETATM    8  O   UNL     1      -6.510  19.299  64.360  1.00  0.00    -0.415 OA 
HETATM    9  H   UNL     1      -5.951  18.677  63.909  1.00  0.00     0.000 HD 
BRANCH   7  10
HETATM   10  C   UNL     1      -6.564  17.732  66.204  1.00  0.00    -0.274 C  
BRANCH  10  11
HETATM   11  O   UNL     1      -7.878  17.375  65.739  1.00  0.00    -0.526 OA 
BRANCH  11  12
HETATM   12  C   UNL     1      -8.532  16.420  66.472  1.00  0.00    -0.301 A  
HETATM   13  C   UNL     1      -8.136  15.951  67.724  1.00  0.00    -0.155 A  
HETATM   14  C   UNL     1      -8.861  14.939  68.359  1.00  0.00    -0.178 A  
HETATM   15  C   UNL     1     -10.008  14.395  67.768  1.00  0.00    -0.226 A  
HETATM   16  C   UNL     1     -10.416  14.888  66.522  1.00  0.00    -0.297 A  
HETATM   17  C   UNL     1      -9.683  15.894  65.882  1.00  0.00    -0.386 A  
BRANCH  15  18
HETATM   18  C   UNL     1     -10.762  13.276  68.446  1.00  0.00    -0.273 C  
BRANCH  18  19
HETATM   19  C   UNL     1     -12.100  13.732  69.030  1.00  0.00    -0.322 C  
BRANCH  19  20
HETATM   20  O   UNL     1     -11.904  14.224  70.358  1.00  0.00    -0.290 OA 
BRANCH  20  21
HETATM   21  C   UNL     1     -12.578  15.470  70.535  1.00  0.00    -0.416 C  
BRANCH  21  22
HETATM   22  C   UNL     1     -13.428  15.398  71.761  1.00  0.00    -0.581 C  
HETATM   23  C   UNL     1     -14.124  14.103  72.103  1.00  0.00    -0.643 C  
HETATM   24  C   UNL     1     -12.993  14.595  72.962  1.00  0.00    -0.610 C  
ENDBRANCH  21  22
ENDBRANCH  20  21
ENDBRANCH  19  20
ENDBRANCH  18  19
ENDBRANCH  15  18
ENDBRANCH  11  12
ENDBRANCH  10  11
ENDBRANCH   7  10
ENDBRANCH   6   7
ENDBRANCH   4   6
ENDBRANCH   2   4
TORSDOF 11
ENDMDL
MODEL       22
REMARK 921   NORMALIZED FREE ENERGY PREDICTED BY IDOCK:   -5.10 KCAL/MOL
REMARK 922        TOTAL FREE ENERGY PREDICTED BY IDOCK:   -9.70 KCAL/MOL
REMARK 923 INTER-LIGAND FREE ENERGY PREDICTED BY IDOCK:   -8.16 KCAL/MOL
REMARK 924 INTRA-LIGAND FREE ENERGY PREDICTED BY IDOCK:   -1.54 KCAL/MOL
REMARK 927      BINDING AFFINITY PREDICTED BY RF-SCORE:    0.00 PKD
ROOT
HETATM    1  C   UNL     1     -13.918  15.111  71.538  1.00  0.00    -0.614 C  
HETATM    2  C   UNL     1     -12.450  15.473  71.309  1.00  0.00    -0.425 C  
HETATM    3  C   UNL     1     -11.875  16.118  72.575  1.00  0.00    -0.630 C  
ENDROOT
BRANCH   2   4
HETATM    4  N   UNL     1     -11.613  14.314  70.972  1.00  0.00    -0.516 NA 
HETATM    5  H   UNL     1     -10.919  14.156  71.703  1.00  0.00     0.000 HD 
BRANCH   4   6
HETATM    6  C   UNL     1     -12.350  13.073  70.697  1.00  0.00    -0.310 C  
BRANCH   6   7
HETATM    7  C   UNL     1     -11.909  12.265  69.461  1.00  0.00    -0.315 C  
HETATM    8  O   UNL     1     -10.840  11.386  69.849  1.00  0.00    -0.461 OA 
HETATM    9  H   UNL     1     -10.568  10.888  69.087  1.00  0.00     0.000 HD 
BRANCH   7  10
HETATM   10  C   UNL     1     -11.427  13.172  68.324  1.00  0.00    -0.314 C  
BRANCH  10  11
HETATM   11  O   UNL     1      -9.991  13.107  68.277  1.00  0.00    -0.228 OA 
BRANCH  11  12
HETATM   12  C   UNL     1      -9.351  14.264  67.920  1.00  0.00    -0.198 A  
HETATM   13  C   UNL     1      -9.278  14.779  66.626  1.00  0.00    -0.300 A  
HETATM   14  C   UNL     1      -8.557  15.950  66.374  1.00  0.00    -0.364 A  
HETATM   15  C   UNL     1      -7.920  16.641  67.412  1.00  0.00    -0.186 A  
HETATM   16  C   UNL     1      -8.020  16.134  68.713  1.00  0.00    -0.216 A  
HETATM   17  C   UNL     1      -8.733  14.956  68.963  1.00  0.00    -0.177 A  
BRANCH  15  18
HETATM   18  C   UNL     1      -7.114  17.885  67.122  1.00  0.00    -0.206 C  
BRANCH  18  19
HETATM   19  C   UNL     1      -6.996  18.811  68.334  1.00  0.00    -0.257 C  
BRANCH  19  20
HETATM   20  O   UNL     1      -8.180  19.606  68.450  1.00  0.00    -0.334 OA 
BRANCH  20  21
HETATM   21  C   UNL     1      -8.388  20.370  67.262  1.00  0.00    -0.335 C  
BRANCH  21  22
HETATM   22  C   UNL     1      -9.854  20.450  66.983  1.00  0.00    -0.594 C  
HETATM   23  C   UNL     1     -10.435  19.645  65.846  1.00  0.00    -0.591 C  
HETATM   24  C   UNL     1     -10.764  19.281  67.267  1.00  0.00    -0.594 C  
ENDBRANCH  21  22
ENDBRANCH  20  21
ENDBRANCH  19  20
ENDBRANCH  18  19
ENDBRANCH  15  18
ENDBRANCH  11  12
ENDBRANCH  10  11
ENDBRANCH   7  10
ENDBRANCH   6   7
ENDBRANCH   4   6
ENDBRANCH   2   4
TORSDOF 11
ENDMDL
MODEL       23
REMARK 921   NORMALIZED FREE ENERGY PREDICTED BY IDOCK:   -5.09 KCAL/MOL
REMARK 922        TOTAL FREE ENERGY PREDICTED BY IDOCK:   -9.70 KCAL/MOL
REMARK 923 INTER-LIGAND FREE ENERGY PREDICTED BY IDOCK:   -7.73 KCAL/MOL
REMARK 924 INTRA-LIGAND FREE ENERGY PREDICTED BY IDOCK:   -1.97 KCAL/MOL
REMARK 927      BINDING AFFINITY PREDICTED BY RF-SCORE:    0.00 PKD
ROOT
HETATM    1  C   UNL     1     -12.548  11.785  63.670  1.00  0.00    -0.458 C  
HETATM    2  C   UNL     1     -11.652  12.988  63.371  1.00  0.00    -0.342 C  
HETATM    3  C   UNL     1     -12.037  14.157  64.283  1.00  0.00    -0.471 C  
ENDROOT
BRANCH   2   4
HETATM    4  N   UNL     1     -10.223  12.709  63.571  1.00  0.00    -0.605 NA 
HETATM    5  H   UNL     1      -9.959  12.901  64.538  1.00  0.00     0.000 HD 
BRANCH   4   6
HETATM    6  C   UNL     1      -9.792  11.359  63.186  1.00  0.00    -0.388 C  
BRANCH   6   7
HETATM    7  C   UNL     1      -8.950  10.581  64.216  1.00  0.00    -0.216 C  
HETATM    8  O   UNL     1      -9.582   9.314  64.458  1.00  0.00    -0.379 OA 
HETATM    9  H   UNL     1      -9.063   8.834  65.092  1.00  0.00     0.000 HD 
BRANCH   7  10
HETATM   10  C   UNL     1      -8.818  11.340  65.540  1.00  0.00    -0.088 C  
BRANCH  10  11
HETATM   11  O   UNL     1     -10.040  11.165  66.279  1.00  0.00    -0.217 OA 
BRANCH  11  12
HETATM   12  C   UNL     1     -10.493  12.267  66.955  1.00  0.00    -0.216 A  
HETATM   13  C   UNL     1     -11.765  12.407  67.509  1.00  0.00    -0.425 A  
HETATM   14  C   UNL     1     -12.131  13.599  68.141  1.00  0.00    -0.310 A  
HETATM   15  C   UNL     1     -11.226  14.661  68.254  1.00  0.00    -0.301 A  
HETATM   16  C   UNL     1      -9.941  14.505  67.719  1.00  0.00    -0.225 A  
HETATM   17  C   UNL     1      -9.579  13.315  67.078  1.00  0.00    -0.243 A  
BRANCH  15  18
HETATM   18  C   UNL     1     -11.644  15.958  68.906  1.00  0.00    -0.392 C  
BRANCH  18  19
HETATM   19  C   UNL     1     -10.763  16.334  70.098  1.00  0.00    -0.246 C  
BRANCH  19  20
HETATM   20  O   UNL     1     -10.958  15.393  71.157  1.00  0.00    -0.345 OA 
BRANCH  20  21
HETATM   21  C   UNL     1     -11.895  15.897  72.109  1.00  0.00    -0.517 C  
BRANCH  21  22
HETATM   22  C   UNL     1     -12.966  14.878  72.328  1.00  0.00    -0.423 C  
HETATM   23  C   UNL     1     -14.151  14.838  71.394  1.00  0.00    -0.508 C  
HETATM   24  C   UNL     1     -13.145  13.721  71.376  1.00  0.00    -0.413 C  
ENDBRANCH  21  22
ENDBRANCH  20  21
ENDBRANCH  19  20
ENDBRANCH  18  19
ENDBRANCH  15  18
ENDBRANCH  11  12
ENDBRANCH  10  11
ENDBRANCH   7  10
ENDBRANCH   6   7
ENDBRANCH   4   6
ENDBRANCH   2   4
TORSDOF 11
ENDMDL
MODEL       24
REMARK 921   NORMALIZED FREE ENERGY PREDICTED BY IDOCK:   -5.08 KCAL/MOL
REMARK 922        TOTAL FREE ENERGY PREDICTED BY IDOCK:   -9.69 KCAL/MOL
REMARK 923 INTER-LIGAND FREE ENERGY PREDICTED BY IDOCK:   -8.42 KCAL/MOL
REMARK 924 INTRA-LIGAND FREE ENERGY PREDICTED BY IDOCK:   -1.26 KCAL/MOL
REMARK 927      BINDING AFFINITY PREDICTED BY RF-SCORE:    0.00 PKD
ROOT
HETATM    1  C   UNL     1     -12.024  13.783  68.021  1.00  0.00    -0.390 C  
HETATM    2  C   UNL     1     -11.653  14.888  69.010  1.00  0.00    -0.305 C  
HETATM    3  C   UNL     1     -11.047  16.075  68.254  1.00  0.00    -0.351 C  
ENDROOT
BRANCH   2   4
HETATM    4  N   UNL     1     -12.801  15.383  69.782  1.00  0.00    -0.602 NA 
HETATM    5  H   UNL     1     -13.650  14.889  69.507  1.00  0.00     0.000 HD 
BRANCH   4   6
HETATM    6  C   UNL     1     -12.638  15.335  71.241  1.00  0.00    -0.383 C  
BRANCH   6   7
HETATM    7  C   UNL     1     -13.817  14.762  72.051  1.00  0.00    -0.448 C  
HETATM    8  O   UNL     1     -13.845  15.408  73.334  1.00  0.00    -0.580 OA 
HETATM    9  H   UNL     1     -14.571  15.055  73.834  1.00  0.00     0.000 HD 
BRANCH   7  10
HETATM   10  C   UNL     1     -13.693  13.248  72.252  1.00  0.00    -0.589 C  
BRANCH  10  11
HETATM   11  O   UNL     1     -12.831  12.730  71.224  1.00  0.00    -0.359 OA 
BRANCH  11  12
HETATM   12  C   UNL     1     -12.583  11.383  71.274  1.00  0.00    -0.374 A  
HETATM   13  C   UNL     1     -13.278  10.463  72.059  1.00  0.00    -0.497 A  
HETATM   14  C   UNL     1     -12.906   9.116  72.061  1.00  0.00    -0.483 A  
HETATM   15  C   UNL     1     -11.851   8.659  71.262  1.00  0.00    -0.344 A  
HETATM   16  C   UNL     1     -11.173   9.583  70.457  1.00  0.00    -0.345 A  
HETATM   17  C   UNL     1     -11.540  10.933  70.463  1.00  0.00    -0.397 A  
BRANCH  15  18
HETATM   18  C   UNL     1     -11.433   7.208  71.301  1.00  0.00    -0.314 C  
BRANCH  18  19
HETATM   19  C   UNL     1     -11.704   6.478  69.984  1.00  0.00    -0.322 C  
BRANCH  19  20
HETATM   20  O   UNL     1     -10.547   6.550  69.147  1.00  0.00    -0.200 OA 
BRANCH  20  21
HETATM   21  C   UNL     1     -10.909   6.376  67.777  1.00  0.00    -0.334 C  
BRANCH  21  22
HETATM   22  C   UNL     1     -10.040   7.244  66.926  1.00  0.00    -0.317 C  
HETATM   23  C   UNL     1     -10.299   8.730  66.880  1.00  0.00    -0.344 C  
HETATM   24  C   UNL     1      -9.058   8.206  67.547  1.00  0.00    -0.147 C  
ENDBRANCH  21  22
ENDBRANCH  20  21
ENDBRANCH  19  20
ENDBRANCH  18  19
ENDBRANCH  15  18
ENDBRANCH  11  12
ENDBRANCH  10  11
ENDBRANCH   7  10
ENDBRANCH   6   7
ENDBRANCH   4   6
ENDBRANCH   2   4
TORSDOF 11
ENDMDL
MODEL       25
REMARK 921   NORMALIZED FREE ENERGY PREDICTED BY IDOCK:   -5.07 KCAL/MOL
REMARK 922        TOTAL FREE ENERGY PREDICTED BY IDOCK:   -9.66 KCAL/MOL
REMARK 923 INTER-LIGAND FREE ENERGY PREDICTED BY IDOCK:   -7.72 KCAL/MOL
REMARK 924 INTRA-LIGAND FREE ENERGY PREDICTED BY IDOCK:   -1.94 KCAL/MOL
REMARK 927      BINDING AFFINITY PREDICTED BY RF-SCORE:    0.00 PKD
ROOT
HETATM    1  C   UNL     1     -12.231  13.402  63.686  1.00  0.00    -0.480 C  
HETATM    2  C   UNL     1     -11.877  12.097  64.402  1.00  0.00    -0.358 C  
HETATM    3  C   UNL     1     -10.443  11.689  64.049  1.00  0.00    -0.418 C  
ENDROOT
BRANCH   2   4
HETATM    4  N   UNL     1     -11.973  12.195  65.865  1.00  0.00    -0.571 NA 
HETATM    5  H   UNL     1     -12.930  12.012  66.168  1.00  0.00     0.000 HD 
BRANCH   4   6
HETATM    6  C   UNL     1     -11.035  11.344  66.608  1.00  0.00    -0.285 C  
BRANCH   6   7
HETATM    7  C   UNL     1     -11.067  11.455  68.145  1.00  0.00    -0.248 C  
HETATM    8  O   UNL     1     -12.328  10.949  68.611  1.00  0.00    -0.805 OA 
HETATM    9  H   UNL     1     -12.349  11.017  69.559  1.00  0.00     0.000 HD 
BRANCH   7  10
HETATM   10  C   UNL     1     -10.898  12.901  68.619  1.00  0.00    -0.258 C  
BRANCH  10  11
HETATM   11  O   UNL     1     -10.099  13.600  67.648  1.00  0.00    -0.235 OA 
BRANCH  11  12
HETATM   12  C   UNL     1     -10.231  14.964  67.635  1.00  0.00    -0.236 A  
HETATM   13  C   UNL     1     -10.433  15.766  68.758  1.00  0.00    -0.228 A  
HETATM   14  C   UNL     1     -10.597  17.147  68.618  1.00  0.00    -0.352 A  
HETATM   15  C   UNL     1     -10.537  17.754  67.358  1.00  0.00    -0.341 A  
HETATM   16  C   UNL     1     -10.308  16.947  66.236  1.00  0.00    -0.312 A  
HETATM   17  C   UNL     1     -10.154  15.563  66.377  1.00  0.00    -0.301 A  
BRANCH  15  18
HETATM   18  C   UNL     1     -10.753  19.242  67.213  1.00  0.00    -0.594 C  
BRANCH  18  19
HETATM   19  C   UNL     1      -9.924  19.855  66.084  1.00  0.00    -0.487 C  
BRANCH  19  20
HETATM   20  O   UNL     1      -8.624  20.197  66.571  1.00  0.00    -0.310 OA 
BRANCH  20  21
HETATM   21  C   UNL     1      -7.613  19.549  65.798  1.00  0.00    -0.229 C  
BRANCH  21  22
HETATM   22  C   UNL     1      -6.652  18.871  66.719  1.00  0.00    -0.203 C  
HETATM   23  C   UNL     1      -7.114  18.455  68.094  1.00  0.00    -0.256 C  
HETATM   24  C   UNL     1      -6.802  17.409  67.061  1.00  0.00    -0.216 C  
ENDBRANCH  21  22
ENDBRANCH  20  21
ENDBRANCH  19  20
ENDBRANCH  18  19
ENDBRANCH  15  18
ENDBRANCH  11  12
ENDBRANCH  10  11
ENDBRANCH   7  10
ENDBRANCH   6   7
ENDBRANCH   4   6
ENDBRANCH   2   4
TORSDOF 11
ENDMDL
MODEL       26
REMARK 921   NORMALIZED FREE ENERGY PREDICTED BY IDOCK:   -5.07 KCAL/MOL
REMARK 922        TOTAL FREE ENERGY PREDICTED BY IDOCK:   -9.66 KCAL/MOL
REMARK 923 INTER-LIGAND FREE ENERGY PREDICTED BY IDOCK:   -8.41 KCAL/MOL
REMARK 924 INTRA-LIGAND FREE ENERGY PREDICTED BY IDOCK:   -1.25 KCAL/MOL
REMARK 927      BINDING AFFINITY PREDICTED BY RF-SCORE:    0.00 PKD
ROOT
HETATM    1  C   UNL     1     -10.388  10.938  64.549  1.00  0.00    -0.417 C  
HETATM    2  C   UNL     1     -10.731  12.057  63.565  1.00  0.00    -0.455 C  
HETATM    3  C   UNL     1     -12.253  12.175  63.428  1.00  0.00    -0.635 C  
ENDROOT
BRANCH   2   4
HETATM    4  N   UNL     1     -10.211  13.369  63.975  1.00  0.00    -0.752 NA 
HETATM    5  H   UNL     1      -9.808  13.854  63.173  1.00  0.00     0.000 HD 
BRANCH   4   6
HETATM    6  C   UNL     1     -11.179  14.236  64.659  1.00  0.00    -0.366 C  
BRANCH   6   7
HETATM    7  C   UNL     1     -10.995  14.417  66.178  1.00  0.00    -0.320 C  
HETATM    8  O   UNL     1      -9.646  14.059  66.519  1.00  0.00    -0.277 OA 
HETATM    9  H   UNL     1      -9.532  14.170  67.456  1.00  0.00     0.000 HD 
BRANCH   7  10
HETATM   10  C   UNL     1     -11.966  13.546  66.981  1.00  0.00    -0.394 C  
BRANCH  10  11
HETATM   11  O   UNL     1     -11.706  13.760  68.380  1.00  0.00    -0.316 OA 
BRANCH  11  12
HETATM   12  C   UNL     1     -11.716  12.639  69.168  1.00  0.00    -0.321 A  
HETATM   13  C   UNL     1     -11.158  11.408  68.827  1.00  0.00    -0.290 A  
HETATM   14  C   UNL     1     -11.268  10.319  69.697  1.00  0.00    -0.322 A  
HETATM   15  C   UNL     1     -11.914  10.447  70.933  1.00  0.00    -0.478 A  
HETATM   16  C   UNL     1     -12.449  11.694  71.281  1.00  0.00    -0.371 A  
HETATM   17  C   UNL     1     -12.348  12.780  70.405  1.00  0.00    -0.324 A  
BRANCH  15  18
HETATM   18  C   UNL     1     -12.059   9.255  71.849  1.00  0.00    -0.440 C  
BRANCH  18  19
HETATM   19  C   UNL     1     -10.729   8.554  72.125  1.00  0.00    -0.356 C  
BRANCH  19  20
HETATM   20  O   UNL     1     -10.917   7.136  72.100  1.00  0.00    -0.228 OA 
BRANCH  20  21
HETATM   21  C   UNL     1     -11.786   6.765  71.030  1.00  0.00    -0.376 C  
BRANCH  21  22
HETATM   22  C   UNL     1     -11.000   6.029  69.994  1.00  0.00    -0.450 C  
HETATM   23  C   UNL     1     -10.963   6.556  68.580  1.00  0.00    -0.363 C  
HETATM   24  C   UNL     1      -9.725   6.606  69.431  1.00  0.00    -0.153 C  
ENDBRANCH  21  22
ENDBRANCH  20  21
ENDBRANCH  19  20
ENDBRANCH  18  19
ENDBRANCH  15  18
ENDBRANCH  11  12
ENDBRANCH  10  11
ENDBRANCH   7  10
ENDBRANCH   6   7
ENDBRANCH   4   6
ENDBRANCH   2   4
TORSDOF 11
ENDMDL
MODEL       27
REMARK 921   NORMALIZED FREE ENERGY PREDICTED BY IDOCK:   -5.06 KCAL/MOL
REMARK 922        TOTAL FREE ENERGY PREDICTED BY IDOCK:   -9.64 KCAL/MOL
REMARK 923 INTER-LIGAND FREE ENERGY PREDICTED BY IDOCK:   -8.72 KCAL/MOL
REMARK 924 INTRA-LIGAND FREE ENERGY PREDICTED BY IDOCK:   -0.92 KCAL/MOL
REMARK 927      BINDING AFFINITY PREDICTED BY RF-SCORE:    0.00 PKD
ROOT
HETATM    1  C   UNL     1     -10.608  19.447  67.036  1.00  0.00    -0.586 C  
HETATM    2  C   UNL     1      -9.974  18.061  66.916  1.00  0.00    -0.340 C  
HETATM    3  C   UNL     1     -10.527  17.145  68.014  1.00  0.00    -0.369 C  
ENDROOT
BRANCH   2   4
HETATM    4  N   UNL     1     -10.229  17.417  65.620  1.00  0.00    -0.616 NA 
HETATM    5  H   UNL     1      -9.512  17.687  64.947  1.00  0.00     0.000 HD 
BRANCH   4   6
HETATM    6  C   UNL     1     -10.358  15.955  65.666  1.00  0.00    -0.390 C  
BRANCH   6   7
HETATM    7  C   UNL     1     -11.253  15.305  64.593  1.00  0.00    -0.356 C  
HETATM    8  O   UNL     1     -11.744  16.337  63.722  1.00  0.00    -1.511 OA 
HETATM    9  H   UNL     1     -12.296  15.936  63.061  1.00  0.00     0.000 HD 
BRANCH   7  10
HETATM   10  C   UNL     1     -12.441  14.561  65.211  1.00  0.00    -0.279 C  
BRANCH  10  11
HETATM   11  O   UNL     1     -12.610  13.321  64.502  1.00  0.00    -0.599 OA 
BRANCH  11  12
HETATM   12  C   UNL     1     -11.726  12.324  64.820  1.00  0.00    -0.358 A  
HETATM   13  C   UNL     1     -11.463  11.859  66.109  1.00  0.00    -0.352 A  
HETATM   14  C   UNL     1     -10.504  10.864  66.317  1.00  0.00    -0.304 A  
HETATM   15  C   UNL     1      -9.810  10.296  65.242  1.00  0.00    -0.372 A  
HETATM   16  C   UNL     1     -10.097  10.748  63.947  1.00  0.00    -0.397 A  
HETATM   17  C   UNL     1     -11.050  11.752  63.741  1.00  0.00    -0.513 A  
BRANCH  15  18
HETATM   18  C   UNL     1      -8.751   9.247  65.482  1.00  0.00    -0.204 C  
BRANCH  18  19
HETATM   19  C   UNL     1      -7.877   9.554  66.698  1.00  0.00    -0.101 C  
BRANCH  19  20
HETATM   20  O   UNL     1      -8.301   8.761  67.810  1.00  0.00    -0.117 OA 
BRANCH  20  21
HETATM   21  C   UNL     1      -8.473   7.399  67.416  1.00  0.00    -0.119 C  
BRANCH  21  22
HETATM   22  C   UNL     1      -9.756   6.884  67.983  1.00  0.00    -0.138 C  
HETATM   23  C   UNL     1     -10.933   6.661  67.065  1.00  0.00    -0.463 C  
HETATM   24  C   UNL     1     -10.232   5.484  67.684  1.00  0.00    -0.241 C  
ENDBRANCH  21  22
ENDBRANCH  20  21
ENDBRANCH  19  20
ENDBRANCH  18  19
ENDBRANCH  15  18
ENDBRANCH  11  12
ENDBRANCH  10  11
ENDBRANCH   7  10
ENDBRANCH   6   7
ENDBRANCH   4   6
ENDBRANCH   2   4
TORSDOF 11
ENDMDL
MODEL       28
REMARK 921   NORMALIZED FREE ENERGY PREDICTED BY IDOCK:   -5.04 KCAL/MOL
REMARK 922        TOTAL FREE ENERGY PREDICTED BY IDOCK:   -9.62 KCAL/MOL
REMARK 923 INTER-LIGAND FREE ENERGY PREDICTED BY IDOCK:   -7.70 KCAL/MOL
REMARK 924 INTRA-LIGAND FREE ENERGY PREDICTED BY IDOCK:   -1.92 KCAL/MOL
REMARK 927      BINDING AFFINITY PREDICTED BY RF-SCORE:    0.00 PKD
ROOT
HETATM    1  C   UNL     1     -12.487  13.942  65.149  1.00  0.00    -0.479 C  
HETATM    2  C   UNL     1     -12.247  13.276  66.504  1.00  0.00    -0.327 C  
HETATM    3  C   UNL     1     -10.893  12.559  66.493  1.00  0.00    -0.287 C  
ENDROOT
BRANCH   2   4
HETATM    4  N   UNL     1     -12.246  14.226  67.624  1.00  0.00    -0.597 NA 
HETATM    5  H   UNL     1     -13.120  14.753  67.639  1.00  0.00     0.000 HD 
BRANCH   4   6
HETATM    6  C   UNL     1     -11.990  13.634  68.943  1.00  0.00    -0.356 C  
BRANCH   6   7
HETATM    7  C   UNL     1     -11.912  14.606  70.136  1.00  0.00    -0.313 C  
HETATM    8  O   UNL     1     -13.172  15.286  70.253  1.00  0.00    -0.667 OA 
HETATM    9  H   UNL     1     -13.124  15.885  70.989  1.00  0.00     0.000 HD 
BRANCH   7  10
HETATM   10  C   UNL     1     -10.796  15.641  69.961  1.00  0.00    -0.330 C  
BRANCH  10  11
HETATM   11  O   UNL     1      -9.649  14.973  69.406  1.00  0.00    -0.202 OA 
BRANCH  11  12
HETATM   12  C   UNL     1      -8.923  15.690  68.492  1.00  0.00    -0.192 A  
HETATM   13  C   UNL     1      -9.133  15.688  67.113  1.00  0.00    -0.227 A  
HETATM   14  C   UNL     1      -8.297  16.429  66.273  1.00  0.00    -0.362 A  
HETATM   15  C   UNL     1      -7.256  17.205  66.795  1.00  0.00    -0.260 A  
HETATM   16  C   UNL     1      -7.067  17.225  68.182  1.00  0.00    -0.190 A  
HETATM   17  C   UNL     1      -7.897  16.474  69.022  1.00  0.00    -0.226 A  
BRANCH  15  18
HETATM   18  C   UNL     1      -6.337  17.973  65.874  1.00  0.00    -0.294 C  
BRANCH  18  19
HETATM   19  C   UNL     1      -6.687  19.459  65.791  1.00  0.00    -0.258 C  
BRANCH  19  20
HETATM   20  O   UNL     1      -8.105  19.626  65.872  1.00  0.00    -0.366 OA 
BRANCH  20  21
HETATM   21  C   UNL     1      -8.442  20.545  66.912  1.00  0.00    -0.181 C  
BRANCH  21  22
HETATM   22  C   UNL     1      -9.884  20.377  67.265  1.00  0.00    -0.597 C  
HETATM   23  C   UNL     1     -10.683  19.279  66.607  1.00  0.00    -0.504 C  
HETATM   24  C   UNL     1     -10.353  19.191  68.071  1.00  0.00    -0.483 C  
ENDBRANCH  21  22
ENDBRANCH  20  21
ENDBRANCH  19  20
ENDBRANCH  18  19
ENDBRANCH  15  18
ENDBRANCH  11  12
ENDBRANCH  10  11
ENDBRANCH   7  10
ENDBRANCH   6   7
ENDBRANCH   4   6
ENDBRANCH   2   4
TORSDOF 11
ENDMDL
MODEL       29
REMARK 921   NORMALIZED FREE ENERGY PREDICTED BY IDOCK:   -5.04 KCAL/MOL
REMARK 922        TOTAL FREE ENERGY PREDICTED BY IDOCK:   -9.62 KCAL/MOL
REMARK 923 INTER-LIGAND FREE ENERGY PREDICTED BY IDOCK:   -8.67 KCAL/MOL
REMARK 924 INTRA-LIGAND FREE ENERGY PREDICTED BY IDOCK:   -0.95 KCAL/MOL
REMARK 927      BINDING AFFINITY PREDICTED BY RF-SCORE:    0.00 PKD
ROOT
HETATM    1  C   UNL     1      -9.063   6.328  68.794  1.00  0.00    -0.127 C  
HETATM    2  C   UNL     1     -10.418   6.775  68.244  1.00  0.00    -0.206 C  
HETATM    3  C   UNL     1     -10.691   6.068  66.911  1.00  0.00    -0.407 C  
ENDROOT
BRANCH   2   4
HETATM    4  N   UNL     1     -11.537   6.481  69.149  1.00  0.00    -0.624 NA 
HETATM    5  H   UNL     1     -12.075   5.688  68.798  1.00  0.00     0.000 HD 
BRANCH   4   6
HETATM    6  C   UNL     1     -11.161   6.256  70.551  1.00  0.00    -0.335 C  
BRANCH   6   7
HETATM    7  C   UNL     1     -12.149   6.756  71.622  1.00  0.00    -0.359 C  
HETATM    8  O   UNL     1     -13.419   6.998  70.994  1.00  0.00    -0.472 OA 
HETATM    9  H   UNL     1     -14.028   7.306  71.654  1.00  0.00     0.000 HD 
BRANCH   7  10
HETATM   10  C   UNL     1     -11.665   8.046  72.292  1.00  0.00    -0.371 C  
BRANCH  10  11
HETATM   11  O   UNL     1     -12.744   8.997  72.264  1.00  0.00    -0.380 OA 
BRANCH  11  12
HETATM   12  C   UNL     1     -12.546  10.104  71.483  1.00  0.00    -0.434 A  
HETATM   13  C   UNL     1     -11.779  10.144  70.319  1.00  0.00    -0.361 A  
HETATM   14  C   UNL     1     -11.613  11.346  69.626  1.00  0.00    -0.399 A  
HETATM   15  C   UNL     1     -12.229  12.523  70.067  1.00  0.00    -0.262 A  
HETATM   16  C   UNL     1     -13.020  12.472  71.221  1.00  0.00    -0.301 A  
HETATM   17  C   UNL     1     -13.177  11.270  71.921  1.00  0.00    -0.491 A  
BRANCH  15  18
HETATM   18  C   UNL     1     -12.012  13.824  69.331  1.00  0.00    -0.397 C  
BRANCH  18  19
HETATM   19  C   UNL     1     -11.328  14.887  70.192  1.00  0.00    -0.260 C  
BRANCH  19  20
HETATM   20  O   UNL     1     -12.299  15.827  70.660  1.00  0.00    -0.408 OA 
BRANCH  20  21
HETATM   21  C   UNL     1     -11.896  16.382  71.912  1.00  0.00    -0.361 C  
BRANCH  21  22
HETATM   22  C   UNL     1     -12.832  15.916  72.978  1.00  0.00    -0.615 C  
HETATM   23  C   UNL     1     -12.377  14.855  73.950  1.00  0.00    -0.572 C  
HETATM   24  C   UNL     1     -12.596  16.264  74.427  1.00  0.00    -0.523 C  
ENDBRANCH  21  22
ENDBRANCH  20  21
ENDBRANCH  19  20
ENDBRANCH  18  19
ENDBRANCH  15  18
ENDBRANCH  11  12
ENDBRANCH  10  11
ENDBRANCH   7  10
ENDBRANCH   6   7
ENDBRANCH   4   6
ENDBRANCH   2   4
TORSDOF 11
ENDMDL
MODEL       30
REMARK 921   NORMALIZED FREE ENERGY PREDICTED BY IDOCK:   -5.01 KCAL/MOL
REMARK 922        TOTAL FREE ENERGY PREDICTED BY IDOCK:   -9.56 KCAL/MOL
REMARK 923 INTER-LIGAND FREE ENERGY PREDICTED BY IDOCK:   -8.07 KCAL/MOL
REMARK 924 INTRA-LIGAND FREE ENERGY PREDICTED BY IDOCK:   -1.49 KCAL/MOL
REMARK 927      BINDING AFFINITY PREDICTED BY RF-SCORE:    0.00 PKD
ROOT
HETATM    1  C   UNL     1     -12.149  14.166  66.754  1.00  0.00    -0.474 C  
HETATM    2  C   UNL     1     -12.777  13.854  65.395  1.00  0.00    -0.490 C  
HETATM    3  C   UNL     1     -12.196  14.792  64.332  1.00  0.00    -0.447 C  
ENDROOT
BRANCH   2   4
HETATM    4  N   UNL     1     -12.545  12.471  64.954  1.00  0.00    -0.653 NA 
HETATM    5  H   UNL     1     -13.408  11.932  65.020  1.00  0.00     0.000 HD 
BRANCH   4   6
HETATM    6  C   UNL     1     -11.964  12.335  63.612  1.00  0.00    -0.543 C  
BRANCH   6   7
HETATM    7  C   UNL     1     -10.505  11.844  63.535  1.00  0.00    -0.459 C  
HETATM    8  O   UNL     1     -10.474  10.628  62.769  1.00  0.00    -0.724 OA 
HETATM    9  H   UNL     1      -9.575  10.325  62.722  1.00  0.00     0.000 HD 
BRANCH   7  10
HETATM   10  C   UNL     1      -9.915  11.579  64.924  1.00  0.00    -0.259 C  
BRANCH  10  11
HETATM   11  O   UNL     1     -10.274  10.243  65.316  1.00  0.00    -0.307 OA 
BRANCH  11  12
HETATM   12  C   UNL     1     -10.340  10.012  66.664  1.00  0.00    -0.213 A  
HETATM   13  C   UNL     1     -10.405   8.756  67.266  1.00  0.00    -0.360 A  
HETATM   14  C   UNL     1     -10.514   8.645  68.655  1.00  0.00    -0.208 A  
HETATM   15  C   UNL     1     -10.535   9.784  69.469  1.00  0.00    -0.250 A  
HETATM   16  C   UNL     1     -10.443  11.042  68.861  1.00  0.00    -0.229 A  
HETATM   17  C   UNL     1     -10.344  11.153  67.470  1.00  0.00    -0.228 A  
BRANCH  15  18
HETATM   18  C   UNL     1     -10.690   9.654  70.966  1.00  0.00    -0.393 C  
BRANCH  18  19
HETATM   19  C   UNL     1     -12.045   9.073  71.373  1.00  0.00    -0.327 C  
BRANCH  19  20
HETATM   20  O   UNL     1     -11.850   7.853  72.093  1.00  0.00    -0.300 OA 
BRANCH  20  21
HETATM   21  C   UNL     1     -12.118   6.729  71.255  1.00  0.00    -0.370 C  
BRANCH  21  22
HETATM   22  C   UNL     1     -11.017   5.731  71.409  1.00  0.00    -0.304 C  
HETATM   23  C   UNL     1     -10.318   5.204  70.179  1.00  0.00    -0.340 C  
HETATM   24  C   UNL     1      -9.583   6.106  71.130  1.00  0.00    -0.193 C  
ENDBRANCH  21  22
ENDBRANCH  20  21
ENDBRANCH  19  20
ENDBRANCH  18  19
ENDBRANCH  15  18
ENDBRANCH  11  12
ENDBRANCH  10  11
ENDBRANCH   7  10
ENDBRANCH   6   7
ENDBRANCH   4   6
ENDBRANCH   2   4
TORSDOF 11
ENDMDL
MODEL       31
REMARK 921   NORMALIZED FREE ENERGY PREDICTED BY IDOCK:   -5.00 KCAL/MOL
REMARK 922        TOTAL FREE ENERGY PREDICTED BY IDOCK:   -9.54 KCAL/MOL
REMARK 923 INTER-LIGAND FREE ENERGY PREDICTED BY IDOCK:   -8.35 KCAL/MOL
REMARK 924 INTRA-LIGAND FREE ENERGY PREDICTED BY IDOCK:   -1.20 KCAL/MOL
REMARK 927      BINDING AFFINITY PREDICTED BY RF-SCORE:    0.00 PKD
ROOT
HETATM    1  C   UNL     1      -8.751  10.012  67.160  1.00  0.00    -0.132 C  
HETATM    2  C   UNL     1      -9.326   8.838  66.368  1.00  0.00    -0.204 C  
HETATM    3  C   UNL     1     -10.547   8.271  67.099  1.00  0.00    -0.340 C  
ENDROOT
BRANCH   2   4
HETATM    4  N   UNL     1      -9.744   9.206  65.008  1.00  0.00    -0.367 NA 
HETATM    5  H   UNL     1     -10.748   9.384  64.985  1.00  0.00     0.000 HD 
BRANCH   4   6
HETATM    6  C   UNL     1      -9.015  10.336  64.418  1.00  0.00    -0.227 C  
BRANCH   6   7
HETATM    7  C   UNL     1      -9.685  11.045  63.225  1.00  0.00    -0.364 C  
HETATM    8  O   UNL     1      -8.656  11.542  62.354  1.00  0.00    -0.573 OA 
HETATM    9  H   UNL     1      -9.069  11.979  61.618  1.00  0.00     0.000 HD 
BRANCH   7  10
HETATM   10  C   UNL     1     -10.571  12.211  63.675  1.00  0.00    -0.461 C  
BRANCH  10  11
HETATM   11  O   UNL     1     -11.379  11.760  64.776  1.00  0.00    -0.308 OA 
BRANCH  11  12
HETATM   12  C   UNL     1     -11.486  12.625  65.833  1.00  0.00    -0.363 A  
HETATM   13  C   UNL     1     -11.720  12.255  67.157  1.00  0.00    -0.396 A  
HETATM   14  C   UNL     1     -11.853  13.231  68.148  1.00  0.00    -0.388 A  
HETATM   15  C   UNL     1     -11.729  14.591  67.840  1.00  0.00    -0.381 A  
HETATM   16  C   UNL     1     -11.468  14.956  66.514  1.00  0.00    -0.286 A  
HETATM   17  C   UNL     1     -11.345  13.978  65.520  1.00  0.00    -0.313 A  
BRANCH  15  18
HETATM   18  C   UNL     1     -11.912  15.640  68.913  1.00  0.00    -0.298 C  
BRANCH  18  19
HETATM   19  C   UNL     1     -10.765  15.660  69.924  1.00  0.00    -0.322 C  
BRANCH  19  20
HETATM   20  O   UNL     1     -11.291  15.777  71.248  1.00  0.00    -0.358 OA 
BRANCH  20  21
HETATM   21  C   UNL     1     -12.701  15.550  71.248  1.00  0.00    -0.462 C  
BRANCH  21  22
HETATM   22  C   UNL     1     -13.191  15.511  72.659  1.00  0.00    -0.579 C  
HETATM   23  C   UNL     1     -12.345  14.845  73.717  1.00  0.00    -0.570 C  
HETATM   24  C   UNL     1     -12.529  16.337  73.734  1.00  0.00    -0.655 C  
ENDBRANCH  21  22
ENDBRANCH  20  21
ENDBRANCH  19  20
ENDBRANCH  18  19
ENDBRANCH  15  18
ENDBRANCH  11  12
ENDBRANCH  10  11
ENDBRANCH   7  10
ENDBRANCH   6   7
ENDBRANCH   4   6
ENDBRANCH   2   4
TORSDOF 11
ENDMDL
MODEL       32
REMARK 921   NORMALIZED FREE ENERGY PREDICTED BY IDOCK:   -4.99 KCAL/MOL
REMARK 922        TOTAL FREE ENERGY PREDICTED BY IDOCK:   -9.53 KCAL/MOL
REMARK 923 INTER-LIGAND FREE ENERGY PREDICTED BY IDOCK:   -7.55 KCAL/MOL
REMARK 924 INTRA-LIGAND FREE ENERGY PREDICTED BY IDOCK:   -1.99 KCAL/MOL
REMARK 927      BINDING AFFINITY PREDICTED BY RF-SCORE:    0.00 PKD
ROOT
HETATM    1  C   UNL     1      -9.626  11.686  67.816  1.00  0.00    -0.178 C  
HETATM    2  C   UNL     1     -11.080  11.213  67.849  1.00  0.00    -0.273 C  
HETATM    3  C   UNL     1     -11.682  11.496  69.229  1.00  0.00    -0.397 C  
ENDROOT
BRANCH   2   4
HETATM    4  N   UNL     1     -11.925  11.870  66.843  1.00  0.00    -0.591 NA 
HETATM    5  H   UNL     1     -11.960  12.875  67.014  1.00  0.00     0.000 HD 
BRANCH   4   6
HETATM    6  C   UNL     1     -11.551  11.606  65.447  1.00  0.00    -0.026 C  
BRANCH   6   7
HETATM    7  C   UNL     1     -12.289  12.420  64.367  1.00  0.00    -0.447 C  
HETATM    8  O   UNL     1     -12.101  11.771  63.099  1.00  0.00    -0.855 OA 
HETATM    9  H   UNL     1     -12.556  12.273  62.433  1.00  0.00     0.000 HD 
BRANCH   7  10
HETATM   10  C   UNL     1     -11.771  13.859  64.278  1.00  0.00    -0.380 C  
BRANCH  10  11
HETATM   11  O   UNL     1     -10.698  14.007  65.226  1.00  0.00    -0.318 OA 
BRANCH  11  12
HETATM   12  C   UNL     1     -10.649  15.204  65.890  1.00  0.00    -0.337 A  
HETATM   13  C   UNL     1     -10.589  15.356  67.276  1.00  0.00    -0.294 A  
HETATM   14  C   UNL     1     -10.587  16.633  67.845  1.00  0.00    -0.342 A  
HETATM   15  C   UNL     1     -10.617  17.779  67.042  1.00  0.00    -0.266 A  
HETATM   16  C   UNL     1     -10.650  17.621  65.651  1.00  0.00    -0.137 A  
HETATM   17  C   UNL     1     -10.663  16.342  65.082  1.00  0.00    -0.309 A  
BRANCH  15  18
HETATM   18  C   UNL     1     -10.651  19.153  67.669  1.00  0.00    -0.546 C  
BRANCH  18  19
HETATM   19  C   UNL     1      -9.920  20.205  66.833  1.00  0.00    -0.462 C  
BRANCH  19  20
HETATM   20  O   UNL     1      -8.550  20.273  67.236  1.00  0.00    -0.333 OA 
BRANCH  20  21
HETATM   21  C   UNL     1      -7.690  19.941  66.145  1.00  0.00    -0.325 C  
BRANCH  21  22
HETATM   22  C   UNL     1      -6.715  18.901  66.591  1.00  0.00    -0.211 C  
HETATM   23  C   UNL     1      -7.109  17.935  67.681  1.00  0.00    -0.202 C  
HETATM   24  C   UNL     1      -6.933  17.443  66.271  1.00  0.00    -0.319 C  
ENDBRANCH  21  22
ENDBRANCH  20  21
ENDBRANCH  19  20
ENDBRANCH  18  19
ENDBRANCH  15  18
ENDBRANCH  11  12
ENDBRANCH  10  11
ENDBRANCH   7  10
ENDBRANCH   6   7
ENDBRANCH   4   6
ENDBRANCH   2   4
TORSDOF 11
ENDMDL
MODEL       33
REMARK 921   NORMALIZED FREE ENERGY PREDICTED BY IDOCK:   -4.95 KCAL/MOL
REMARK 922        TOTAL FREE ENERGY PREDICTED BY IDOCK:   -9.47 KCAL/MOL
REMARK 923 INTER-LIGAND FREE ENERGY PREDICTED BY IDOCK:   -8.27 KCAL/MOL
REMARK 924 INTRA-LIGAND FREE ENERGY PREDICTED BY IDOCK:   -1.19 KCAL/MOL
REMARK 927      BINDING AFFINITY PREDICTED BY RF-SCORE:    0.00 PKD
ROOT
HETATM    1  C   UNL     1     -12.634  11.838  63.541  1.00  0.00    -0.485 C  
HETATM    2  C   UNL     1     -11.710  13.055  63.477  1.00  0.00    -0.471 C  
HETATM    3  C   UNL     1     -11.965  13.959  64.688  1.00  0.00    -0.443 C  
ENDROOT
BRANCH   2   4
HETATM    4  N   UNL     1     -10.285  12.701  63.469  1.00  0.00    -0.605 NA 
HETATM    5  H   UNL     1      -9.823  13.080  64.295  1.00  0.00     0.000 HD 
BRANCH   4   6
HETATM    6  C   UNL     1     -10.001  11.265  63.345  1.00  0.00    -0.395 C  
BRANCH   6   7
HETATM    7  C   UNL     1      -9.010  10.665  64.361  1.00  0.00    -0.195 C  
HETATM    8  O   UNL     1      -8.453   9.465  63.799  1.00  0.00    -0.172 OA 
HETATM    9  H   UNL     1      -7.842   9.095  64.425  1.00  0.00     0.000 HD 
BRANCH   7  10
HETATM   10  C   UNL     1      -9.687  10.330  65.693  1.00  0.00    -0.247 C  
BRANCH  10  11
HETATM   11  O   UNL     1     -10.062  11.565  66.328  1.00  0.00    -0.213 OA 
BRANCH  11  12
HETATM   12  C   UNL     1     -10.708  11.448  67.530  1.00  0.00    -0.222 A  
HETATM   13  C   UNL     1     -10.868  10.264  68.248  1.00  0.00    -0.300 A  
HETATM   14  C   UNL     1     -11.586  10.259  69.447  1.00  0.00    -0.213 A  
HETATM   15  C   UNL     1     -12.134  11.439  69.963  1.00  0.00    -0.417 A  
HETATM   16  C   UNL     1     -11.948  12.630  69.251  1.00  0.00    -0.301 A  
HETATM   17  C   UNL     1     -11.237  12.633  68.046  1.00  0.00    -0.308 A  
BRANCH  15  18
HETATM   18  C   UNL     1     -12.940  11.415  71.241  1.00  0.00    -0.415 C  
BRANCH  18  19
HETATM   19  C   UNL     1     -12.802  12.704  72.053  1.00  0.00    -0.163 C  
BRANCH  19  20
HETATM   20  O   UNL     1     -14.099  13.219  72.363  1.00  0.00    -0.618 OA 
BRANCH  20  21
HETATM   21  C   UNL     1     -14.044  14.634  72.550  1.00  0.00    -0.344 C  
BRANCH  21  22
HETATM   22  C   UNL     1     -12.657  15.022  72.945  1.00  0.00    -0.510 C  
HETATM   23  C   UNL     1     -12.045  16.273  72.363  1.00  0.00    -0.598 C  
HETATM   24  C   UNL     1     -12.405  16.223  73.822  1.00  0.00    -0.638 C  
ENDBRANCH  21  22
ENDBRANCH  20  21
ENDBRANCH  19  20
ENDBRANCH  18  19
ENDBRANCH  15  18
ENDBRANCH  11  12
ENDBRANCH  10  11
ENDBRANCH   7  10
ENDBRANCH   6   7
ENDBRANCH   4   6
ENDBRANCH   2   4
TORSDOF 11
ENDMDL
MODEL       34
REMARK 921   NORMALIZED FREE ENERGY PREDICTED BY IDOCK:   -4.95 KCAL/MOL
REMARK 922        TOTAL FREE ENERGY PREDICTED BY IDOCK:   -9.46 KCAL/MOL
REMARK 923 INTER-LIGAND FREE ENERGY PREDICTED BY IDOCK:   -8.09 KCAL/MOL
REMARK 924 INTRA-LIGAND FREE ENERGY PREDICTED BY IDOCK:   -1.37 KCAL/MOL
REMARK 927      BINDING AFFINITY PREDICTED BY RF-SCORE:    0.00 PKD
ROOT
HETATM    1  C   UNL     1     -12.589  11.925  63.549  1.00  0.00    -0.579 C  
HETATM    2  C   UNL     1     -11.851  12.894  64.473  1.00  0.00    -0.375 C  
HETATM    3  C   UNL     1     -12.235  14.336  64.121  1.00  0.00    -0.410 C  
ENDROOT
BRANCH   2   4
HETATM    4  N   UNL     1     -12.150  12.680  65.895  1.00  0.00    -0.563 NA 
HETATM    5  H   UNL     1     -12.128  11.684  66.113  1.00  0.00     0.000 HD 
BRANCH   4   6
HETATM    6  C   UNL     1     -11.295  13.423  66.830  1.00  0.00    -0.323 C  
BRANCH   6   7
HETATM    7  C   UNL     1     -11.988  14.046  68.058  1.00  0.00    -0.350 C  
HETATM    8  O   UNL     1     -11.434  15.353  68.280  1.00  0.00    -0.332 OA 
HETATM    9  H   UNL     1     -11.861  15.737  69.036  1.00  0.00     0.000 HD 
BRANCH   7  10
HETATM   10  C   UNL     1     -11.796  13.196  69.318  1.00  0.00    -0.323 C  
BRANCH  10  11
HETATM   11  O   UNL     1     -12.249  11.861  69.030  1.00  0.00    -0.234 OA 
BRANCH  11  12
HETATM   12  C   UNL     1     -11.867  10.895  69.923  1.00  0.00    -0.349 A  
HETATM   13  C   UNL     1     -10.577  10.381  70.053  1.00  0.00    -0.282 A  
HETATM   14  C   UNL     1     -10.314   9.362  70.973  1.00  0.00    -0.382 A  
HETATM   15  C   UNL     1     -11.327   8.857  71.797  1.00  0.00    -0.431 A  
HETATM   16  C   UNL     1     -12.615   9.396  71.681  1.00  0.00    -0.460 A  
HETATM   17  C   UNL     1     -12.879  10.409  70.752  1.00  0.00    -0.450 A  
BRANCH  15  18
HETATM   18  C   UNL     1     -11.040   7.731  72.762  1.00  0.00    -0.457 C  
BRANCH  18  19
HETATM   19  C   UNL     1     -10.449   6.498  72.076  1.00  0.00    -0.202 C  
BRANCH  19  20
HETATM   20  O   UNL     1     -11.391   5.970  71.139  1.00  0.00    -0.292 OA 
BRANCH  20  21
HETATM   21  C   UNL     1     -10.730   5.571  69.937  1.00  0.00    -0.288 C  
BRANCH  21  22
HETATM   22  C   UNL     1     -11.125   6.494  68.831  1.00  0.00    -0.371 C  
HETATM   23  C   UNL     1     -10.054   7.227  68.061  1.00  0.00    -0.207 C  
HETATM   24  C   UNL     1     -10.852   6.143  67.390  1.00  0.00    -0.431 C  
ENDBRANCH  21  22
ENDBRANCH  20  21
ENDBRANCH  19  20
ENDBRANCH  18  19
ENDBRANCH  15  18
ENDBRANCH  11  12
ENDBRANCH  10  11
ENDBRANCH   7  10
ENDBRANCH   6   7
ENDBRANCH   4   6
ENDBRANCH   2   4
TORSDOF 11
ENDMDL
MODEL       35
REMARK 921   NORMALIZED FREE ENERGY PREDICTED BY IDOCK:   -4.94 KCAL/MOL
REMARK 922        TOTAL FREE ENERGY PREDICTED BY IDOCK:   -9.45 KCAL/MOL
REMARK 923 INTER-LIGAND FREE ENERGY PREDICTED BY IDOCK:   -8.05 KCAL/MOL
REMARK 924 INTRA-LIGAND FREE ENERGY PREDICTED BY IDOCK:   -1.40 KCAL/MOL
REMARK 927      BINDING AFFINITY PREDICTED BY RF-SCORE:    0.00 PKD
ROOT
HETATM    1  C   UNL     1     -11.369  15.870  64.559  1.00  0.00    -0.316 C  
HETATM    2  C   UNL     1     -11.238  14.474  65.167  1.00  0.00    -0.367 C  
HETATM    3  C   UNL     1     -12.574  13.734  65.050  1.00  0.00    -0.427 C  
ENDROOT
BRANCH   2   4
HETATM    4  N   UNL     1     -10.208  13.653  64.516  1.00  0.00    -0.647 NA 
HETATM    5  H   UNL     1      -9.560  13.284  65.212  1.00  0.00     0.000 HD 
BRANCH   4   6
HETATM    6  C   UNL     1     -10.720  12.564  63.674  1.00  0.00    -0.430 C  
BRANCH   6   7
HETATM    7  C   UNL     1      -9.848  11.298  63.573  1.00  0.00    -0.359 C  
HETATM    8  O   UNL     1     -10.220  10.582  62.383  1.00  0.00    -0.746 OA 
HETATM    9  H   UNL     1      -9.683   9.801  62.321  1.00  0.00     0.000 HD 
BRANCH   7  10
HETATM   10  C   UNL     1     -10.024  10.381  64.787  1.00  0.00    -0.339 C  
BRANCH  10  11
HETATM   11  O   UNL     1      -9.465  11.047  65.934  1.00  0.00    -0.198 OA 
BRANCH  11  12
HETATM   12  C   UNL     1     -10.136  10.868  67.115  1.00  0.00    -0.198 A  
HETATM   13  C   UNL     1     -11.280  11.564  67.506  1.00  0.00    -0.360 A  
HETATM   14  C   UNL     1     -11.855  11.327  68.758  1.00  0.00    -0.396 A  
HETATM   15  C   UNL     1     -11.314  10.374  69.630  1.00  0.00    -0.333 A  
HETATM   16  C   UNL     1     -10.182   9.659  69.220  1.00  0.00    -0.215 A  
HETATM   17  C   UNL     1      -9.601   9.905  67.971  1.00  0.00    -0.155 A  
BRANCH  15  18
HETATM   18  C   UNL     1     -11.922  10.152  70.995  1.00  0.00    -0.474 C  
BRANCH  18  19
HETATM   19  C   UNL     1     -11.274   8.991  71.751  1.00  0.00    -0.378 C  
BRANCH  19  20
HETATM   20  O   UNL     1     -12.289   8.131  72.275  1.00  0.00    -0.333 OA 
BRANCH  20  21
HETATM   21  C   UNL     1     -12.352   6.916  71.527  1.00  0.00    -0.376 C  
BRANCH  21  22
HETATM   22  C   UNL     1     -11.005   6.626  70.951  1.00  0.00    -0.315 C  
HETATM   23  C   UNL     1     -10.454   5.223  71.026  1.00  0.00    -0.274 C  
HETATM   24  C   UNL     1     -10.857   5.800  69.697  1.00  0.00    -0.418 C  
ENDBRANCH  21  22
ENDBRANCH  20  21
ENDBRANCH  19  20
ENDBRANCH  18  19
ENDBRANCH  15  18
ENDBRANCH  11  12
ENDBRANCH  10  11
ENDBRANCH   7  10
ENDBRANCH   6   7
ENDBRANCH   4   6
ENDBRANCH   2   4
TORSDOF 11
ENDMDL
MODEL       36
REMARK 921   NORMALIZED FREE ENERGY PREDICTED BY IDOCK:   -4.93 KCAL/MOL
REMARK 922        TOTAL FREE ENERGY PREDICTED BY IDOCK:   -9.44 KCAL/MOL
REMARK 923 INTER-LIGAND FREE ENERGY PREDICTED BY IDOCK:   -8.22 KCAL/MOL
REMARK 924 INTRA-LIGAND FREE ENERGY PREDICTED BY IDOCK:   -1.21 KCAL/MOL
REMARK 927      BINDING AFFINITY PREDICTED BY RF-SCORE:    0.00 PKD
ROOT
HETATM    1  C   UNL     1     -11.952   6.320  72.161  1.00  0.00    -0.338 C  
HETATM    2  C   UNL     1     -11.088   6.759  70.978  1.00  0.00    -0.273 C  
HETATM    3  C   UNL     1      -9.758   5.998  71.001  1.00  0.00    -0.208 C  
ENDROOT
BRANCH   2   4
HETATM    4  N   UNL     1     -11.725   6.520  69.676  1.00  0.00    -0.643 NA 
HETATM    5  H   UNL     1     -12.263   7.339  69.392  1.00  0.00     0.000 HD 
BRANCH   4   6
HETATM    6  C   UNL     1     -10.809   6.117  68.600  1.00  0.00    -0.332 C  
BRANCH   6   7
HETATM    7  C   UNL     1     -11.114   6.661  67.191  1.00  0.00    -0.357 C  
HETATM    8  O   UNL     1     -10.553   5.760  66.223  1.00  0.00    -0.447 OA 
HETATM    9  H   UNL     1     -10.741   6.095  65.355  1.00  0.00     0.000 HD 
BRANCH   7  10
HETATM   10  C   UNL     1     -10.528   8.060  66.977  1.00  0.00    -0.340 C  
BRANCH  10  11
HETATM   11  O   UNL     1     -10.567   8.759  68.233  1.00  0.00    -0.210 OA 
BRANCH  11  12
HETATM   12  C   UNL     1     -10.913  10.083  68.171  1.00  0.00    -0.235 A  
HETATM   13  C   UNL     1     -11.524  10.807  69.195  1.00  0.00    -0.368 A  
HETATM   14  C   UNL     1     -11.872  12.147  69.000  1.00  0.00    -0.361 A  
HETATM   15  C   UNL     1     -11.592  12.795  67.791  1.00  0.00    -0.405 A  
HETATM   16  C   UNL     1     -10.955  12.071  66.776  1.00  0.00    -0.329 A  
HETATM   17  C   UNL     1     -10.616  10.726  66.968  1.00  0.00    -0.312 A  
BRANCH  15  18
HETATM   18  C   UNL     1     -12.005  14.232  67.579  1.00  0.00    -0.411 C  
BRANCH  18  19
HETATM   19  C   UNL     1     -11.199  15.213  68.431  1.00  0.00    -0.299 C  
BRANCH  19  20
HETATM   20  O   UNL     1     -12.088  16.009  69.220  1.00  0.00    -0.290 OA 
BRANCH  20  21
HETATM   21  C   UNL     1     -12.035  15.611  70.590  1.00  0.00    -0.402 C  
BRANCH  21  22
HETATM   22  C   UNL     1     -13.370  15.078  70.997  1.00  0.00    -0.477 C  
HETATM   23  C   UNL     1     -13.442  13.948  71.995  1.00  0.00    -0.543 C  
HETATM   24  C   UNL     1     -13.915  15.322  72.382  1.00  0.00    -0.642 C  
ENDBRANCH  21  22
ENDBRANCH  20  21
ENDBRANCH  19  20
ENDBRANCH  18  19
ENDBRANCH  15  18
ENDBRANCH  11  12
ENDBRANCH  10  11
ENDBRANCH   7  10
ENDBRANCH   6   7
ENDBRANCH   4   6
ENDBRANCH   2   4
TORSDOF 11
ENDMDL
MODEL       37
REMARK 921   NORMALIZED FREE ENERGY PREDICTED BY IDOCK:   -4.93 KCAL/MOL
REMARK 922        TOTAL FREE ENERGY PREDICTED BY IDOCK:   -9.43 KCAL/MOL
REMARK 923 INTER-LIGAND FREE ENERGY PREDICTED BY IDOCK:   -8.22 KCAL/MOL
REMARK 924 INTRA-LIGAND FREE ENERGY PREDICTED BY IDOCK:   -1.22 KCAL/MOL
REMARK 927      BINDING AFFINITY PREDICTED BY RF-SCORE:    0.00 PKD
ROOT
HETATM    1  C   UNL     1     -10.994  19.558  67.042  1.00  0.00    -0.443 C  
HETATM    2  C   UNL     1     -10.150  18.283  67.027  1.00  0.00    -0.360 C  
HETATM    3  C   UNL     1     -10.655  17.319  68.106  1.00  0.00    -0.386 C  
ENDROOT
BRANCH   2   4
HETATM    4  N   UNL     1     -10.187  17.579  65.738  1.00  0.00    -0.602 NA 
HETATM    5  H   UNL     1      -9.353  17.799  65.193  1.00  0.00     0.000 HD 
BRANCH   4   6
HETATM    6  C   UNL     1     -10.365  16.124  65.828  1.00  0.00    -0.378 C  
BRANCH   6   7
HETATM    7  C   UNL     1     -11.126  15.447  64.672  1.00  0.00    -0.347 C  
HETATM    8  O   UNL     1     -11.644  16.470  63.806  1.00  0.00    -1.617 OA 
HETATM    9  H   UNL     1     -12.113  16.052  63.094  1.00  0.00     0.000 HD 
BRANCH   7  10
HETATM   10  C   UNL     1     -12.284  14.581  65.178  1.00  0.00    -0.346 C  
BRANCH  10  11
HETATM   11  O   UNL     1     -12.479  13.504  64.243  1.00  0.00    -0.602 OA 
BRANCH  11  12
HETATM   12  C   UNL     1     -11.566  12.485  64.307  1.00  0.00    -0.371 A  
HETATM   13  C   UNL     1     -10.828  11.994  63.230  1.00  0.00    -0.400 A  
HETATM   14  C   UNL     1      -9.956  10.916  63.407  1.00  0.00    -0.414 A  
HETATM   15  C   UNL     1      -9.784  10.328  64.666  1.00  0.00    -0.398 A  
HETATM   16  C   UNL     1     -10.508  10.842  65.749  1.00  0.00    -0.275 A  
HETATM   17  C   UNL     1     -11.390  11.914  65.569  1.00  0.00    -0.334 A  
BRANCH  15  18
HETATM   18  C   UNL     1      -8.866   9.141  64.838  1.00  0.00    -0.215 C  
BRANCH  18  19
HETATM   19  C   UNL     1      -7.629   9.464  65.678  1.00  0.00    -0.095 C  
BRANCH  19  20
HETATM   20  O   UNL     1      -7.884   9.153  67.050  1.00  0.00    -0.100 OA 
BRANCH  20  21
HETATM   21  C   UNL     1      -7.368  10.178  67.900  1.00  0.00    -0.087 C  
BRANCH  21  22
HETATM   22  C   UNL     1      -7.090  11.397  67.083  1.00  0.00    -0.134 C  
HETATM   23  C   UNL     1      -7.814  12.682  67.401  1.00  0.00    -0.175 C  
HETATM   24  C   UNL     1      -6.338  12.569  67.665  1.00  0.00    -0.140 C  
ENDBRANCH  21  22
ENDBRANCH  20  21
ENDBRANCH  19  20
ENDBRANCH  18  19
ENDBRANCH  15  18
ENDBRANCH  11  12
ENDBRANCH  10  11
ENDBRANCH   7  10
ENDBRANCH   6   7
ENDBRANCH   4   6
ENDBRANCH   2   4
TORSDOF 11
ENDMDL
MODEL       38
REMARK 921   NORMALIZED FREE ENERGY PREDICTED BY IDOCK:   -4.92 KCAL/MOL
REMARK 922        TOTAL FREE ENERGY PREDICTED BY IDOCK:   -9.41 KCAL/MOL
REMARK 923 INTER-LIGAND FREE ENERGY PREDICTED BY IDOCK:   -8.48 KCAL/MOL
REMARK 924 INTRA-LIGAND FREE ENERGY PREDICTED BY IDOCK:   -0.94 KCAL/MOL
REMARK 927      BINDING AFFINITY PREDICTED BY RF-SCORE:    0.00 PKD
ROOT
HETATM    1  C   UNL     1      -9.934  11.030  64.428  1.00  0.00    -0.368 C  
HETATM    2  C   UNL     1     -10.553  12.102  63.529  1.00  0.00    -0.458 C  
HETATM    3  C   UNL     1     -12.053  11.834  63.366  1.00  0.00    -0.449 C  
ENDROOT
BRANCH   2   4
HETATM    4  N   UNL     1     -10.392  13.463  64.057  1.00  0.00    -0.706 NA 
HETATM    5  H   UNL     1      -9.833  14.026  63.415  1.00  0.00     0.000 HD 
BRANCH   4   6
HETATM    6  C   UNL     1     -11.644  14.158  64.381  1.00  0.00    -0.362 C  
BRANCH   6   7
HETATM    7  C   UNL     1     -11.522  15.610  64.884  1.00  0.00    -0.245 C  
HETATM    8  O   UNL     1     -11.529  16.488  63.746  1.00  0.00    -1.615 OA 
HETATM    9  H   UNL     1     -11.454  17.383  64.056  1.00  0.00     0.000 HD 
BRANCH   7  10
HETATM   10  C   UNL     1     -10.235  15.833  65.684  1.00  0.00    -0.380 C  
BRANCH  10  11
HETATM   11  O   UNL     1     -10.545  15.683  67.081  1.00  0.00    -0.299 OA 
BRANCH  11  12
HETATM   12  C   UNL     1     -10.391  14.422  67.595  1.00  0.00    -0.237 A  
HETATM   13  C   UNL     1      -9.261  13.619  67.439  1.00  0.00    -0.222 A  
HETATM   14  C   UNL     1      -9.235  12.329  67.974  1.00  0.00    -0.195 A  
HETATM   15  C   UNL     1     -10.324  11.826  68.696  1.00  0.00    -0.228 A  
HETATM   16  C   UNL     1     -11.445  12.647  68.873  1.00  0.00    -0.354 A  
HETATM   17  C   UNL     1     -11.475  13.935  68.328  1.00  0.00    -0.346 A  
BRANCH  15  18
HETATM   18  C   UNL     1     -10.299  10.417  69.239  1.00  0.00    -0.250 C  
BRANCH  18  19
HETATM   19  C   UNL     1     -11.175  10.243  70.480  1.00  0.00    -0.330 C  
BRANCH  19  20
HETATM   20  O   UNL     1     -11.905   9.017  70.388  1.00  0.00    -0.151 OA 
BRANCH  20  21
HETATM   21  C   UNL     1     -12.763   8.858  71.517  1.00  0.00    -0.335 C  
BRANCH  21  22
HETATM   22  C   UNL     1     -12.404   7.596  72.232  1.00  0.00    -0.227 C  
HETATM   23  C   UNL     1     -11.434   6.634  71.591  1.00  0.00    -0.332 C  
HETATM   24  C   UNL     1     -11.029   7.400  72.820  1.00  0.00    -0.387 C  
ENDBRANCH  21  22
ENDBRANCH  20  21
ENDBRANCH  19  20
ENDBRANCH  18  19
ENDBRANCH  15  18
ENDBRANCH  11  12
ENDBRANCH  10  11
ENDBRANCH   7  10
ENDBRANCH   6   7
ENDBRANCH   4   6
ENDBRANCH   2   4
TORSDOF 11
ENDMDL
MODEL       39
REMARK 921   NORMALIZED FREE ENERGY PREDICTED BY IDOCK:   -4.91 KCAL/MOL
REMARK 922        TOTAL FREE ENERGY PREDICTED BY IDOCK:   -9.41 KCAL/MOL
REMARK 923 INTER-LIGAND FREE ENERGY PREDICTED BY IDOCK:   -8.06 KCAL/MOL
REMARK 924 INTRA-LIGAND FREE ENERGY PREDICTED BY IDOCK:   -1.35 KCAL/MOL
REMARK 927      BINDING AFFINITY PREDICTED BY RF-SCORE:    0.00 PKD
ROOT
HETATM    1  C   UNL     1     -11.853   8.041  72.318  1.00  0.00    -0.424 C  
HETATM    2  C   UNL     1     -12.943   7.211  71.638  1.00  0.00    -0.370 C  
HETATM    3  C   UNL     1     -14.276   7.965  71.694  1.00  0.00    -0.564 C  
ENDROOT
BRANCH   2   4
HETATM    4  N   UNL     1     -12.650   6.914  70.229  1.00  0.00    -0.463 NA 
HETATM    5  H   UNL     1     -12.850   7.729  69.649  1.00  0.00     0.000 HD 
BRANCH   4   6
HETATM    6  C   UNL     1     -11.290   6.426  69.965  1.00  0.00    -0.430 C  
BRANCH   6   7
HETATM    7  C   UNL     1     -10.903   6.218  68.488  1.00  0.00    -0.323 C  
HETATM    8  O   UNL     1      -9.790   5.311  68.432  1.00  0.00    -0.137 OA 
HETATM    9  H   UNL     1      -9.552   5.182  67.522  1.00  0.00     0.000 HD 
BRANCH   7  10
HETATM   10  C   UNL     1     -10.516   7.533  67.805  1.00  0.00    -0.223 C  
BRANCH  10  11
HETATM   11  O   UNL     1     -10.535   8.575  68.796  1.00  0.00    -0.217 OA 
BRANCH  11  12
HETATM   12  C   UNL     1     -10.881   9.822  68.347  1.00  0.00    -0.201 A  
HETATM   13  C   UNL     1     -10.635  10.315  67.066  1.00  0.00    -0.302 A  
HETATM   14  C   UNL     1     -10.996  11.624  66.733  1.00  0.00    -0.341 A  
HETATM   15  C   UNL     1     -11.632  12.454  67.664  1.00  0.00    -0.421 A  
HETATM   16  C   UNL     1     -11.900  11.945  68.940  1.00  0.00    -0.366 A  
HETATM   17  C   UNL     1     -11.529  10.638  69.276  1.00  0.00    -0.351 A  
BRANCH  15  18
HETATM   18  C   UNL     1     -11.984  13.878  67.305  1.00  0.00    -0.446 C  
BRANCH  18  19
HETATM   19  C   UNL     1     -10.961  14.891  67.821  1.00  0.00    -0.293 C  
BRANCH  19  20
HETATM   20  O   UNL     1     -11.581  15.763  68.769  1.00  0.00    -0.363 OA 
BRANCH  20  21
HETATM   21  C   UNL     1     -10.853  15.767  69.997  1.00  0.00    -0.342 C  
BRANCH  21  22
HETATM   22  C   UNL     1     -11.624  15.007  71.027  1.00  0.00    -0.367 C  
HETATM   23  C   UNL     1     -12.126  15.725  72.255  1.00  0.00    -0.574 C  
HETATM   24  C   UNL     1     -13.102  15.240  71.219  1.00  0.00    -0.540 C  
ENDBRANCH  21  22
ENDBRANCH  20  21
ENDBRANCH  19  20
ENDBRANCH  18  19
ENDBRANCH  15  18
ENDBRANCH  11  12
ENDBRANCH  10  11
ENDBRANCH   7  10
ENDBRANCH   6   7
ENDBRANCH   4   6
ENDBRANCH   2   4
TORSDOF 11
ENDMDL
MODEL       40
REMARK 921   NORMALIZED FREE ENERGY PREDICTED BY IDOCK:   -4.91 KCAL/MOL
REMARK 922        TOTAL FREE ENERGY PREDICTED BY IDOCK:   -9.40 KCAL/MOL
REMARK 923 INTER-LIGAND FREE ENERGY PREDICTED BY IDOCK:   -7.98 KCAL/MOL
REMARK 924 INTRA-LIGAND FREE ENERGY PREDICTED BY IDOCK:   -1.42 KCAL/MOL
REMARK 927      BINDING AFFINITY PREDICTED BY RF-SCORE:    0.00 PKD
ROOT
HETATM    1  C   UNL     1     -12.711  15.727  74.023  1.00  0.00    -0.718 C  
HETATM    2  C   UNL     1     -12.736  14.697  72.893  1.00  0.00    -0.412 C  
HETATM    3  C   UNL     1     -14.065  14.796  72.136  1.00  0.00    -0.604 C  
ENDROOT
BRANCH   2   4
HETATM    4  N   UNL     1     -11.648  14.876  71.923  1.00  0.00    -0.470 NA 
HETATM    5  H   UNL     1     -11.448  13.994  71.451  1.00  0.00     0.000 HD 
BRANCH   4   6
HETATM    6  C   UNL     1     -11.864  15.941  70.935  1.00  0.00    -0.417 C  
BRANCH   6   7
HETATM    7  C   UNL     1     -10.854  16.025  69.774  1.00  0.00    -0.337 C  
HETATM    8  O   UNL     1     -10.551  17.408  69.532  1.00  0.00    -0.376 OA 
HETATM    9  H   UNL     1      -9.928  17.460  68.817  1.00  0.00     0.000 HD 
BRANCH   7  10
HETATM   10  C   UNL     1     -11.403  15.398  68.489  1.00  0.00    -0.335 C  
BRANCH  10  11
HETATM   11  O   UNL     1     -12.279  14.318  68.857  1.00  0.00    -0.306 OA 
BRANCH  11  12
HETATM   12  C   UNL     1     -11.824  13.056  68.578  1.00  0.00    -0.325 A  
HETATM   13  C   UNL     1     -11.341  12.628  67.341  1.00  0.00    -0.367 A  
HETATM   14  C   UNL     1     -10.943  11.300  67.162  1.00  0.00    -0.348 A  
HETATM   15  C   UNL     1     -10.994  10.384  68.220  1.00  0.00    -0.321 A  
HETATM   16  C   UNL     1     -11.455  10.827  69.466  1.00  0.00    -0.365 A  
HETATM   17  C   UNL     1     -11.863  12.154  69.642  1.00  0.00    -0.391 A  
BRANCH  15  18
HETATM   18  C   UNL     1     -10.596   8.943  68.005  1.00  0.00    -0.226 C  
BRANCH  18  19
HETATM   19  C   UNL     1      -9.627   8.430  69.072  1.00  0.00    -0.160 C  
BRANCH  19  20
HETATM   20  O   UNL     1     -10.214   7.326  69.766  1.00  0.00    -0.200 OA 
BRANCH  20  21
HETATM   21  C   UNL     1      -9.988   7.441  71.171  1.00  0.00    -0.185 C  
BRANCH  21  22
HETATM   22  C   UNL     1     -11.248   7.104  71.899  1.00  0.00    -0.282 C  
HETATM   23  C   UNL     1     -12.147   8.218  72.378  1.00  0.00    -0.430 C  
HETATM   24  C   UNL     1     -12.597   7.320  71.259  1.00  0.00    -0.402 C  
ENDBRANCH  21  22
ENDBRANCH  20  21
ENDBRANCH  19  20
ENDBRANCH  18  19
ENDBRANCH  15  18
ENDBRANCH  11  12
ENDBRANCH  10  11
ENDBRANCH   7  10
ENDBRANCH   6   7
ENDBRANCH   4   6
ENDBRANCH   2   4
TORSDOF 11
ENDMDL
MODEL       41
REMARK 921   NORMALIZED FREE ENERGY PREDICTED BY IDOCK:   -4.90 KCAL/MOL
REMARK 922        TOTAL FREE ENERGY PREDICTED BY IDOCK:   -9.39 KCAL/MOL
REMARK 923 INTER-LIGAND FREE ENERGY PREDICTED BY IDOCK:   -8.02 KCAL/MOL
REMARK 924 INTRA-LIGAND FREE ENERGY PREDICTED BY IDOCK:   -1.37 KCAL/MOL
REMARK 927      BINDING AFFINITY PREDICTED BY RF-SCORE:    0.00 PKD
ROOT
HETATM    1  C   UNL     1     -11.468  13.874  68.024  1.00  0.00    -0.339 C  
HETATM    2  C   UNL     1     -11.392  15.038  69.013  1.00  0.00    -0.290 C  
HETATM    3  C   UNL     1     -11.041  16.328  68.265  1.00  0.00    -0.346 C  
ENDROOT
BRANCH   2   4
HETATM    4  N   UNL     1     -12.649  15.263  69.740  1.00  0.00    -0.611 NA 
HETATM    5  H   UNL     1     -13.320  14.528  69.518  1.00  0.00     0.000 HD 
BRANCH   4   6
HETATM    6  C   UNL     1     -12.510  15.400  71.196  1.00  0.00    -0.402 C  
BRANCH   6   7
HETATM    7  C   UNL     1     -13.689  14.900  72.053  1.00  0.00    -0.435 C  
HETATM    8  O   UNL     1     -13.741  15.683  73.257  1.00  0.00    -0.625 OA 
HETATM    9  H   UNL     1     -14.468  15.375  73.786  1.00  0.00     0.000 HD 
BRANCH   7  10
HETATM   10  C   UNL     1     -13.545  13.420  72.421  1.00  0.00    -0.606 C  
BRANCH  10  11
HETATM   11  O   UNL     1     -12.775  12.776  71.390  1.00  0.00    -0.351 OA 
BRANCH  11  12
HETATM   12  C   UNL     1     -12.798  11.406  71.393  1.00  0.00    -0.397 A  
HETATM   13  C   UNL     1     -13.649  10.616  72.165  1.00  0.00    -0.129 A  
HETATM   14  C   UNL     1     -13.551   9.222  72.118  1.00  0.00    -0.536 A  
HETATM   15  C   UNL     1     -12.621   8.593  71.281  1.00  0.00    -0.266 A  
HETATM   16  C   UNL     1     -11.788   9.392  70.489  1.00  0.00    -0.207 A  
HETATM   17  C   UNL     1     -11.879  10.787  70.544  1.00  0.00    -0.453 A  
BRANCH  15  18
HETATM   18  C   UNL     1     -12.499   7.088  71.266  1.00  0.00    -0.430 C  
BRANCH  18  19
HETATM   19  C   UNL     1     -11.399   6.591  70.327  1.00  0.00    -0.395 C  
BRANCH  19  20
HETATM   20  O   UNL     1     -10.432   5.844  71.071  1.00  0.00    -0.216 OA 
BRANCH  20  21
HETATM   21  C   UNL     1      -9.251   6.618  71.277  1.00  0.00    -0.155 C  
BRANCH  21  22
HETATM   22  C   UNL     1      -9.018   6.774  72.745  1.00  0.00    -0.139 C  
HETATM   23  C   UNL     1      -9.153   8.138  73.375  1.00  0.00    -0.309 C  
HETATM   24  C   UNL     1     -10.159   7.066  73.686  1.00  0.00    -0.376 C  
ENDBRANCH  21  22
ENDBRANCH  20  21
ENDBRANCH  19  20
ENDBRANCH  18  19
ENDBRANCH  15  18
ENDBRANCH  11  12
ENDBRANCH  10  11
ENDBRANCH   7  10
ENDBRANCH   6   7
ENDBRANCH   4   6
ENDBRANCH   2   4
TORSDOF 11
ENDMDL
MODEL       42
REMARK 921   NORMALIZED FREE ENERGY PREDICTED BY IDOCK:   -4.90 KCAL/MOL
REMARK 922        TOTAL FREE ENERGY PREDICTED BY IDOCK:   -9.39 KCAL/MOL
REMARK 923 INTER-LIGAND FREE ENERGY PREDICTED BY IDOCK:   -8.51 KCAL/MOL
REMARK 924 INTRA-LIGAND FREE ENERGY PREDICTED BY IDOCK:   -0.88 KCAL/MOL
REMARK 927      BINDING AFFINITY PREDICTED BY RF-SCORE:    0.00 PKD
ROOT
HETATM    1  C   UNL     1     -10.320  15.538  69.726  1.00  0.00    -0.316 C  
HETATM    2  C   UNL     1     -11.607  15.838  68.956  1.00  0.00    -0.400 C  
HETATM    3  C   UNL     1     -11.759  14.845  67.799  1.00  0.00    -0.340 C  
ENDROOT
BRANCH   2   4
HETATM    4  N   UNL     1     -12.813  15.750  69.790  1.00  0.00    -0.552 NA 
HETATM    5  H   UNL     1     -13.316  14.885  69.592  1.00  0.00     0.000 HD 
BRANCH   4   6
HETATM    6  C   UNL     1     -12.583  15.882  71.235  1.00  0.00    -0.355 C  
BRANCH   6   7
HETATM    7  C   UNL     1     -13.601  15.194  72.164  1.00  0.00    -0.455 C  
HETATM    8  O   UNL     1     -13.959  16.113  73.209  1.00  0.00    -0.756 OA 
HETATM    9  H   UNL     1     -14.587  15.689  73.782  1.00  0.00     0.000 HD 
BRANCH   7  10
HETATM   10  C   UNL     1     -13.035  13.916  72.790  1.00  0.00    -0.316 C  
BRANCH  10  11
HETATM   11  O   UNL     1     -13.742  12.794  72.233  1.00  0.00    -0.527 OA 
BRANCH  11  12
HETATM   12  C   UNL     1     -12.987  11.913  71.503  1.00  0.00    -0.323 A  
HETATM   13  C   UNL     1     -12.944  10.533  71.697  1.00  0.00    -0.581 A  
HETATM   14  C   UNL     1     -12.100   9.738  70.917  1.00  0.00    -0.407 A  
HETATM   15  C   UNL     1     -11.305  10.302  69.913  1.00  0.00    -0.354 A  
HETATM   16  C   UNL     1     -11.372  11.685  69.704  1.00  0.00    -0.308 A  
HETATM   17  C   UNL     1     -12.210  12.482  70.493  1.00  0.00    -0.382 A  
BRANCH  15  18
HETATM   18  C   UNL     1     -10.369   9.438  69.100  1.00  0.00    -0.221 C  
BRANCH  18  19
HETATM   19  C   UNL     1     -10.758   9.370  67.622  1.00  0.00    -0.230 C  
BRANCH  19  20
HETATM   20  O   UNL     1      -9.951  10.280  66.870  1.00  0.00    -0.191 OA 
BRANCH  20  21
HETATM   21  C   UNL     1     -10.769  11.256  66.222  1.00  0.00    -0.257 C  
BRANCH  21  22
HETATM   22  C   UNL     1     -10.078  11.730  64.985  1.00  0.00    -0.302 C  
HETATM   23  C   UNL     1     -10.736  11.521  63.644  1.00  0.00    -0.491 C  
HETATM   24  C   UNL     1     -10.603  12.909  64.205  1.00  0.00    -0.442 C  
ENDBRANCH  21  22
ENDBRANCH  20  21
ENDBRANCH  19  20
ENDBRANCH  18  19
ENDBRANCH  15  18
ENDBRANCH  11  12
ENDBRANCH  10  11
ENDBRANCH   7  10
ENDBRANCH   6   7
ENDBRANCH   4   6
ENDBRANCH   2   4
TORSDOF 11
ENDMDL
MODEL       43
REMARK 921   NORMALIZED FREE ENERGY PREDICTED BY IDOCK:   -4.90 KCAL/MOL
REMARK 922        TOTAL FREE ENERGY PREDICTED BY IDOCK:   -9.38 KCAL/MOL
REMARK 923 INTER-LIGAND FREE ENERGY PREDICTED BY IDOCK:   -8.03 KCAL/MOL
REMARK 924 INTRA-LIGAND FREE ENERGY PREDICTED BY IDOCK:   -1.35 KCAL/MOL
REMARK 927      BINDING AFFINITY PREDICTED BY RF-SCORE:    0.00 PKD
ROOT
HETATM    1  C   UNL     1     -12.608  11.946  63.533  1.00  0.00    -0.579 C  
HETATM    2  C   UNL     1     -11.646  13.135  63.534  1.00  0.00    -0.338 C  
HETATM    3  C   UNL     1     -11.987  14.072  64.698  1.00  0.00    -0.449 C  
ENDROOT
BRANCH   2   4
HETATM    4  N   UNL     1     -10.238  12.740  63.669  1.00  0.00    -0.652 NA 
HETATM    5  H   UNL     1      -9.953  12.781  64.647  1.00  0.00     0.000 HD 
BRANCH   4   6
HETATM    6  C   UNL     1      -9.901  11.430  63.097  1.00  0.00    -0.388 C  
BRANCH   6   7
HETATM    7  C   UNL     1      -9.203  10.425  64.033  1.00  0.00    -0.263 C  
HETATM    8  O   UNL     1      -9.007   9.195  63.316  1.00  0.00    -0.417 OA 
HETATM    9  H   UNL     1      -8.577   8.575  63.893  1.00  0.00     0.000 HD 
BRANCH   7  10
HETATM   10  C   UNL     1     -10.027  10.147  65.294  1.00  0.00    -0.311 C  
BRANCH  10  11
HETATM   11  O   UNL     1      -9.942  11.302  66.147  1.00  0.00    -0.213 OA 
BRANCH  11  12
HETATM   12  C   UNL     1     -10.515  11.175  67.385  1.00  0.00    -0.220 A  
HETATM   13  C   UNL     1     -10.421  10.052  68.206  1.00  0.00    -0.246 A  
HETATM   14  C   UNL     1     -11.086  10.020  69.435  1.00  0.00    -0.265 A  
HETATM   15  C   UNL     1     -11.834  11.117  69.877  1.00  0.00    -0.439 A  
HETATM   16  C   UNL     1     -11.903  12.252  69.061  1.00  0.00    -0.358 A  
HETATM   17  C   UNL     1     -11.245  12.280  67.826  1.00  0.00    -0.331 A  
BRANCH  15  18
HETATM   18  C   UNL     1     -12.579  11.057  71.190  1.00  0.00    -0.522 C  
BRANCH  18  19
HETATM   19  C   UNL     1     -13.472   9.822  71.310  1.00  0.00    -0.290 C  
BRANCH  19  20
HETATM   20  O   UNL     1     -12.898   8.901  72.242  1.00  0.00    -0.378 OA 
BRANCH  20  21
HETATM   21  C   UNL     1     -12.871   7.584  71.692  1.00  0.00    -0.358 C  
BRANCH  21  22
HETATM   22  C   UNL     1     -11.451   7.151  71.528  1.00  0.00    -0.298 C  
HETATM   23  C   UNL     1     -11.076   5.718  71.815  1.00  0.00    -0.301 C  
HETATM   24  C   UNL     1     -11.043   6.232  70.403  1.00  0.00    -0.416 C  
ENDBRANCH  21  22
ENDBRANCH  20  21
ENDBRANCH  19  20
ENDBRANCH  18  19
ENDBRANCH  15  18
ENDBRANCH  11  12
ENDBRANCH  10  11
ENDBRANCH   7  10
ENDBRANCH   6   7
ENDBRANCH   4   6
ENDBRANCH   2   4
TORSDOF 11
ENDMDL
MODEL       44
REMARK 921   NORMALIZED FREE ENERGY PREDICTED BY IDOCK:   -4.85 KCAL/MOL
REMARK 922        TOTAL FREE ENERGY PREDICTED BY IDOCK:   -9.30 KCAL/MOL
REMARK 923 INTER-LIGAND FREE ENERGY PREDICTED BY IDOCK:   -8.21 KCAL/MOL
REMARK 924 INTRA-LIGAND FREE ENERGY PREDICTED BY IDOCK:   -1.09 KCAL/MOL
REMARK 927      BINDING AFFINITY PREDICTED BY RF-SCORE:    0.00 PKD
ROOT
HETATM    1  C   UNL     1     -11.678   7.941  72.267  1.00  0.00    -0.408 C  
HETATM    2  C   UNL     1     -12.618   6.994  71.520  1.00  0.00    -0.385 C  
HETATM    3  C   UNL     1     -14.072   7.395  71.789  1.00  0.00    -0.510 C  
ENDROOT
BRANCH   2   4
HETATM    4  N   UNL     1     -12.409   6.998  70.066  1.00  0.00    -0.420 NA 
HETATM    5  H   UNL     1     -12.455   7.951  69.706  1.00  0.00     0.000 HD 
BRANCH   4   6
HETATM    6  C   UNL     1     -11.174   6.345  69.613  1.00  0.00    -0.418 C  
BRANCH   6   7
HETATM    7  C   UNL     1     -10.791   6.537  68.133  1.00  0.00    -0.295 C  
HETATM    8  O   UNL     1      -9.626   5.744  67.856  1.00  0.00    -0.112 OA 
HETATM    9  H   UNL     1      -9.390   5.862  66.944  1.00  0.00     0.000 HD 
BRANCH   7  10
HETATM   10  C   UNL     1     -10.493   8.003  67.803  1.00  0.00    -0.214 C  
BRANCH  10  11
HETATM   11  O   UNL     1     -10.471   8.743  69.036  1.00  0.00    -0.215 OA 
BRANCH  11  12
HETATM   12  C   UNL     1     -10.801  10.070  68.943  1.00  0.00    -0.220 A  
HETATM   13  C   UNL     1     -11.340  10.841  69.973  1.00  0.00    -0.397 A  
HETATM   14  C   UNL     1     -11.679  12.178  69.748  1.00  0.00    -0.381 A  
HETATM   15  C   UNL     1     -11.463  12.776  68.500  1.00  0.00    -0.344 A  
HETATM   16  C   UNL     1     -10.898  12.004  67.478  1.00  0.00    -0.284 A  
HETATM   17  C   UNL     1     -10.568  10.662  67.701  1.00  0.00    -0.288 A  
BRANCH  15  18
HETATM   18  C   UNL     1     -11.868  14.211  68.258  1.00  0.00    -0.391 C  
BRANCH  18  19
HETATM   19  C   UNL     1     -11.284  15.174  69.292  1.00  0.00    -0.278 C  
BRANCH  19  20
HETATM   20  O   UNL     1     -12.228  15.380  70.346  1.00  0.00    -0.340 OA 
BRANCH  20  21
HETATM   21  C   UNL     1     -11.666  16.203  71.369  1.00  0.00    -0.444 C  
BRANCH  21  22
HETATM   22  C   UNL     1     -11.838  15.528  72.690  1.00  0.00    -0.575 C  
HETATM   23  C   UNL     1     -13.010  15.902  73.565  1.00  0.00    -0.707 C  
HETATM   24  C   UNL     1     -12.959  14.544  72.920  1.00  0.00    -0.582 C  
ENDBRANCH  21  22
ENDBRANCH  20  21
ENDBRANCH  19  20
ENDBRANCH  18  19
ENDBRANCH  15  18
ENDBRANCH  11  12
ENDBRANCH  10  11
ENDBRANCH   7  10
ENDBRANCH   6   7
ENDBRANCH   4   6
ENDBRANCH   2   4
TORSDOF 11
ENDMDL
MODEL       45
REMARK 921   NORMALIZED FREE ENERGY PREDICTED BY IDOCK:   -4.83 KCAL/MOL
REMARK 922        TOTAL FREE ENERGY PREDICTED BY IDOCK:   -9.26 KCAL/MOL
REMARK 923 INTER-LIGAND FREE ENERGY PREDICTED BY IDOCK:   -7.94 KCAL/MOL
REMARK 924 INTRA-LIGAND FREE ENERGY PREDICTED BY IDOCK:   -1.33 KCAL/MOL
REMARK 927      BINDING AFFINITY PREDICTED BY RF-SCORE:    0.00 PKD
ROOT
HETATM    1  C   UNL     1     -10.341  10.804  65.271  1.00  0.00    -0.327 C  
HETATM    2  C   UNL     1     -11.131  12.071  64.938  1.00  0.00    -0.316 C  
HETATM    3  C   UNL     1     -11.854  11.890  63.599  1.00  0.00    -0.573 C  
ENDROOT
BRANCH   2   4
HETATM    4  N   UNL     1     -12.137  12.409  65.953  1.00  0.00    -0.623 NA 
HETATM    5  H   UNL     1     -11.864  12.030  66.860  1.00  0.00     0.000 HD 
BRANCH   4   6
HETATM    6  C   UNL     1     -12.443  13.840  66.074  1.00  0.00    -0.445 C  
BRANCH   6   7
HETATM    7  C   UNL     1     -11.740  14.605  67.213  1.00  0.00    -0.385 C  
HETATM    8  O   UNL     1     -10.331  14.638  66.937  1.00  0.00    -0.260 OA 
HETATM    9  H   UNL     1      -9.897  15.109  67.638  1.00  0.00     0.000 HD 
BRANCH   7  10
HETATM   10  C   UNL     1     -11.972  13.945  68.576  1.00  0.00    -0.359 C  
BRANCH  10  11
HETATM   11  O   UNL     1     -11.148  12.768  68.648  1.00  0.00    -0.240 OA 
BRANCH  11  12
HETATM   12  C   UNL     1     -11.554  11.809  69.538  1.00  0.00    -0.332 A  
HETATM   13  C   UNL     1     -12.444  12.010  70.593  1.00  0.00    -0.335 A  
HETATM   14  C   UNL     1     -12.751  10.963  71.466  1.00  0.00    -0.533 A  
HETATM   15  C   UNL     1     -12.196   9.690  71.287  1.00  0.00    -0.452 A  
HETATM   16  C   UNL     1     -11.324   9.486  70.210  1.00  0.00    -0.284 A  
HETATM   17  C   UNL     1     -11.009  10.538  69.343  1.00  0.00    -0.297 A  
BRANCH  15  18
HETATM   18  C   UNL     1     -12.506   8.575  72.257  1.00  0.00    -0.448 C  
BRANCH  18  19
HETATM   19  C   UNL     1     -12.546   7.200  71.589  1.00  0.00    -0.375 C  
BRANCH  19  20
HETATM   20  O   UNL     1     -11.498   6.380  72.113  1.00  0.00    -0.272 OA 
BRANCH  20  21
HETATM   21  C   UNL     1     -10.900   6.998  73.253  1.00  0.00    -0.311 C  
BRANCH  21  22
HETATM   22  C   UNL     1      -9.414   6.971  73.101  1.00  0.00    -0.186 C  
HETATM   23  C   UNL     1      -8.725   8.099  72.374  1.00  0.00    -0.251 C  
HETATM   24  C   UNL     1      -8.538   7.939  73.857  1.00  0.00    -0.332 C  
ENDBRANCH  21  22
ENDBRANCH  20  21
ENDBRANCH  19  20
ENDBRANCH  18  19
ENDBRANCH  15  18
ENDBRANCH  11  12
ENDBRANCH  10  11
ENDBRANCH   7  10
ENDBRANCH   6   7
ENDBRANCH   4   6
ENDBRANCH   2   4
TORSDOF 11
ENDMDL
MODEL       46
REMARK 921   NORMALIZED FREE ENERGY PREDICTED BY IDOCK:   -4.82 KCAL/MOL
REMARK 922        TOTAL FREE ENERGY PREDICTED BY IDOCK:   -9.25 KCAL/MOL
REMARK 923 INTER-LIGAND FREE ENERGY PREDICTED BY IDOCK:   -7.86 KCAL/MOL
REMARK 924 INTRA-LIGAND FREE ENERGY PREDICTED BY IDOCK:   -1.39 KCAL/MOL
REMARK 927      BINDING AFFINITY PREDICTED BY RF-SCORE:    0.00 PKD
ROOT
HETATM    1  C   UNL     1     -11.659  15.850  64.452  1.00  0.00    -0.234 C  
HETATM    2  C   UNL     1     -10.471  15.298  65.241  1.00  0.00    -0.411 C  
HETATM    3  C   UNL     1     -10.824  15.242  66.731  1.00  0.00    -0.312 C  
ENDROOT
BRANCH   2   4
HETATM    4  N   UNL     1     -10.072  13.949  64.819  1.00  0.00    -0.610 NA 
HETATM    5  H   UNL     1      -9.894  13.363  65.636  1.00  0.00     0.000 HD 
BRANCH   4   6
HETATM    6  C   UNL     1     -11.010  13.278  63.910  1.00  0.00    -0.195 C  
BRANCH   6   7
HETATM    7  C   UNL     1     -11.774  12.064  64.475  1.00  0.00    -0.305 C  
HETATM    8  O   UNL     1     -13.117  12.473  64.780  1.00  0.00    -0.853 OA 
HETATM    9  H   UNL     1     -13.588  11.725  65.128  1.00  0.00     0.000 HD 
BRANCH   7  10
HETATM   10  C   UNL     1     -11.116  11.511  65.743  1.00  0.00    -0.210 C  
BRANCH  10  11
HETATM   11  O   UNL     1     -11.829  12.029  66.879  1.00  0.00    -0.580 OA 
BRANCH  11  12
HETATM   12  C   UNL     1     -11.652  11.351  68.056  1.00  0.00    -0.286 A  
HETATM   13  C   UNL     1     -12.232  11.690  69.278  1.00  0.00    -0.228 A  
HETATM   14  C   UNL     1     -11.943  10.946  70.426  1.00  0.00    -0.453 A  
HETATM   15  C   UNL     1     -11.091   9.836  70.369  1.00  0.00    -0.367 A  
HETATM   16  C   UNL     1     -10.533   9.484  69.135  1.00  0.00    -0.224 A  
HETATM   17  C   UNL     1     -10.814  10.236  67.988  1.00  0.00    -0.325 A  
BRANCH  15  18
HETATM   18  C   UNL     1     -10.757   9.062  71.623  1.00  0.00    -0.441 C  
BRANCH  18  19
HETATM   19  C   UNL     1     -11.936   8.239  72.144  1.00  0.00    -0.369 C  
BRANCH  19  20
HETATM   20  O   UNL     1     -12.178   7.135  71.268  1.00  0.00    -0.328 OA 
BRANCH  20  21
HETATM   21  C   UNL     1     -11.127   6.174  71.372  1.00  0.00    -0.288 C  
BRANCH  21  22
HETATM   22  C   UNL     1     -10.758   5.703  70.003  1.00  0.00    -0.390 C  
HETATM   23  C   UNL     1      -9.341   5.881  69.516  1.00  0.00    -0.156 C  
HETATM   24  C   UNL     1      -9.866   4.503  69.808  1.00  0.00    -0.295 C  
ENDBRANCH  21  22
ENDBRANCH  20  21
ENDBRANCH  19  20
ENDBRANCH  18  19
ENDBRANCH  15  18
ENDBRANCH  11  12
ENDBRANCH  10  11
ENDBRANCH   7  10
ENDBRANCH   6   7
ENDBRANCH   4   6
ENDBRANCH   2   4
TORSDOF 11
ENDMDL
MODEL       47
REMARK 921   NORMALIZED FREE ENERGY PREDICTED BY IDOCK:   -4.82 KCAL/MOL
REMARK 922        TOTAL FREE ENERGY PREDICTED BY IDOCK:   -9.24 KCAL/MOL
REMARK 923 INTER-LIGAND FREE ENERGY PREDICTED BY IDOCK:   -7.76 KCAL/MOL
REMARK 924 INTRA-LIGAND FREE ENERGY PREDICTED BY IDOCK:   -1.48 KCAL/MOL
REMARK 927      BINDING AFFINITY PREDICTED BY RF-SCORE:    0.00 PKD
ROOT
HETATM    1  C   UNL     1     -11.116   8.396  72.216  1.00  0.00    -0.438 C  
HETATM    2  C   UNL     1     -11.331   9.289  70.994  1.00  0.00    -0.320 C  
HETATM    3  C   UNL     1     -12.388  10.352  71.312  1.00  0.00    -0.507 C  
ENDROOT
BRANCH   2   4
HETATM    4  N   UNL     1     -10.109   9.982  70.562  1.00  0.00    -0.383 NA 
HETATM    5  H   UNL     1      -9.538  10.226  71.371  1.00  0.00     0.000 HD 
BRANCH   4   6
HETATM    6  C   UNL     1      -9.301   9.260  69.571  1.00  0.00    -0.173 C  
BRANCH   6   7
HETATM    7  C   UNL     1     -10.050   8.690  68.350  1.00  0.00    -0.191 C  
HETATM    8  O   UNL     1      -9.145   7.851  67.612  1.00  0.00    -0.133 OA 
HETATM    9  H   UNL     1      -9.607   7.500  66.860  1.00  0.00     0.000 HD 
BRANCH   7  10
HETATM   10  C   UNL     1     -10.574   9.797  67.430  1.00  0.00    -0.267 C  
BRANCH  10  11
HETATM   11  O   UNL     1      -9.611  10.865  67.422  1.00  0.00    -0.162 OA 
BRANCH  11  12
HETATM   12  C   UNL     1     -10.075  12.092  67.817  1.00  0.00    -0.199 A  
HETATM   13  C   UNL     1      -9.290  13.228  68.011  1.00  0.00    -0.218 A  
HETATM   14  C   UNL     1      -9.870  14.418  68.459  1.00  0.00    -0.233 A  
HETATM   15  C   UNL     1     -11.247  14.503  68.696  1.00  0.00    -0.281 A  
HETATM   16  C   UNL     1     -12.035  13.367  68.474  1.00  0.00    -0.363 A  
HETATM   17  C   UNL     1     -11.452  12.173  68.035  1.00  0.00    -0.380 A  
BRANCH  15  18
HETATM   18  C   UNL     1     -11.858  15.783  69.216  1.00  0.00    -0.358 C  
BRANCH  18  19
HETATM   19  C   UNL     1     -11.159  16.307  70.471  1.00  0.00    -0.277 C  
BRANCH  19  20
HETATM   20  O   UNL     1     -11.428  15.436  71.572  1.00  0.00    -0.356 OA 
BRANCH  20  21
HETATM   21  C   UNL     1     -12.145  16.127  72.594  1.00  0.00    -0.554 C  
BRANCH  21  22
HETATM   22  C   UNL     1     -13.436  15.419  72.851  1.00  0.00    -0.629 C  
HETATM   23  C   UNL     1     -14.407  15.216  71.714  1.00  0.00    -0.696 C  
HETATM   24  C   UNL     1     -13.686  14.036  72.304  1.00  0.00    -0.646 C  
ENDBRANCH  21  22
ENDBRANCH  20  21
ENDBRANCH  19  20
ENDBRANCH  18  19
ENDBRANCH  15  18
ENDBRANCH  11  12
ENDBRANCH  10  11
ENDBRANCH   7  10
ENDBRANCH   6   7
ENDBRANCH   4   6
ENDBRANCH   2   4
TORSDOF 11
ENDMDL
MODEL       48
REMARK 921   NORMALIZED FREE ENERGY PREDICTED BY IDOCK:   -4.81 KCAL/MOL
REMARK 922        TOTAL FREE ENERGY PREDICTED BY IDOCK:   -9.23 KCAL/MOL
REMARK 923 INTER-LIGAND FREE ENERGY PREDICTED BY IDOCK:   -8.33 KCAL/MOL
REMARK 924 INTRA-LIGAND FREE ENERGY PREDICTED BY IDOCK:   -0.91 KCAL/MOL
REMARK 927      BINDING AFFINITY PREDICTED BY RF-SCORE:    0.00 PKD
ROOT
HETATM    1  C   UNL     1     -13.277  10.775  71.768  1.00  0.00    -0.523 C  
HETATM    2  C   UNL     1     -13.017   9.269  71.726  1.00  0.00    -0.396 C  
HETATM    3  C   UNL     1     -14.352   8.517  71.688  1.00  0.00    -0.497 C  
ENDROOT
BRANCH   2   4
HETATM    4  N   UNL     1     -12.229   8.850  70.559  1.00  0.00    -0.475 NA 
HETATM    5  H   UNL     1     -12.793   8.914  69.712  1.00  0.00     0.000 HD 
BRANCH   4   6
HETATM    6  C   UNL     1     -10.958   9.564  70.378  1.00  0.00    -0.278 C  
BRANCH   6   7
HETATM    7  C   UNL     1     -10.101   9.154  69.164  1.00  0.00    -0.194 C  
HETATM    8  O   UNL     1      -8.822   9.799  69.272  1.00  0.00    -0.145 OA 
HETATM    9  H   UNL     1      -8.293   9.547  68.524  1.00  0.00     0.000 HD 
BRANCH   7  10
HETATM   10  C   UNL     1     -10.756   9.552  67.838  1.00  0.00    -0.228 C  
BRANCH  10  11
HETATM   11  O   UNL     1     -11.622  10.673  68.086  1.00  0.00    -0.429 OA 
BRANCH  11  12
HETATM   12  C   UNL     1     -11.233  11.864  67.532  1.00  0.00    -0.296 A  
HETATM   13  C   UNL     1     -11.819  13.104  67.788  1.00  0.00    -0.392 A  
HETATM   14  C   UNL     1     -11.363  14.248  67.128  1.00  0.00    -0.352 A  
HETATM   15  C   UNL     1     -10.298  14.181  66.223  1.00  0.00    -0.294 A  
HETATM   16  C   UNL     1      -9.695  12.939  65.990  1.00  0.00    -0.228 A  
HETATM   17  C   UNL     1     -10.159  11.791  66.642  1.00  0.00    -0.231 A  
BRANCH  15  18
HETATM   18  C   UNL     1      -9.837  15.418  65.488  1.00  0.00    -0.359 C  
BRANCH  18  19
HETATM   19  C   UNL     1     -10.997  16.311  65.045  1.00  0.00    -0.298 C  
BRANCH  19  20
HETATM   20  O   UNL     1     -10.666  17.683  65.281  1.00  0.00    -0.649 OA 
BRANCH  20  21
HETATM   21  C   UNL     1     -10.372  17.896  66.662  1.00  0.00    -0.361 C  
BRANCH  21  22
HETATM   22  C   UNL     1     -10.714  19.305  67.023  1.00  0.00    -0.565 C  
HETATM   23  C   UNL     1     -10.095  19.925  68.252  1.00  0.00    -0.571 C  
HETATM   24  C   UNL     1      -9.697  20.411  66.886  1.00  0.00    -0.567 C  
ENDBRANCH  21  22
ENDBRANCH  20  21
ENDBRANCH  19  20
ENDBRANCH  18  19
ENDBRANCH  15  18
ENDBRANCH  11  12
ENDBRANCH  10  11
ENDBRANCH   7  10
ENDBRANCH   6   7
ENDBRANCH   4   6
ENDBRANCH   2   4
TORSDOF 11
ENDMDL
MODEL       49
REMARK 921   NORMALIZED FREE ENERGY PREDICTED BY IDOCK:   -4.81 KCAL/MOL
REMARK 922        TOTAL FREE ENERGY PREDICTED BY IDOCK:   -9.23 KCAL/MOL
REMARK 923 INTER-LIGAND FREE ENERGY PREDICTED BY IDOCK:   -7.24 KCAL/MOL
REMARK 924 INTRA-LIGAND FREE ENERGY PREDICTED BY IDOCK:   -1.99 KCAL/MOL
REMARK 927      BINDING AFFINITY PREDICTED BY RF-SCORE:    0.00 PKD
ROOT
HETATM    1  C   UNL     1     -13.198   9.258  72.281  1.00  0.00    -0.535 C  
HETATM    2  C   UNL     1     -12.884  10.354  71.262  1.00  0.00    -0.433 C  
HETATM    3  C   UNL     1     -13.243  11.722  71.851  1.00  0.00    -0.468 C  
ENDROOT
BRANCH   2   4
HETATM    4  N   UNL     1     -11.469  10.389  70.867  1.00  0.00    -0.340 NA 
HETATM    5  H   UNL     1     -10.872  10.249  71.682  1.00  0.00     0.000 HD 
BRANCH   4   6
HETATM    6  C   UNL     1     -11.097   9.450  69.800  1.00  0.00    -0.172 C  
BRANCH   6   7
HETATM    7  C   UNL     1     -10.176   9.992  68.690  1.00  0.00    -0.180 C  
HETATM    8  O   UNL     1      -9.305  10.980  69.264  1.00  0.00    -0.393 OA 
HETATM    9  H   UNL     1      -8.737  11.315  68.579  1.00  0.00     0.000 HD 
BRANCH   7  10
HETATM   10  C   UNL     1     -10.970  10.625  67.543  1.00  0.00    -0.310 C  
BRANCH  10  11
HETATM   11  O   UNL     1     -11.990  11.464  68.115  1.00  0.00    -0.594 OA 
BRANCH  11  12
HETATM   12  C   UNL     1     -11.786  12.814  68.004  1.00  0.00    -0.356 A  
HETATM   13  C   UNL     1     -11.695  13.521  66.805  1.00  0.00    -0.430 A  
HETATM   14  C   UNL     1     -11.440  14.895  66.815  1.00  0.00    -0.304 A  
HETATM   15  C   UNL     1     -11.298  15.592  68.021  1.00  0.00    -0.324 A  
HETATM   16  C   UNL     1     -11.417  14.882  69.222  1.00  0.00    -0.324 A  
HETATM   17  C   UNL     1     -11.661  13.504  69.211  1.00  0.00    -0.382 A  
BRANCH  15  18
HETATM   18  C   UNL     1     -10.987  17.070  68.020  1.00  0.00    -0.252 C  
BRANCH  18  19
HETATM   19  C   UNL     1     -10.184  17.506  66.793  1.00  0.00    -0.327 C  
BRANCH  19  20
HETATM   20  O   UNL     1      -8.787  17.477  67.096  1.00  0.00    -0.229 OA 
BRANCH  20  21
HETATM   21  C   UNL     1      -8.136  16.444  66.356  1.00  0.00    -0.322 C  
BRANCH  21  22
HETATM   22  C   UNL     1      -7.274  15.648  67.281  1.00  0.00    -0.252 C  
HETATM   23  C   UNL     1      -7.666  15.523  68.733  1.00  0.00    -0.159 C  
HETATM   24  C   UNL     1      -7.740  14.323  67.830  1.00  0.00    -0.157 C  
ENDBRANCH  21  22
ENDBRANCH  20  21
ENDBRANCH  19  20
ENDBRANCH  18  19
ENDBRANCH  15  18
ENDBRANCH  11  12
ENDBRANCH  10  11
ENDBRANCH   7  10
ENDBRANCH   6   7
ENDBRANCH   4   6
ENDBRANCH   2   4
TORSDOF 11
ENDMDL
MODEL       50
REMARK 921   NORMALIZED FREE ENERGY PREDICTED BY IDOCK:   -4.79 KCAL/MOL
REMARK 922        TOTAL FREE ENERGY PREDICTED BY IDOCK:   -9.20 KCAL/MOL
REMARK 923 INTER-LIGAND FREE ENERGY PREDICTED BY IDOCK:   -7.96 KCAL/MOL
REMARK 924 INTRA-LIGAND FREE ENERGY PREDICTED BY IDOCK:   -1.24 KCAL/MOL
REMARK 927      BINDING AFFINITY PREDICTED BY RF-SCORE:    0.00 PKD
ROOT
HETATM    1  C   UNL     1     -10.194  11.890  64.586  1.00  0.00    -0.316 C  
HETATM    2  C   UNL     1     -11.404  12.816  64.716  1.00  0.00    -0.309 C  
HETATM    3  C   UNL     1     -12.258  12.728  63.447  1.00  0.00    -0.594 C  
ENDROOT
BRANCH   2   4
HETATM    4  N   UNL     1     -12.263  12.489  65.863  1.00  0.00    -0.624 NA 
HETATM    5  H   UNL     1     -12.489  11.494  65.860  1.00  0.00     0.000 HD 
BRANCH   4   6
HETATM    6  C   UNL     1     -11.729  12.884  67.173  1.00  0.00    -0.377 C  
BRANCH   6   7
HETATM    7  C   UNL     1     -11.224  11.750  68.086  1.00  0.00    -0.260 C  
HETATM    8  O   UNL     1     -11.767  10.507  67.611  1.00  0.00    -0.633 OA 
HETATM    9  H   UNL     1     -11.456   9.808  68.174  1.00  0.00     0.000 HD 
BRANCH   7  10
HETATM   10  C   UNL     1     -11.642  11.958  69.544  1.00  0.00    -0.327 C  
BRANCH  10  11
HETATM   11  O   UNL     1     -12.488  10.859  69.929  1.00  0.00    -0.319 OA 
BRANCH  11  12
HETATM   12  C   UNL     1     -11.940   9.961  70.806  1.00  0.00    -0.323 A  
HETATM   13  C   UNL     1     -10.575   9.735  70.982  1.00  0.00    -0.295 A  
HETATM   14  C   UNL     1     -10.132   8.758  71.879  1.00  0.00    -0.409 A  
HETATM   15  C   UNL     1     -11.043   8.009  72.634  1.00  0.00    -0.453 A  
HETATM   16  C   UNL     1     -12.411   8.259  72.472  1.00  0.00    -0.335 A  
HETATM   17  C   UNL     1     -12.853   9.230  71.567  1.00  0.00    -0.427 A  
BRANCH  15  18
HETATM   18  C   UNL     1     -10.555   6.931  73.573  1.00  0.00    -0.378 C  
BRANCH  18  19
HETATM   19  C   UNL     1     -10.837   5.520  73.054  1.00  0.00    -0.274 C  
BRANCH  19  20
HETATM   20  O   UNL     1      -9.674   5.005  72.400  1.00  0.00    -0.146 OA 
BRANCH  20  21
HETATM   21  C   UNL     1     -10.015   4.466  71.123  1.00  0.00    -0.173 C  
BRANCH  21  22
HETATM   22  C   UNL     1      -9.920   5.545  70.094  1.00  0.00    -0.287 C  
HETATM   23  C   UNL     1     -10.220   5.220  68.651  1.00  0.00    -0.223 C  
HETATM   24  C   UNL     1     -11.156   6.100  69.432  1.00  0.00    -0.479 C  
ENDBRANCH  21  22
ENDBRANCH  20  21
ENDBRANCH  19  20
ENDBRANCH  18  19
ENDBRANCH  15  18
ENDBRANCH  11  12
ENDBRANCH  10  11
ENDBRANCH   7  10
ENDBRANCH   6   7
ENDBRANCH   4   6
ENDBRANCH   2   4
TORSDOF 11
ENDMDL
MODEL       51
REMARK 921   NORMALIZED FREE ENERGY PREDICTED BY IDOCK:   -4.78 KCAL/MOL
REMARK 922        TOTAL FREE ENERGY PREDICTED BY IDOCK:   -9.19 KCAL/MOL
REMARK 923 INTER-LIGAND FREE ENERGY PREDICTED BY IDOCK:   -8.36 KCAL/MOL
REMARK 924 INTRA-LIGAND FREE ENERGY PREDICTED BY IDOCK:   -0.83 KCAL/MOL
REMARK 927      BINDING AFFINITY PREDICTED BY RF-SCORE:    0.00 PKD
ROOT
HETATM    1  C   UNL     1     -12.258  15.539  71.474  1.00  0.00    -0.462 C  
HETATM    2  C   UNL     1     -12.814  14.211  71.991  1.00  0.00    -0.338 C  
HETATM    3  C   UNL     1     -14.345  14.255  71.981  1.00  0.00    -0.629 C  
ENDROOT
BRANCH   2   4
HETATM    4  N   UNL     1     -12.388  13.055  71.192  1.00  0.00    -0.357 NA 
HETATM    5  H   UNL     1     -11.370  12.994  71.175  1.00  0.00     0.000 HD 
BRANCH   4   6
HETATM    6  C   UNL     1     -12.966  11.768  71.602  1.00  0.00    -0.362 C  
BRANCH   6   7
HETATM    7  C   UNL     1     -13.019  10.660  70.532  1.00  0.00    -0.205 C  
HETATM    8  O   UNL     1     -13.170   9.394  71.195  1.00  0.00    -0.480 OA 
HETATM    9  H   UNL     1     -13.203   8.711  70.536  1.00  0.00     0.000 HD 
BRANCH   7  10
HETATM   10  C   UNL     1     -11.751  10.630  69.674  1.00  0.00    -0.296 C  
BRANCH  10  11
HETATM   11  O   UNL     1     -12.113  10.985  68.328  1.00  0.00    -0.604 OA 
BRANCH  11  12
HETATM   12  C   UNL     1     -11.443  12.050  67.788  1.00  0.00    -0.325 A  
HETATM   13  C   UNL     1     -10.459  12.797  68.437  1.00  0.00    -0.253 A  
HETATM   14  C   UNL     1      -9.873  13.895  67.799  1.00  0.00    -0.237 A  
HETATM   15  C   UNL     1     -10.239  14.250  66.495  1.00  0.00    -0.277 A  
HETATM   16  C   UNL     1     -11.208  13.480  65.839  1.00  0.00    -0.310 A  
HETATM   17  C   UNL     1     -11.802  12.388  66.482  1.00  0.00    -0.407 A  
BRANCH  15  18
HETATM   18  C   UNL     1      -9.626  15.459  65.830  1.00  0.00    -0.386 C  
BRANCH  18  19
HETATM   19  C   UNL     1     -10.652  16.305  65.075  1.00  0.00    -0.233 C  
BRANCH  19  20
HETATM   20  O   UNL     1     -10.501  17.681  65.434  1.00  0.00    -0.648 OA 
BRANCH  20  21
HETATM   21  C   UNL     1     -10.253  17.809  66.834  1.00  0.00    -0.346 C  
BRANCH  21  22
HETATM   22  C   UNL     1      -9.578  19.116  67.094  1.00  0.00    -0.378 C  
HETATM   23  C   UNL     1      -8.511  19.600  66.143  1.00  0.00    -0.354 C  
HETATM   24  C   UNL     1      -9.833  20.312  66.211  1.00  0.00    -0.471 C  
ENDBRANCH  21  22
ENDBRANCH  20  21
ENDBRANCH  19  20
ENDBRANCH  18  19
ENDBRANCH  15  18
ENDBRANCH  11  12
ENDBRANCH  10  11
ENDBRANCH   7  10
ENDBRANCH   6   7
ENDBRANCH   4   6
ENDBRANCH   2   4
TORSDOF 11
ENDMDL
MODEL       52
REMARK 921   NORMALIZED FREE ENERGY PREDICTED BY IDOCK:   -4.78 KCAL/MOL
REMARK 922        TOTAL FREE ENERGY PREDICTED BY IDOCK:   -9.18 KCAL/MOL
REMARK 923 INTER-LIGAND FREE ENERGY PREDICTED BY IDOCK:   -8.40 KCAL/MOL
REMARK 924 INTRA-LIGAND FREE ENERGY PREDICTED BY IDOCK:   -0.78 KCAL/MOL
REMARK 927      BINDING AFFINITY PREDICTED BY RF-SCORE:    0.00 PKD
ROOT
HETATM    1  C   UNL     1      -8.057  15.062  67.276  1.00  0.00    -0.237 C  
HETATM    2  C   UNL     1      -8.111  16.548  66.918  1.00  0.00    -0.218 C  
HETATM    3  C   UNL     1      -6.694  17.065  66.649  1.00  0.00    -0.273 C  
ENDROOT
BRANCH   2   4
HETATM    4  N   UNL     1      -8.929  16.827  65.730  1.00  0.00    -0.487 NA 
HETATM    5  H   UNL     1      -8.501  16.411  64.902  1.00  0.00     0.000 HD 
BRANCH   4   6
HETATM    6  C   UNL     1     -10.336  16.419  65.832  1.00  0.00    -0.362 C  
BRANCH   6   7
HETATM    7  C   UNL     1     -10.876  15.510  64.711  1.00  0.00    -0.363 C  
HETATM    8  O   UNL     1     -11.640  16.316  63.799  1.00  0.00    -1.539 OA 
HETATM    9  H   UNL     1     -11.973  15.755  63.108  1.00  0.00     0.000 HD 
BRANCH   7  10
HETATM   10  C   UNL     1     -11.764  14.389  65.259  1.00  0.00    -0.364 C  
BRANCH  10  11
HETATM   11  O   UNL     1     -12.066  14.688  66.633  1.00  0.00    -0.347 OA 
BRANCH  11  12
HETATM   12  C   UNL     1     -11.900  13.658  67.520  1.00  0.00    -0.381 A  
HETATM   13  C   UNL     1     -11.524  12.357  67.186  1.00  0.00    -0.423 A  
HETATM   14  C   UNL     1     -11.429  11.375  68.175  1.00  0.00    -0.375 A  
HETATM   15  C   UNL     1     -11.681  11.678  69.518  1.00  0.00    -0.410 A  
HETATM   16  C   UNL     1     -12.032  12.992  69.852  1.00  0.00    -0.381 A  
HETATM   17  C   UNL     1     -12.138  13.973  68.859  1.00  0.00    -0.351 A  
BRANCH  15  18
HETATM   18  C   UNL     1     -11.611  10.601  70.574  1.00  0.00    -0.444 C  
BRANCH  18  19
HETATM   19  C   UNL     1     -10.487   9.595  70.322  1.00  0.00    -0.283 C  
BRANCH  19  20
HETATM   20  O   UNL     1     -11.035   8.377  69.811  1.00  0.00    -0.221 OA 
BRANCH  20  21
HETATM   21  C   UNL     1     -10.270   7.912  68.698  1.00  0.00    -0.205 C  
BRANCH  21  22
HETATM   22  C   UNL     1      -9.960   6.463  68.889  1.00  0.00    -0.168 C  
HETATM   23  C   UNL     1      -9.328   6.006  70.180  1.00  0.00    -0.172 C  
HETATM   24  C   UNL     1     -10.746   5.621  69.863  1.00  0.00    -0.399 C  
ENDBRANCH  21  22
ENDBRANCH  20  21
ENDBRANCH  19  20
ENDBRANCH  18  19
ENDBRANCH  15  18
ENDBRANCH  11  12
ENDBRANCH  10  11
ENDBRANCH   7  10
ENDBRANCH   6   7
ENDBRANCH   4   6
ENDBRANCH   2   4
TORSDOF 11
ENDMDL
MODEL       53
REMARK 921   NORMALIZED FREE ENERGY PREDICTED BY IDOCK:   -4.77 KCAL/MOL
REMARK 922        TOTAL FREE ENERGY PREDICTED BY IDOCK:   -9.16 KCAL/MOL
REMARK 923 INTER-LIGAND FREE ENERGY PREDICTED BY IDOCK:   -8.08 KCAL/MOL
REMARK 924 INTRA-LIGAND FREE ENERGY PREDICTED BY IDOCK:   -1.09 KCAL/MOL
REMARK 927      BINDING AFFINITY PREDICTED BY RF-SCORE:    0.00 PKD
ROOT
HETATM    1  C   UNL     1     -10.776  19.704  66.041  1.00  0.00    -0.527 C  
HETATM    2  C   UNL     1      -9.887  20.263  67.153  1.00  0.00    -0.466 C  
HETATM    3  C   UNL     1      -9.809  19.257  68.306  1.00  0.00    -0.482 C  
ENDROOT
BRANCH   2   4
HETATM    4  N   UNL     1      -8.516  20.549  66.709  1.00  0.00    -0.545 NA 
HETATM    5  H   UNL     1      -8.281  21.524  66.895  1.00  0.00     0.000 HD 
BRANCH   4   6
HETATM    6  C   UNL     1      -7.484  19.665  67.266  1.00  0.00    -0.246 C  
BRANCH   6   7
HETATM    7  C   UNL     1      -6.708  18.788  66.263  1.00  0.00    -0.218 C  
HETATM    8  O   UNL     1      -6.877  19.342  64.948  1.00  0.00    -0.430 OA 
HETATM    9  H   UNL     1      -6.398  18.802  64.330  1.00  0.00     0.000 HD 
BRANCH   7  10
HETATM   10  C   UNL     1      -7.201  17.338  66.267  1.00  0.00    -0.300 C  
BRANCH  10  11
HETATM   11  O   UNL     1      -8.509  17.309  65.670  1.00  0.00    -0.475 OA 
BRANCH  11  12
HETATM   12  C   UNL     1      -9.347  16.320  66.112  1.00  0.00    -0.339 A  
HETATM   13  C   UNL     1     -10.480  15.861  65.441  1.00  0.00    -0.429 A  
HETATM   14  C   UNL     1     -11.286  14.873  66.013  1.00  0.00    -0.327 A  
HETATM   15  C   UNL     1     -10.962  14.307  67.252  1.00  0.00    -0.302 A  
HETATM   16  C   UNL     1      -9.809  14.753  67.910  1.00  0.00    -0.212 A  
HETATM   17  C   UNL     1      -9.008  15.750  67.341  1.00  0.00    -0.204 A  
BRANCH  15  18
HETATM   18  C   UNL     1     -11.860  13.267  67.878  1.00  0.00    -0.388 C  
BRANCH  18  19
HETATM   19  C   UNL     1     -11.353  11.840  67.666  1.00  0.00    -0.302 C  
BRANCH  19  20
HETATM   20  O   UNL     1     -12.057  10.944  68.530  1.00  0.00    -0.545 OA 
BRANCH  20  21
HETATM   21  C   UNL     1     -11.261  10.618  69.670  1.00  0.00    -0.289 C  
BRANCH  21  22
HETATM   22  C   UNL     1     -11.833   9.410  70.337  1.00  0.00    -0.140 C  
HETATM   23  C   UNL     1     -11.398   9.064  71.740  1.00  0.00    -0.447 C  
HETATM   24  C   UNL     1     -12.800   9.543  71.487  1.00  0.00    -0.464 C  
ENDBRANCH  21  22
ENDBRANCH  20  21
ENDBRANCH  19  20
ENDBRANCH  18  19
ENDBRANCH  15  18
ENDBRANCH  11  12
ENDBRANCH  10  11
ENDBRANCH   7  10
ENDBRANCH   6   7
ENDBRANCH   4   6
ENDBRANCH   2   4
TORSDOF 11
ENDMDL
MODEL       54
REMARK 921   NORMALIZED FREE ENERGY PREDICTED BY IDOCK:   -4.76 KCAL/MOL
REMARK 922        TOTAL FREE ENERGY PREDICTED BY IDOCK:   -9.15 KCAL/MOL
REMARK 923 INTER-LIGAND FREE ENERGY PREDICTED BY IDOCK:   -8.11 KCAL/MOL
REMARK 924 INTRA-LIGAND FREE ENERGY PREDICTED BY IDOCK:   -1.04 KCAL/MOL
REMARK 927      BINDING AFFINITY PREDICTED BY RF-SCORE:    0.00 PKD
ROOT
HETATM    1  C   UNL     1      -8.390   6.374  72.312  1.00  0.00    -0.107 C  
HETATM    2  C   UNL     1      -9.911   6.389  72.470  1.00  0.00    -0.171 C  
HETATM    3  C   UNL     1     -10.274   6.417  73.958  1.00  0.00    -0.349 C  
ENDROOT
BRANCH   2   4
HETATM    4  N   UNL     1     -10.549   7.546  71.827  1.00  0.00    -0.205 NA 
HETATM    5  H   UNL     1     -10.718   7.352  70.840  1.00  0.00     0.000 HD 
BRANCH   4   6
HETATM    6  C   UNL     1     -11.784   8.013  72.470  1.00  0.00    -0.387 C  
BRANCH   6   7
HETATM    7  C   UNL     1     -13.094   7.807  71.685  1.00  0.00    -0.345 C  
HETATM    8  O   UNL     1     -12.788   7.122  70.459  1.00  0.00    -0.601 OA 
HETATM    9  H   UNL     1     -13.595   6.996  69.975  1.00  0.00     0.000 HD 
BRANCH   7  10
HETATM   10  C   UNL     1     -13.784   9.136  71.360  1.00  0.00    -0.266 C  
BRANCH  10  11
HETATM   11  O   UNL     1     -13.228  10.149  72.217  1.00  0.00    -0.415 OA 
BRANCH  11  12
HETATM   12  C   UNL     1     -12.925  11.342  71.614  1.00  0.00    -0.432 A  
HETATM   13  C   UNL     1     -13.336  12.598  72.059  1.00  0.00    -0.555 A  
HETATM   14  C   UNL     1     -13.001  13.746  71.335  1.00  0.00    -0.433 A  
HETATM   15  C   UNL     1     -12.229  13.663  70.171  1.00  0.00    -0.413 A  
HETATM   16  C   UNL     1     -11.796  12.401  69.743  1.00  0.00    -0.387 A  
HETATM   17  C   UNL     1     -12.141  11.252  70.463  1.00  0.00    -0.481 A  
BRANCH  15  18
HETATM   18  C   UNL     1     -11.904  14.906  69.376  1.00  0.00    -0.356 C  
BRANCH  18  19
HETATM   19  C   UNL     1     -10.634  14.758  68.536  1.00  0.00    -0.248 C  
BRANCH  19  20
HETATM   20  O   UNL     1     -10.887  15.199  67.199  1.00  0.00    -0.307 OA 
BRANCH  20  21
HETATM   21  C   UNL     1     -10.199  14.372  66.261  1.00  0.00    -0.299 C  
BRANCH  21  22
HETATM   22  C   UNL     1     -11.189  13.780  65.312  1.00  0.00    -0.311 C  
HETATM   23  C   UNL     1     -11.856  12.471  65.660  1.00  0.00    -0.493 C  
HETATM   24  C   UNL     1     -12.660  13.742  65.647  1.00  0.00    -0.551 C  
ENDBRANCH  21  22
ENDBRANCH  20  21
ENDBRANCH  19  20
ENDBRANCH  18  19
ENDBRANCH  15  18
ENDBRANCH  11  12
ENDBRANCH  10  11
ENDBRANCH   7  10
ENDBRANCH   6   7
ENDBRANCH   4   6
ENDBRANCH   2   4
TORSDOF 11
ENDMDL
MODEL       55
REMARK 921   NORMALIZED FREE ENERGY PREDICTED BY IDOCK:   -4.74 KCAL/MOL
REMARK 922        TOTAL FREE ENERGY PREDICTED BY IDOCK:   -9.12 KCAL/MOL
REMARK 923 INTER-LIGAND FREE ENERGY PREDICTED BY IDOCK:   -7.93 KCAL/MOL
REMARK 924 INTRA-LIGAND FREE ENERGY PREDICTED BY IDOCK:   -1.18 KCAL/MOL
REMARK 927      BINDING AFFINITY PREDICTED BY RF-SCORE:    0.00 PKD
ROOT
HETATM    1  C   UNL     1     -11.921   6.882  71.812  1.00  0.00    -0.372 C  
HETATM    2  C   UNL     1     -11.599   8.253  72.409  1.00  0.00    -0.396 C  
HETATM    3  C   UNL     1     -10.096   8.525  72.294  1.00  0.00    -0.386 C  
ENDROOT
BRANCH   2   4
HETATM    4  N   UNL     1     -12.311   9.355  71.747  1.00  0.00    -0.374 NA 
HETATM    5  H   UNL     1     -12.642  10.026  72.440  1.00  0.00     0.000 HD 
BRANCH   4   6
HETATM    6  C   UNL     1     -11.550  10.044  70.697  1.00  0.00    -0.340 C  
BRANCH   6   7
HETATM    7  C   UNL     1     -12.330  11.044  69.821  1.00  0.00    -0.262 C  
HETATM    8  O   UNL     1     -12.072  10.739  68.441  1.00  0.00    -0.805 OA 
HETATM    9  H   UNL     1     -12.552  11.355  67.901  1.00  0.00     0.000 HD 
BRANCH   7  10
HETATM   10  C   UNL     1     -11.921  12.493  70.101  1.00  0.00    -0.301 C  
BRANCH  10  11
HETATM   11  O   UNL     1     -11.957  13.217  68.859  1.00  0.00    -0.309 OA 
BRANCH  11  12
HETATM   12  C   UNL     1     -10.962  14.140  68.674  1.00  0.00    -0.258 A  
HETATM   13  C   UNL     1     -10.813  15.322  69.401  1.00  0.00    -0.263 A  
HETATM   14  C   UNL     1      -9.780  16.212  69.093  1.00  0.00    -0.248 A  
HETATM   15  C   UNL     1      -8.863  15.927  68.074  1.00  0.00    -0.178 A  
HETATM   16  C   UNL     1      -9.002  14.726  67.366  1.00  0.00    -0.200 A  
HETATM   17  C   UNL     1     -10.043  13.841  67.668  1.00  0.00    -0.242 A  
BRANCH  15  18
HETATM   18  C   UNL     1      -7.773  16.913  67.726  1.00  0.00    -0.184 C  
BRANCH  18  19
HETATM   19  C   UNL     1      -7.711  17.225  66.231  1.00  0.00    -0.318 C  
BRANCH  19  20
HETATM   20  O   UNL     1      -8.732  18.168  65.893  1.00  0.00    -0.505 OA 
BRANCH  20  21
HETATM   21  C   UNL     1      -8.428  19.452  66.439  1.00  0.00    -0.346 C  
BRANCH  21  22
HETATM   22  C   UNL     1      -9.684  20.071  66.962  1.00  0.00    -0.555 C  
HETATM   23  C   UNL     1     -10.845  19.183  67.338  1.00  0.00    -0.533 C  
HETATM   24  C   UNL     1     -10.083  19.915  68.408  1.00  0.00    -0.557 C  
ENDBRANCH  21  22
ENDBRANCH  20  21
ENDBRANCH  19  20
ENDBRANCH  18  19
ENDBRANCH  15  18
ENDBRANCH  11  12
ENDBRANCH  10  11
ENDBRANCH   7  10
ENDBRANCH   6   7
ENDBRANCH   4   6
ENDBRANCH   2   4
TORSDOF 11
ENDMDL
MODEL       56
REMARK 921   NORMALIZED FREE ENERGY PREDICTED BY IDOCK:   -4.71 KCAL/MOL
REMARK 922        TOTAL FREE ENERGY PREDICTED BY IDOCK:   -9.08 KCAL/MOL
REMARK 923 INTER-LIGAND FREE ENERGY PREDICTED BY IDOCK:   -8.03 KCAL/MOL
REMARK 924 INTRA-LIGAND FREE ENERGY PREDICTED BY IDOCK:   -1.05 KCAL/MOL
REMARK 927      BINDING AFFINITY PREDICTED BY RF-SCORE:    0.00 PKD
ROOT
HETATM    1  C   UNL     1     -11.535  15.226  68.555  1.00  0.00    -0.355 C  
HETATM    2  C   UNL     1     -10.896  16.003  69.707  1.00  0.00    -0.337 C  
HETATM    3  C   UNL     1     -10.363  17.344  69.190  1.00  0.00    -0.271 C  
ENDROOT
BRANCH   2   4
HETATM    4  N   UNL     1     -11.830  16.280  70.807  1.00  0.00    -0.527 NA 
HETATM    5  H   UNL     1     -12.789  16.114  70.504  1.00  0.00     0.000 HD 
BRANCH   4   6
HETATM    6  C   UNL     1     -11.559  15.550  72.052  1.00  0.00    -0.456 C  
BRANCH   6   7
HETATM    7  C   UNL     1     -12.763  15.289  72.978  1.00  0.00    -0.441 C  
HETATM    8  O   UNL     1     -12.279  15.138  74.323  1.00  0.00    -0.628 OA 
HETATM    9  H   UNL     1     -13.021  14.976  74.893  1.00  0.00     0.000 HD 
BRANCH   7  10
HETATM   10  C   UNL     1     -13.533  14.028  72.575  1.00  0.00    -0.558 C  
BRANCH  10  11
HETATM   11  O   UNL     1     -13.071  13.617  71.276  1.00  0.00    -0.328 OA 
BRANCH  11  12
HETATM   12  C   UNL     1     -12.743  12.293  71.149  1.00  0.00    -0.243 A  
HETATM   13  C   UNL     1     -13.214  11.264  71.964  1.00  0.00    -0.437 A  
HETATM   14  C   UNL     1     -12.775   9.952  71.766  1.00  0.00    -0.523 A  
HETATM   15  C   UNL     1     -11.879   9.640  70.736  1.00  0.00    -0.378 A  
HETATM   16  C   UNL     1     -11.431  10.673  69.904  1.00  0.00    -0.393 A  
HETATM   17  C   UNL     1     -11.863  11.988  70.110  1.00  0.00    -0.383 A  
BRANCH  15  18
HETATM   18  C   UNL     1     -11.383   8.225  70.554  1.00  0.00    -0.225 C  
BRANCH  18  19
HETATM   19  C   UNL     1     -11.761   7.309  71.719  1.00  0.00    -0.286 C  
BRANCH  19  20
HETATM   20  O   UNL     1     -11.510   5.947  71.363  1.00  0.00    -0.242 OA 
BRANCH  20  21
HETATM   21  C   UNL     1     -11.033   5.861  70.020  1.00  0.00    -0.360 C  
BRANCH  21  22
HETATM   22  C   UNL     1     -10.075   4.719  69.913  1.00  0.00    -0.299 C  
HETATM   23  C   UNL     1      -8.805   4.741  70.727  1.00  0.00    -0.153 C  
HETATM   24  C   UNL     1      -9.888   3.752  71.055  1.00  0.00    -0.204 C  
ENDBRANCH  21  22
ENDBRANCH  20  21
ENDBRANCH  19  20
ENDBRANCH  18  19
ENDBRANCH  15  18
ENDBRANCH  11  12
ENDBRANCH  10  11
ENDBRANCH   7  10
ENDBRANCH   6   7
ENDBRANCH   4   6
ENDBRANCH   2   4
TORSDOF 11
ENDMDL
MODEL       57
REMARK 921   NORMALIZED FREE ENERGY PREDICTED BY IDOCK:   -4.71 KCAL/MOL
REMARK 922        TOTAL FREE ENERGY PREDICTED BY IDOCK:   -9.07 KCAL/MOL
REMARK 923 INTER-LIGAND FREE ENERGY PREDICTED BY IDOCK:   -7.97 KCAL/MOL
REMARK 924 INTRA-LIGAND FREE ENERGY PREDICTED BY IDOCK:   -1.10 KCAL/MOL
REMARK 927      BINDING AFFINITY PREDICTED BY RF-SCORE:    0.00 PKD
ROOT
HETATM    1  C   UNL     1      -9.047  10.266  64.943  1.00  0.00    -0.250 C  
HETATM    2  C   UNL     1      -9.115  11.173  63.714  1.00  0.00    -0.071 C  
HETATM    3  C   UNL     1      -9.473  10.340  62.478  1.00  0.00    -0.281 C  
ENDROOT
BRANCH   2   4
HETATM    4  N   UNL     1     -10.110  12.246  63.840  1.00  0.00    -0.517 NA 
HETATM    5  H   UNL     1     -10.307  12.653  62.925  1.00  0.00     0.000 HD 
BRANCH   4   6
HETATM    6  C   UNL     1     -11.363  11.858  64.502  1.00  0.00    -0.316 C  
BRANCH   6   7
HETATM    7  C   UNL     1     -12.545  12.839  64.375  1.00  0.00    -0.352 C  
HETATM    8  O   UNL     1     -12.384  13.593  63.163  1.00  0.00    -1.045 OA 
HETATM    9  H   UNL     1     -13.113  14.197  63.085  1.00  0.00     0.000 HD 
BRANCH   7  10
HETATM   10  C   UNL     1     -12.620  13.804  65.562  1.00  0.00    -0.512 C  
BRANCH  10  11
HETATM   11  O   UNL     1     -11.290  13.977  66.083  1.00  0.00    -0.310 OA 
BRANCH  11  12
HETATM   12  C   UNL     1     -11.021  15.197  66.645  1.00  0.00    -0.318 A  
HETATM   13  C   UNL     1     -11.111  15.497  68.004  1.00  0.00    -0.322 A  
HETATM   14  C   UNL     1     -10.854  16.794  68.457  1.00  0.00    -0.345 A  
HETATM   15  C   UNL     1     -10.477  17.806  67.567  1.00  0.00    -0.376 A  
HETATM   16  C   UNL     1     -10.362  17.493  66.207  1.00  0.00    -0.335 A  
HETATM   17  C   UNL     1     -10.630  16.196  65.752  1.00  0.00    -0.347 A  
BRANCH  15  18
HETATM   18  C   UNL     1     -10.237  19.213  68.063  1.00  0.00    -0.489 C  
BRANCH  18  19
HETATM   19  C   UNL     1      -9.710  20.145  66.971  1.00  0.00    -0.437 C  
BRANCH  19  20
HETATM   20  O   UNL     1      -8.493  20.756  67.405  1.00  0.00    -0.300 OA 
BRANCH  20  21
HETATM   21  C   UNL     1      -7.389  19.872  67.205  1.00  0.00    -0.257 C  
BRANCH  21  22
HETATM   22  C   UNL     1      -6.697  19.650  68.511  1.00  0.00    -0.334 C  
HETATM   23  C   UNL     1      -6.544  18.244  69.037  1.00  0.00    -0.263 C  
HETATM   24  C   UNL     1      -5.335  19.005  68.569  1.00  0.00    -0.194 C  
ENDBRANCH  21  22
ENDBRANCH  20  21
ENDBRANCH  19  20
ENDBRANCH  18  19
ENDBRANCH  15  18
ENDBRANCH  11  12
ENDBRANCH  10  11
ENDBRANCH   7  10
ENDBRANCH   6   7
ENDBRANCH   4   6
ENDBRANCH   2   4
TORSDOF 11
ENDMDL
MODEL       58
REMARK 921   NORMALIZED FREE ENERGY PREDICTED BY IDOCK:   -4.70 KCAL/MOL
REMARK 922        TOTAL FREE ENERGY PREDICTED BY IDOCK:   -9.06 KCAL/MOL
REMARK 923 INTER-LIGAND FREE ENERGY PREDICTED BY IDOCK:   -7.98 KCAL/MOL
REMARK 924 INTRA-LIGAND FREE ENERGY PREDICTED BY IDOCK:   -1.08 KCAL/MOL
REMARK 927      BINDING AFFINITY PREDICTED BY RF-SCORE:    0.00 PKD
ROOT
HETATM    1  C   UNL     1     -12.902   7.105  71.441  1.00  0.00    -0.431 C  
HETATM    2  C   UNL     1     -11.457   7.136  70.943  1.00  0.00    -0.297 C  
HETATM    3  C   UNL     1     -10.823   5.751  71.115  1.00  0.00    -0.316 C  
ENDROOT
BRANCH   2   4
HETATM    4  N   UNL     1     -11.339   7.515  69.529  1.00  0.00    -0.455 NA 
HETATM    5  H   UNL     1     -10.620   8.230  69.415  1.00  0.00     0.000 HD 
BRANCH   4   6
HETATM    6  C   UNL     1     -11.096   6.401  68.604  1.00  0.00    -0.311 C  
BRANCH   6   7
HETATM    7  C   UNL     1     -10.716   6.772  67.157  1.00  0.00    -0.371 C  
HETATM    8  O   UNL     1     -11.044   5.665  66.302  1.00  0.00    -0.734 OA 
HETATM    9  H   UNL     1     -10.810   5.894  65.410  1.00  0.00     0.000 HD 
BRANCH   7  10
HETATM   10  C   UNL     1      -9.224   7.090  67.019  1.00  0.00    -0.147 C  
BRANCH  10  11
HETATM   11  O   UNL     1      -9.033   8.483  67.327  1.00  0.00    -0.128 OA 
BRANCH  11  12
HETATM   12  C   UNL     1      -9.449   9.369  66.368  1.00  0.00    -0.201 A  
HETATM   13  C   UNL     1      -9.099   9.321  65.019  1.00  0.00    -0.245 A  
HETATM   14  C   UNL     1      -9.550  10.309  64.139  1.00  0.00    -0.376 A  
HETATM   15  C   UNL     1     -10.378  11.347  64.584  1.00  0.00    -0.362 A  
HETATM   16  C   UNL     1     -10.747  11.375  65.935  1.00  0.00    -0.311 A  
HETATM   17  C   UNL     1     -10.287  10.391  66.817  1.00  0.00    -0.294 A  
BRANCH  15  18
HETATM   18  C   UNL     1     -10.829  12.430  63.633  1.00  0.00    -0.509 C  
BRANCH  18  19
HETATM   19  C   UNL     1     -12.343  12.644  63.653  1.00  0.00    -0.492 C  
BRANCH  19  20
HETATM   20  O   UNL     1     -12.661  13.752  64.498  1.00  0.00    -0.643 OA 
BRANCH  20  21
HETATM   21  C   UNL     1     -11.682  14.783  64.364  1.00  0.00    -0.336 C  
BRANCH  21  22
HETATM   22  C   UNL     1     -11.174  15.155  65.718  1.00  0.00    -0.287 C  
HETATM   23  C   UNL     1      -9.692  15.092  65.995  1.00  0.00    -0.359 C  
HETATM   24  C   UNL     1     -10.385  16.424  65.931  1.00  0.00    -0.378 C  
ENDBRANCH  21  22
ENDBRANCH  20  21
ENDBRANCH  19  20
ENDBRANCH  18  19
ENDBRANCH  15  18
ENDBRANCH  11  12
ENDBRANCH  10  11
ENDBRANCH   7  10
ENDBRANCH   6   7
ENDBRANCH   4   6
ENDBRANCH   2   4
TORSDOF 11
ENDMDL
MODEL       59
REMARK 921   NORMALIZED FREE ENERGY PREDICTED BY IDOCK:   -4.68 KCAL/MOL
REMARK 922        TOTAL FREE ENERGY PREDICTED BY IDOCK:   -9.03 KCAL/MOL
REMARK 923 INTER-LIGAND FREE ENERGY PREDICTED BY IDOCK:   -7.84 KCAL/MOL
REMARK 924 INTRA-LIGAND FREE ENERGY PREDICTED BY IDOCK:   -1.18 KCAL/MOL
REMARK 927      BINDING AFFINITY PREDICTED BY RF-SCORE:    0.00 PKD
ROOT
HETATM    1  C   UNL     1     -12.435  15.902  74.285  1.00  0.00    -0.773 C  
HETATM    2  C   UNL     1     -12.590  14.871  73.166  1.00  0.00    -0.452 C  
HETATM    3  C   UNL     1     -13.924  15.091  72.445  1.00  0.00    -0.593 C  
ENDROOT
BRANCH   2   4
HETATM    4  N   UNL     1     -11.518  14.939  72.164  1.00  0.00    -0.434 NA 
HETATM    5  H   UNL     1     -11.517  14.094  71.592  1.00  0.00     0.000 HD 
BRANCH   4   6
HETATM    6  C   UNL     1     -11.541  16.131  71.307  1.00  0.00    -0.413 C  
BRANCH   6   7
HETATM    7  C   UNL     1     -11.533  15.890  69.785  1.00  0.00    -0.342 C  
HETATM    8  O   UNL     1     -12.855  16.132  69.278  1.00  0.00    -0.258 OA 
HETATM    9  H   UNL     1     -12.850  15.984  68.340  1.00  0.00     0.000 HD 
BRANCH   7  10
HETATM   10  C   UNL     1     -11.112  14.461  69.432  1.00  0.00    -0.261 C  
BRANCH  10  11
HETATM   11  O   UNL     1     -12.237  13.594  69.660  1.00  0.00    -0.314 OA 
BRANCH  11  12
HETATM   12  C   UNL     1     -11.942  12.272  69.869  1.00  0.00    -0.306 A  
HETATM   13  C   UNL     1     -11.119  11.491  69.057  1.00  0.00    -0.302 A  
HETATM   14  C   UNL     1     -10.925  10.137  69.347  1.00  0.00    -0.285 A  
HETATM   15  C   UNL     1     -11.526   9.547  70.465  1.00  0.00    -0.337 A  
HETATM   16  C   UNL     1     -12.329  10.343  71.291  1.00  0.00    -0.507 A  
HETATM   17  C   UNL     1     -12.531  11.695  70.995  1.00  0.00    -0.436 A  
BRANCH  15  18
HETATM   18  C   UNL     1     -11.339   8.075  70.748  1.00  0.00    -0.282 C  
BRANCH  18  19
HETATM   19  C   UNL     1     -12.458   7.489  71.611  1.00  0.00    -0.342 C  
BRANCH  19  20
HETATM   20  O   UNL     1     -11.904   6.583  72.568  1.00  0.00    -0.229 OA 
BRANCH  20  21
HETATM   21  C   UNL     1     -10.478   6.575  72.484  1.00  0.00    -0.205 C  
BRANCH  21  22
HETATM   22  C   UNL     1      -9.961   5.297  73.061  1.00  0.00    -0.188 C  
HETATM   23  C   UNL     1     -10.932   4.194  73.404  1.00  0.00    -0.350 C  
HETATM   24  C   UNL     1      -9.975   4.020  72.258  1.00  0.00    -0.236 C  
ENDBRANCH  21  22
ENDBRANCH  20  21
ENDBRANCH  19  20
ENDBRANCH  18  19
ENDBRANCH  15  18
ENDBRANCH  11  12
ENDBRANCH  10  11
ENDBRANCH   7  10
ENDBRANCH   6   7
ENDBRANCH   4   6
ENDBRANCH   2   4
TORSDOF 11
ENDMDL
MODEL       60
REMARK 921   NORMALIZED FREE ENERGY PREDICTED BY IDOCK:   -4.68 KCAL/MOL
REMARK 922        TOTAL FREE ENERGY PREDICTED BY IDOCK:   -9.02 KCAL/MOL
REMARK 923 INTER-LIGAND FREE ENERGY PREDICTED BY IDOCK:   -7.33 KCAL/MOL
REMARK 924 INTRA-LIGAND FREE ENERGY PREDICTED BY IDOCK:   -1.69 KCAL/MOL
REMARK 927      BINDING AFFINITY PREDICTED BY RF-SCORE:    0.00 PKD
ROOT
HETATM    1  C   UNL     1      -9.783   6.275  71.021  1.00  0.00    -0.196 C  
HETATM    2  C   UNL     1     -11.280   6.564  70.904  1.00  0.00    -0.311 C  
HETATM    3  C   UNL     1     -11.585   7.948  71.488  1.00  0.00    -0.306 C  
ENDROOT
BRANCH   2   4
HETATM    4  N   UNL     1     -11.768   6.541  69.518  1.00  0.00    -0.645 NA 
HETATM    5  H   UNL     1     -12.152   7.451  69.265  1.00  0.00     0.000 HD 
BRANCH   4   6
HETATM    6  C   UNL     1     -10.781   6.112  68.518  1.00  0.00    -0.300 C  
BRANCH   6   7
HETATM    7  C   UNL     1     -10.927   6.704  67.103  1.00  0.00    -0.408 C  
HETATM    8  O   UNL     1     -10.271   5.827  66.173  1.00  0.00    -0.381 OA 
HETATM    9  H   UNL     1     -10.361   6.191  65.300  1.00  0.00     0.000 HD 
BRANCH   7  10
HETATM   10  C   UNL     1     -10.308   8.102  66.999  1.00  0.00    -0.333 C  
BRANCH  10  11
HETATM   11  O   UNL     1     -10.287   8.681  68.315  1.00  0.00    -0.206 OA 
BRANCH  11  12
HETATM   12  C   UNL     1     -10.543  10.025  68.381  1.00  0.00    -0.220 A  
HETATM   13  C   UNL     1     -11.749  10.598  68.785  1.00  0.00    -0.259 A  
HETATM   14  C   UNL     1     -11.909  11.987  68.770  1.00  0.00    -0.358 A  
HETATM   15  C   UNL     1     -10.860  12.828  68.379  1.00  0.00    -0.272 A  
HETATM   16  C   UNL     1      -9.643  12.248  68.001  1.00  0.00    -0.206 A  
HETATM   17  C   UNL     1      -9.487  10.857  68.005  1.00  0.00    -0.167 A  
BRANCH  15  18
HETATM   18  C   UNL     1     -11.056  14.325  68.332  1.00  0.00    -0.274 C  
BRANCH  18  19
HETATM   19  C   UNL     1     -10.360  14.977  67.136  1.00  0.00    -0.257 C  
BRANCH  19  20
HETATM   20  O   UNL     1     -11.327  15.301  66.134  1.00  0.00    -0.285 OA 
BRANCH  20  21
HETATM   21  C   UNL     1     -10.898  14.833  64.855  1.00  0.00    -0.416 C  
BRANCH  21  22
HETATM   22  C   UNL     1     -11.116  13.357  64.775  1.00  0.00    -0.363 C  
HETATM   23  C   UNL     1     -12.511  12.805  64.944  1.00  0.00    -0.563 C  
HETATM   24  C   UNL     1     -11.837  12.740  63.602  1.00  0.00    -0.603 C  
ENDBRANCH  21  22
ENDBRANCH  20  21
ENDBRANCH  19  20
ENDBRANCH  18  19
ENDBRANCH  15  18
ENDBRANCH  11  12
ENDBRANCH  10  11
ENDBRANCH   7  10
ENDBRANCH   6   7
ENDBRANCH   4   6
ENDBRANCH   2   4
TORSDOF 11
ENDMDL
MODEL       61
REMARK 921   NORMALIZED FREE ENERGY PREDICTED BY IDOCK:   -4.68 KCAL/MOL
REMARK 922        TOTAL FREE ENERGY PREDICTED BY IDOCK:   -9.02 KCAL/MOL
REMARK 923 INTER-LIGAND FREE ENERGY PREDICTED BY IDOCK:   -7.77 KCAL/MOL
REMARK 924 INTRA-LIGAND FREE ENERGY PREDICTED BY IDOCK:   -1.25 KCAL/MOL
REMARK 927      BINDING AFFINITY PREDICTED BY RF-SCORE:    0.00 PKD
ROOT
HETATM    1  C   UNL     1     -10.543   5.497  70.362  1.00  0.00    -0.350 C  
HETATM    2  C   UNL     1     -10.866   6.982  70.532  1.00  0.00    -0.251 C  
HETATM    3  C   UNL     1     -10.104   7.798  69.481  1.00  0.00    -0.194 C  
ENDROOT
BRANCH   2   4
HETATM    4  N   UNL     1     -12.297   7.284  70.389  1.00  0.00    -0.568 NA 
HETATM    5  H   UNL     1     -12.738   6.608  69.765  1.00  0.00     0.000 HD 
BRANCH   4   6
HETATM    6  C   UNL     1     -13.043   7.373  71.650  1.00  0.00    -0.364 C  
BRANCH   6   7
HETATM    7  C   UNL     1     -13.140   8.766  72.302  1.00  0.00    -0.409 C  
HETATM    8  O   UNL     1     -14.216   8.750  73.254  1.00  0.00    -1.164 OA 
HETATM    9  H   UNL     1     -14.275   9.609  73.656  1.00  0.00     0.000 HD 
BRANCH   7  10
HETATM   10  C   UNL     1     -13.399   9.866  71.268  1.00  0.00    -0.342 C  
BRANCH  10  11
HETATM   11  O   UNL     1     -12.141  10.216  70.663  1.00  0.00    -0.286 OA 
BRANCH  11  12
HETATM   12  C   UNL     1     -12.095  11.437  70.044  1.00  0.00    -0.340 A  
HETATM   13  C   UNL     1     -11.782  11.650  68.701  1.00  0.00    -0.386 A  
HETATM   14  C   UNL     1     -11.722  12.950  68.189  1.00  0.00    -0.395 A  
HETATM   15  C   UNL     1     -11.999  14.056  69.001  1.00  0.00    -0.392 A  
HETATM   16  C   UNL     1     -12.338  13.835  70.341  1.00  0.00    -0.423 A  
HETATM   17  C   UNL     1     -12.388  12.534  70.855  1.00  0.00    -0.349 A  
BRANCH  15  18
HETATM   18  C   UNL     1     -11.896  15.458  68.446  1.00  0.00    -0.264 C  
BRANCH  18  19
HETATM   19  C   UNL     1     -11.002  16.366  69.292  1.00  0.00    -0.322 C  
BRANCH  19  20
HETATM   20  O   UNL     1     -10.094  17.074  68.444  1.00  0.00    -0.267 OA 
BRANCH  20  21
HETATM   21  C   UNL     1      -8.744  16.741  68.768  1.00  0.00    -0.258 C  
BRANCH  21  22
HETATM   22  C   UNL     1      -8.288  15.628  67.883  1.00  0.00    -0.150 C  
HETATM   23  C   UNL     1      -6.902  15.058  68.065  1.00  0.00    -0.152 C  
HETATM   24  C   UNL     1      -8.106  14.230  68.422  1.00  0.00    -0.142 C  
ENDBRANCH  21  22
ENDBRANCH  20  21
ENDBRANCH  19  20
ENDBRANCH  18  19
ENDBRANCH  15  18
ENDBRANCH  11  12
ENDBRANCH  10  11
ENDBRANCH   7  10
ENDBRANCH   6   7
ENDBRANCH   4   6
ENDBRANCH   2   4
TORSDOF 11
ENDMDL
MODEL       62
REMARK 921   NORMALIZED FREE ENERGY PREDICTED BY IDOCK:   -4.67 KCAL/MOL
REMARK 922        TOTAL FREE ENERGY PREDICTED BY IDOCK:   -9.01 KCAL/MOL
REMARK 923 INTER-LIGAND FREE ENERGY PREDICTED BY IDOCK:   -7.46 KCAL/MOL
REMARK 924 INTRA-LIGAND FREE ENERGY PREDICTED BY IDOCK:   -1.55 KCAL/MOL
REMARK 927      BINDING AFFINITY PREDICTED BY RF-SCORE:    0.00 PKD
ROOT
HETATM    1  C   UNL     1     -14.176   8.536  72.030  1.00  0.00    -0.535 C  
HETATM    2  C   UNL     1     -13.046   9.409  71.483  1.00  0.00    -0.377 C  
HETATM    3  C   UNL     1     -13.266  10.864  71.909  1.00  0.00    -0.508 C  
ENDROOT
BRANCH   2   4
HETATM    4  N   UNL     1     -11.716   8.996  71.952  1.00  0.00    -0.367 NA 
HETATM    5  H   UNL     1     -11.793   8.516  72.849  1.00  0.00     0.000 HD 
BRANCH   4   6
HETATM    6  C   UNL     1     -10.948   8.178  71.005  1.00  0.00    -0.244 C  
BRANCH   6   7
HETATM    7  C   UNL     1      -9.534   8.676  70.647  1.00  0.00    -0.184 C  
HETATM    8  O   UNL     1      -8.864   9.054  71.861  1.00  0.00    -0.360 OA 
HETATM    9  H   UNL     1      -7.992   9.361  71.641  1.00  0.00     0.000 HD 
BRANCH   7  10
HETATM   10  C   UNL     1      -9.571   9.877  69.698  1.00  0.00    -0.227 C  
BRANCH  10  11
HETATM   11  O   UNL     1     -10.836   9.866  69.012  1.00  0.00    -0.218 OA 
BRANCH  11  12
HETATM   12  C   UNL     1     -11.135  10.991  68.289  1.00  0.00    -0.257 A  
HETATM   13  C   UNL     1     -11.728  12.144  68.802  1.00  0.00    -0.374 A  
HETATM   14  C   UNL     1     -12.027  13.217  67.957  1.00  0.00    -0.351 A  
HETATM   15  C   UNL     1     -11.715  13.168  66.593  1.00  0.00    -0.427 A  
HETATM   16  C   UNL     1     -11.096  12.018  66.089  1.00  0.00    -0.367 A  
HETATM   17  C   UNL     1     -10.806  10.940  66.934  1.00  0.00    -0.307 A  
BRANCH  15  18
HETATM   18  C   UNL     1     -12.076  14.319  65.683  1.00  0.00    -0.399 C  
BRANCH  18  19
HETATM   19  C   UNL     1     -10.911  14.762  64.797  1.00  0.00    -0.379 C  
BRANCH  19  20
HETATM   20  O   UNL     1     -10.375  15.994  65.286  1.00  0.00    -0.471 OA 
BRANCH  20  21
HETATM   21  C   UNL     1      -9.192  15.756  66.050  1.00  0.00    -0.344 C  
BRANCH  21  22
HETATM   22  C   UNL     1      -9.292  16.489  67.348  1.00  0.00    -0.223 C  
HETATM   23  C   UNL     1     -10.648  16.706  67.972  1.00  0.00    -0.338 C  
HETATM   24  C   UNL     1      -9.666  15.770  68.620  1.00  0.00    -0.205 C  
ENDBRANCH  21  22
ENDBRANCH  20  21
ENDBRANCH  19  20
ENDBRANCH  18  19
ENDBRANCH  15  18
ENDBRANCH  11  12
ENDBRANCH  10  11
ENDBRANCH   7  10
ENDBRANCH   6   7
ENDBRANCH   4   6
ENDBRANCH   2   4
TORSDOF 11
ENDMDL
MODEL       63
REMARK 921   NORMALIZED FREE ENERGY PREDICTED BY IDOCK:   -4.67 KCAL/MOL
REMARK 922        TOTAL FREE ENERGY PREDICTED BY IDOCK:   -9.01 KCAL/MOL
REMARK 923 INTER-LIGAND FREE ENERGY PREDICTED BY IDOCK:   -8.45 KCAL/MOL
REMARK 924 INTRA-LIGAND FREE ENERGY PREDICTED BY IDOCK:   -0.56 KCAL/MOL
REMARK 927      BINDING AFFINITY PREDICTED BY RF-SCORE:    0.00 PKD
ROOT
HETATM    1  C   UNL     1      -9.476   6.735  69.444  1.00  0.00    -0.147 C  
HETATM    2  C   UNL     1     -10.668   5.824  69.740  1.00  0.00    -0.348 C  
HETATM    3  C   UNL     1     -10.333   4.906  70.921  1.00  0.00    -0.225 C  
ENDROOT
BRANCH   2   4
HETATM    4  N   UNL     1     -11.892   6.564  70.076  1.00  0.00    -0.599 NA 
HETATM    5  H   UNL     1     -12.711   6.065  69.726  1.00  0.00     0.000 HD 
BRANCH   4   6
HETATM    6  C   UNL     1     -12.060   6.877  71.501  1.00  0.00    -0.358 C  
BRANCH   6   7
HETATM    7  C   UNL     1     -13.014   8.037  71.847  1.00  0.00    -0.312 C  
HETATM    8  O   UNL     1     -14.184   7.927  71.020  1.00  0.00    -0.651 OA 
HETATM    9  H   UNL     1     -14.772   8.642  71.234  1.00  0.00     0.000 HD 
BRANCH   7  10
HETATM   10  C   UNL     1     -12.362   9.404  71.619  1.00  0.00    -0.385 C  
BRANCH  10  11
HETATM   11  O   UNL     1     -13.382  10.411  71.733  1.00  0.00    -0.393 OA 
BRANCH  11  12
HETATM   12  C   UNL     1     -13.011  11.682  71.380  1.00  0.00    -0.324 A  
HETATM   13  C   UNL     1     -12.333  12.029  70.212  1.00  0.00    -0.275 A  
HETATM   14  C   UNL     1     -11.966  13.358  69.980  1.00  0.00    -0.407 A  
HETATM   15  C   UNL     1     -12.293  14.366  70.894  1.00  0.00    -0.419 A  
HETATM   16  C   UNL     1     -12.998  14.015  72.053  1.00  0.00    -0.450 A  
HETATM   17  C   UNL     1     -13.355  12.683  72.290  1.00  0.00    -0.527 A  
BRANCH  15  18
HETATM   18  C   UNL     1     -11.860  15.792  70.650  1.00  0.00    -0.415 C  
BRANCH  18  19
HETATM   19  C   UNL     1     -11.261  16.000  69.259  1.00  0.00    -0.346 C  
BRANCH  19  20
HETATM   20  O   UNL     1      -9.835  16.055  69.351  1.00  0.00    -0.242 OA 
BRANCH  20  21
HETATM   21  C   UNL     1      -9.312  17.028  68.447  1.00  0.00    -0.266 C  
BRANCH  21  22
HETATM   22  C   UNL     1     -10.258  18.182  68.367  1.00  0.00    -0.401 C  
HETATM   23  C   UNL     1      -9.734  19.544  67.986  1.00  0.00    -0.474 C  
HETATM   24  C   UNL     1     -10.628  18.793  67.039  1.00  0.00    -0.483 C  
ENDBRANCH  21  22
ENDBRANCH  20  21
ENDBRANCH  19  20
ENDBRANCH  18  19
ENDBRANCH  15  18
ENDBRANCH  11  12
ENDBRANCH  10  11
ENDBRANCH   7  10
ENDBRANCH   6   7
ENDBRANCH   4   6
ENDBRANCH   2   4
TORSDOF 11
ENDMDL
MODEL       64
REMARK 921   NORMALIZED FREE ENERGY PREDICTED BY IDOCK:   -4.66 KCAL/MOL
REMARK 922        TOTAL FREE ENERGY PREDICTED BY IDOCK:   -8.99 KCAL/MOL
REMARK 923 INTER-LIGAND FREE ENERGY PREDICTED BY IDOCK:   -8.00 KCAL/MOL
REMARK 924 INTRA-LIGAND FREE ENERGY PREDICTED BY IDOCK:   -0.99 KCAL/MOL
REMARK 927      BINDING AFFINITY PREDICTED BY RF-SCORE:    0.00 PKD
ROOT
HETATM    1  C   UNL     1     -11.132  15.485  64.741  1.00  0.00    -0.421 C  
HETATM    2  C   UNL     1     -11.216  14.201  65.568  1.00  0.00    -0.317 C  
HETATM    3  C   UNL     1     -12.158  14.415  66.758  1.00  0.00    -0.393 C  
ENDROOT
BRANCH   2   4
HETATM    4  N   UNL     1     -11.711  13.050  64.801  1.00  0.00    -0.329 NA 
HETATM    5  H   UNL     1     -12.689  13.189  64.549  1.00  0.00     0.000 HD 
BRANCH   4   6
HETATM    6  C   UNL     1     -10.924  12.713  63.607  1.00  0.00    -0.416 C  
BRANCH   6   7
HETATM    7  C   UNL     1     -10.012  11.475  63.705  1.00  0.00    -0.376 C  
HETATM    8  O   UNL     1     -10.175  10.694  62.510  1.00  0.00    -0.758 OA 
HETATM    9  H   UNL     1      -9.613   9.930  62.570  1.00  0.00     0.000 HD 
BRANCH   7  10
HETATM   10  C   UNL     1     -10.349  10.609  64.923  1.00  0.00    -0.277 C  
BRANCH  10  11
HETATM   11  O   UNL     1      -9.622  11.125  66.052  1.00  0.00    -0.202 OA 
BRANCH  11  12
HETATM   12  C   UNL     1     -10.171  10.874  67.282  1.00  0.00    -0.205 A  
HETATM   13  C   UNL     1     -11.484  11.163  67.653  1.00  0.00    -0.328 A  
HETATM   14  C   UNL     1     -11.922  10.902  68.955  1.00  0.00    -0.277 A  
HETATM   15  C   UNL     1     -11.066  10.324  69.900  1.00  0.00    -0.362 A  
HETATM   16  C   UNL     1      -9.757  10.011  69.514  1.00  0.00    -0.253 A  
HETATM   17  C   UNL     1      -9.316  10.283  68.214  1.00  0.00    -0.140 A  
BRANCH  15  18
HETATM   18  C   UNL     1     -11.539  10.080  71.314  1.00  0.00    -0.430 C  
BRANCH  18  19
HETATM   19  C   UNL     1     -12.889  10.734  71.609  1.00  0.00    -0.457 C  
BRANCH  19  20
HETATM   20  O   UNL     1     -12.684  11.975  72.289  1.00  0.00    -0.034 OA 
BRANCH  20  21
HETATM   21  C   UNL     1     -13.801  12.844  72.092  1.00  0.00    -0.300 C  
BRANCH  21  22
HETATM   22  C   UNL     1     -13.474  14.193  72.644  1.00  0.00    -0.634 C  
HETATM   23  C   UNL     1     -12.832  15.223  71.747  1.00  0.00    -0.457 C  
HETATM   24  C   UNL     1     -14.248  15.416  72.216  1.00  0.00    -0.639 C  
ENDBRANCH  21  22
ENDBRANCH  20  21
ENDBRANCH  19  20
ENDBRANCH  18  19
ENDBRANCH  15  18
ENDBRANCH  11  12
ENDBRANCH  10  11
ENDBRANCH   7  10
ENDBRANCH   6   7
ENDBRANCH   4   6
ENDBRANCH   2   4
TORSDOF 11
ENDMDL
MODEL       65
REMARK 921   NORMALIZED FREE ENERGY PREDICTED BY IDOCK:   -4.66 KCAL/MOL
REMARK 922        TOTAL FREE ENERGY PREDICTED BY IDOCK:   -8.99 KCAL/MOL
REMARK 923 INTER-LIGAND FREE ENERGY PREDICTED BY IDOCK:   -7.53 KCAL/MOL
REMARK 924 INTRA-LIGAND FREE ENERGY PREDICTED BY IDOCK:   -1.46 KCAL/MOL
REMARK 927      BINDING AFFINITY PREDICTED BY RF-SCORE:    0.00 PKD
ROOT
HETATM    1  C   UNL     1     -11.169  16.464  68.638  1.00  0.00    -0.332 C  
HETATM    2  C   UNL     1     -10.727  15.102  69.175  1.00  0.00    -0.253 C  
HETATM    3  C   UNL     1     -11.814  14.534  70.094  1.00  0.00    -0.371 C  
ENDROOT
BRANCH   2   4
HETATM    4  N   UNL     1     -10.471  14.117  68.115  1.00  0.00    -0.239 NA 
HETATM    5  H   UNL     1     -10.301  13.197  68.523  1.00  0.00     0.000 HD 
BRANCH   4   6
HETATM    6  C   UNL     1     -11.512  14.028  67.083  1.00  0.00    -0.352 C  
BRANCH   6   7
HETATM    7  C   UNL     1     -11.484  12.782  66.177  1.00  0.00    -0.351 C  
HETATM    8  O   UNL     1     -12.696  12.752  65.406  1.00  0.00    -0.621 OA 
HETATM    9  H   UNL     1     -12.680  11.984  64.847  1.00  0.00     0.000 HD 
BRANCH   7  10
HETATM   10  C   UNL     1     -11.371  11.486  66.987  1.00  0.00    -0.269 C  
BRANCH  10  11
HETATM   11  O   UNL     1     -12.179  11.625  68.169  1.00  0.00    -0.537 OA 
BRANCH  11  12
HETATM   12  C   UNL     1     -11.819  10.844  69.235  1.00  0.00    -0.324 A  
HETATM   13  C   UNL     1     -12.585  10.642  70.383  1.00  0.00    -0.395 A  
HETATM   14  C   UNL     1     -12.093   9.855  71.428  1.00  0.00    -0.501 A  
HETATM   15  C   UNL     1     -10.841   9.235  71.336  1.00  0.00    -0.434 A  
HETATM   16  C   UNL     1     -10.088   9.420  70.170  1.00  0.00    -0.273 A  
HETATM   17  C   UNL     1     -10.576  10.216  69.128  1.00  0.00    -0.247 A  
BRANCH  15  18
HETATM   18  C   UNL     1     -10.304   8.417  72.487  1.00  0.00    -0.371 C  
BRANCH  18  19
HETATM   19  C   UNL     1     -11.277   7.330  72.946  1.00  0.00    -0.292 C  
BRANCH  19  20
HETATM   20  O   UNL     1     -11.590   6.468  71.849  1.00  0.00    -0.281 OA 
BRANCH  20  21
HETATM   21  C   UNL     1     -10.711   5.343  71.829  1.00  0.00    -0.204 C  
BRANCH  21  22
HETATM   22  C   UNL     1      -9.817   5.441  70.635  1.00  0.00    -0.254 C  
HETATM   23  C   UNL     1      -9.758   4.292  69.659  1.00  0.00    -0.284 C  
HETATM   24  C   UNL     1     -10.388   5.594  69.247  1.00  0.00    -0.340 C  
ENDBRANCH  21  22
ENDBRANCH  20  21
ENDBRANCH  19  20
ENDBRANCH  18  19
ENDBRANCH  15  18
ENDBRANCH  11  12
ENDBRANCH  10  11
ENDBRANCH   7  10
ENDBRANCH   6   7
ENDBRANCH   4   6
ENDBRANCH   2   4
TORSDOF 11
ENDMDL
MODEL       66
REMARK 921   NORMALIZED FREE ENERGY PREDICTED BY IDOCK:   -4.63 KCAL/MOL
REMARK 922        TOTAL FREE ENERGY PREDICTED BY IDOCK:   -8.95 KCAL/MOL
REMARK 923 INTER-LIGAND FREE ENERGY PREDICTED BY IDOCK:   -7.42 KCAL/MOL
REMARK 924 INTRA-LIGAND FREE ENERGY PREDICTED BY IDOCK:   -1.53 KCAL/MOL
REMARK 927      BINDING AFFINITY PREDICTED BY RF-SCORE:    0.00 PKD
ROOT
HETATM    1  C   UNL     1     -13.067  10.273  72.001  1.00  0.00    -0.529 C  
HETATM    2  C   UNL     1     -13.060  11.557  71.171  1.00  0.00    -0.094 C  
HETATM    3  C   UNL     1     -13.355  12.758  72.077  1.00  0.00    -0.565 C  
ENDROOT
BRANCH   2   4
HETATM    4  N   UNL     1     -11.779  11.804  70.495  1.00  0.00    -0.493 NA 
HETATM    5  H   UNL     1     -11.009  11.440  71.057  1.00  0.00     0.000 HD 
BRANCH   4   6
HETATM    6  C   UNL     1     -11.691  11.291  69.122  1.00  0.00    -0.341 C  
BRANCH   6   7
HETATM    7  C   UNL     1     -10.809  12.087  68.141  1.00  0.00    -0.221 C  
HETATM    8  O   UNL     1      -9.678  12.603  68.860  1.00  0.00    -0.408 OA 
HETATM    9  H   UNL     1      -9.134  13.094  68.255  1.00  0.00     0.000 HD 
BRANCH   7  10
HETATM   10  C   UNL     1     -11.571  13.250  67.498  1.00  0.00    -0.346 C  
BRANCH  10  11
HETATM   11  O   UNL     1     -10.675  13.931  66.602  1.00  0.00    -0.279 OA 
BRANCH  11  12
HETATM   12  C   UNL     1     -10.590  15.289  66.759  1.00  0.00    -0.304 A  
HETATM   13  C   UNL     1     -10.603  15.962  67.980  1.00  0.00    -0.287 A  
HETATM   14  C   UNL     1     -10.553  17.359  68.015  1.00  0.00    -0.389 A  
HETATM   15  C   UNL     1     -10.463  18.106  66.835  1.00  0.00    -0.372 A  
HETATM   16  C   UNL     1     -10.423  17.423  65.613  1.00  0.00    -0.173 A  
HETATM   17  C   UNL     1     -10.484  16.026  65.578  1.00  0.00    -0.426 A  
BRANCH  15  18
HETATM   18  C   UNL     1     -10.447  19.616  66.883  1.00  0.00    -0.606 C  
BRANCH  18  19
HETATM   19  C   UNL     1      -9.292  20.171  67.718  1.00  0.00    -0.336 C  
BRANCH  19  20
HETATM   20  O   UNL     1      -8.069  20.052  66.987  1.00  0.00    -0.294 OA 
BRANCH  20  21
HETATM   21  C   UNL     1      -7.002  19.668  67.855  1.00  0.00    -0.255 C  
BRANCH  21  22
HETATM   22  C   UNL     1      -6.309  18.476  67.280  1.00  0.00    -0.193 C  
HETATM   23  C   UNL     1      -6.939  17.112  67.425  1.00  0.00    -0.181 C  
HETATM   24  C   UNL     1      -6.862  17.762  66.071  1.00  0.00    -0.327 C  
ENDBRANCH  21  22
ENDBRANCH  20  21
ENDBRANCH  19  20
ENDBRANCH  18  19
ENDBRANCH  15  18
ENDBRANCH  11  12
ENDBRANCH  10  11
ENDBRANCH   7  10
ENDBRANCH   6   7
ENDBRANCH   4   6
ENDBRANCH   2   4
TORSDOF 11
ENDMDL
MODEL       67
REMARK 921   NORMALIZED FREE ENERGY PREDICTED BY IDOCK:   -4.63 KCAL/MOL
REMARK 922        TOTAL FREE ENERGY PREDICTED BY IDOCK:   -8.95 KCAL/MOL
REMARK 923 INTER-LIGAND FREE ENERGY PREDICTED BY IDOCK:   -7.62 KCAL/MOL
REMARK 924 INTRA-LIGAND FREE ENERGY PREDICTED BY IDOCK:   -1.33 KCAL/MOL
REMARK 927      BINDING AFFINITY PREDICTED BY RF-SCORE:    0.00 PKD
ROOT
HETATM    1  C   UNL     1     -12.867  10.164  71.330  1.00  0.00    -0.508 C  
HETATM    2  C   UNL     1     -13.076   8.930  72.207  1.00  0.00    -0.436 C  
HETATM    3  C   UNL     1     -14.398   8.250  71.833  1.00  0.00    -0.564 C  
ENDROOT
BRANCH   2   4
HETATM    4  N   UNL     1     -12.003   7.935  72.073  1.00  0.00    -0.304 NA 
HETATM    5  H   UNL     1     -11.797   7.515  72.980  1.00  0.00     0.000 HD 
BRANCH   4   6
HETATM    6  C   UNL     1     -12.246   6.888  71.073  1.00  0.00    -0.377 C  
BRANCH   6   7
HETATM    7  C   UNL     1     -11.005   6.276  70.394  1.00  0.00    -0.322 C  
HETATM    8  O   UNL     1      -9.881   6.432  71.275  1.00  0.00    -0.180 OA 
HETATM    9  H   UNL     1      -9.115   6.056  70.857  1.00  0.00     0.000 HD 
BRANCH   7  10
HETATM   10  C   UNL     1     -10.693   6.951  69.055  1.00  0.00    -0.230 C  
BRANCH  10  11
HETATM   11  O   UNL     1     -10.671   8.374  69.264  1.00  0.00    -0.209 OA 
BRANCH  11  12
HETATM   12  C   UNL     1     -10.521   9.142  68.140  1.00  0.00    -0.211 A  
HETATM   13  C   UNL     1     -11.037  10.426  67.965  1.00  0.00    -0.359 A  
HETATM   14  C   UNL     1     -10.856  11.098  66.753  1.00  0.00    -0.322 A  
HETATM   15  C   UNL     1     -10.135  10.513  65.705  1.00  0.00    -0.329 A  
HETATM   16  C   UNL     1      -9.596   9.235  65.897  1.00  0.00    -0.345 A  
HETATM   17  C   UNL     1      -9.787   8.558  67.107  1.00  0.00    -0.269 A  
BRANCH  15  18
HETATM   18  C   UNL     1      -9.976  11.234  64.388  1.00  0.00    -0.338 C  
BRANCH  18  19
HETATM   19  C   UNL     1     -11.313  11.667  63.784  1.00  0.00    -0.393 C  
BRANCH  19  20
HETATM   20  O   UNL     1     -11.314  13.083  63.582  1.00  0.00    -0.418 OA 
BRANCH  20  21
HETATM   21  C   UNL     1     -12.222  13.717  64.484  1.00  0.00    -0.401 C  
BRANCH  21  22
HETATM   22  C   UNL     1     -11.455  14.605  65.408  1.00  0.00    -0.352 C  
HETATM   23  C   UNL     1      -9.954  14.693  65.273  1.00  0.00    -0.329 C  
HETATM   24  C   UNL     1     -10.811  15.875  64.909  1.00  0.00    -0.420 C  
ENDBRANCH  21  22
ENDBRANCH  20  21
ENDBRANCH  19  20
ENDBRANCH  18  19
ENDBRANCH  15  18
ENDBRANCH  11  12
ENDBRANCH  10  11
ENDBRANCH   7  10
ENDBRANCH   6   7
ENDBRANCH   4   6
ENDBRANCH   2   4
TORSDOF 11
ENDMDL
MODEL       68
REMARK 921   NORMALIZED FREE ENERGY PREDICTED BY IDOCK:   -4.63 KCAL/MOL
REMARK 922        TOTAL FREE ENERGY PREDICTED BY IDOCK:   -8.93 KCAL/MOL
REMARK 923 INTER-LIGAND FREE ENERGY PREDICTED BY IDOCK:   -8.24 KCAL/MOL
REMARK 924 INTRA-LIGAND FREE ENERGY PREDICTED BY IDOCK:   -0.70 KCAL/MOL
REMARK 927      BINDING AFFINITY PREDICTED BY RF-SCORE:    0.00 PKD
ROOT
HETATM    1  C   UNL     1      -8.764  16.638  66.154  1.00  0.00    -0.322 C  
HETATM    2  C   UNL     1     -10.270  16.874  66.032  1.00  0.00    -0.336 C  
HETATM    3  C   UNL     1     -10.557  18.379  66.027  1.00  0.00    -0.339 C  
ENDROOT
BRANCH   2   4
HETATM    4  N   UNL     1     -10.849  16.299  64.811  1.00  0.00    -0.783 NA 
HETATM    5  H   UNL     1     -10.400  16.698  63.987  1.00  0.00     0.000 HD 
BRANCH   4   6
HETATM    6  C   UNL     1     -10.824  14.832  64.741  1.00  0.00    -0.376 C  
BRANCH   6   7
HETATM    7  C   UNL     1     -12.106  14.140  64.240  1.00  0.00    -0.444 C  
HETATM    8  O   UNL     1     -13.058  14.111  65.316  1.00  0.00    -0.763 OA 
HETATM    9  H   UNL     1     -13.849  13.685  65.007  1.00  0.00     0.000 HD 
BRANCH   7  10
HETATM   10  C   UNL     1     -11.839  12.708  63.766  1.00  0.00    -0.498 C  
BRANCH  10  11
HETATM   11  O   UNL     1     -10.450  12.413  63.996  1.00  0.00    -0.356 OA 
BRANCH  11  12
HETATM   12  C   UNL     1     -10.192  11.347  64.816  1.00  0.00    -0.286 A  
HETATM   13  C   UNL     1      -9.545  10.172  64.434  1.00  0.00    -0.366 A  
HETATM   14  C   UNL     1      -9.377   9.130  65.350  1.00  0.00    -0.258 A  
HETATM   15  C   UNL     1      -9.828   9.252  66.670  1.00  0.00    -0.311 A  
HETATM   16  C   UNL     1     -10.453  10.444  67.056  1.00  0.00    -0.309 A  
HETATM   17  C   UNL     1     -10.630  11.483  66.135  1.00  0.00    -0.314 A  
BRANCH  15  18
HETATM   18  C   UNL     1      -9.674   8.105  67.641  1.00  0.00    -0.200 C  
BRANCH  18  19
HETATM   19  C   UNL     1      -9.315   8.569  69.054  1.00  0.00    -0.146 C  
BRANCH  19  20
HETATM   20  O   UNL     1     -10.421   8.343  69.931  1.00  0.00    -0.214 OA 
BRANCH  20  21
HETATM   21  C   UNL     1     -10.604   9.458  70.804  1.00  0.00    -0.303 C  
BRANCH  21  22
HETATM   22  C   UNL     1     -12.041   9.866  70.781  1.00  0.00    -0.396 C  
HETATM   23  C   UNL     1     -12.914   9.567  71.975  1.00  0.00    -0.514 C  
HETATM   24  C   UNL     1     -12.544  10.988  71.654  1.00  0.00    -0.402 C  
ENDBRANCH  21  22
ENDBRANCH  20  21
ENDBRANCH  19  20
ENDBRANCH  18  19
ENDBRANCH  15  18
ENDBRANCH  11  12
ENDBRANCH  10  11
ENDBRANCH   7  10
ENDBRANCH   6   7
ENDBRANCH   4   6
ENDBRANCH   2   4
TORSDOF 11
ENDMDL
MODEL       69
REMARK 921   NORMALIZED FREE ENERGY PREDICTED BY IDOCK:   -4.62 KCAL/MOL
REMARK 922        TOTAL FREE ENERGY PREDICTED BY IDOCK:   -8.92 KCAL/MOL
REMARK 923 INTER-LIGAND FREE ENERGY PREDICTED BY IDOCK:   -8.11 KCAL/MOL
REMARK 924 INTRA-LIGAND FREE ENERGY PREDICTED BY IDOCK:   -0.81 KCAL/MOL
REMARK 927      BINDING AFFINITY PREDICTED BY RF-SCORE:    0.00 PKD
ROOT
HETATM    1  C   UNL     1     -11.993  14.000  67.513  1.00  0.00    -0.430 C  
HETATM    2  C   UNL     1     -11.722  14.773  68.805  1.00  0.00    -0.323 C  
HETATM    3  C   UNL     1     -11.407  16.235  68.474  1.00  0.00    -0.330 C  
ENDROOT
BRANCH   2   4
HETATM    4  N   UNL     1     -12.857  14.755  69.738  1.00  0.00    -0.572 NA 
HETATM    5  H   UNL     1     -13.481  13.978  69.519  1.00  0.00     0.000 HD 
BRANCH   4   6
HETATM    6  C   UNL     1     -12.492  14.724  71.161  1.00  0.00    -0.329 C  
BRANCH   6   7
HETATM    7  C   UNL     1     -13.577  14.243  72.144  1.00  0.00    -0.455 C  
HETATM    8  O   UNL     1     -13.416  14.952  73.383  1.00  0.00    -0.571 OA 
HETATM    9  H   UNL     1     -14.085  14.656  73.989  1.00  0.00     0.000 HD 
BRANCH   7  10
HETATM   10  C   UNL     1     -13.485  12.737  72.410  1.00  0.00    -0.409 C  
BRANCH  10  11
HETATM   11  O   UNL     1     -12.702  12.145  71.358  1.00  0.00    -0.358 OA 
BRANCH  11  12
HETATM   12  C   UNL     1     -12.577  10.781  71.401  1.00  0.00    -0.410 A  
HETATM   13  C   UNL     1     -13.487   9.905  71.993  1.00  0.00    -0.478 A  
HETATM   14  C   UNL     1     -13.230   8.532  72.014  1.00  0.00    -0.399 A  
HETATM   15  C   UNL     1     -12.075   8.005  71.423  1.00  0.00    -0.332 A  
HETATM   16  C   UNL     1     -11.178   8.887  70.807  1.00  0.00    -0.321 A  
HETATM   17  C   UNL     1     -11.431  10.263  70.795  1.00  0.00    -0.438 A  
BRANCH  15  18
HETATM   18  C   UNL     1     -11.790   6.523  71.484  1.00  0.00    -0.386 C  
BRANCH  18  19
HETATM   19  C   UNL     1     -10.899   6.139  72.665  1.00  0.00    -0.245 C  
BRANCH  19  20
HETATM   20  O   UNL     1     -11.481   5.040  73.371  1.00  0.00    -0.323 OA 
BRANCH  20  21
HETATM   21  C   UNL     1     -10.560   4.514  74.327  1.00  0.00    -0.262 C  
BRANCH  21  22
HETATM   22  C   UNL     1     -10.385   3.050  74.084  1.00  0.00    -0.221 C  
HETATM   23  C   UNL     1     -11.527   2.256  73.500  1.00  0.00    -0.291 C  
HETATM   24  C   UNL     1     -10.289   2.501  72.683  1.00  0.00    -0.228 C  
ENDBRANCH  21  22
ENDBRANCH  20  21
ENDBRANCH  19  20
ENDBRANCH  18  19
ENDBRANCH  15  18
ENDBRANCH  11  12
ENDBRANCH  10  11
ENDBRANCH   7  10
ENDBRANCH   6   7
ENDBRANCH   4   6
ENDBRANCH   2   4
TORSDOF 11
ENDMDL
MODEL       70
REMARK 921   NORMALIZED FREE ENERGY PREDICTED BY IDOCK:   -4.62 KCAL/MOL
REMARK 922        TOTAL FREE ENERGY PREDICTED BY IDOCK:   -8.92 KCAL/MOL
REMARK 923 INTER-LIGAND FREE ENERGY PREDICTED BY IDOCK:   -8.04 KCAL/MOL
REMARK 924 INTRA-LIGAND FREE ENERGY PREDICTED BY IDOCK:   -0.88 KCAL/MOL
REMARK 927      BINDING AFFINITY PREDICTED BY RF-SCORE:    0.00 PKD
ROOT
HETATM    1  C   UNL     1     -12.338   6.470  72.010  1.00  0.00    -0.308 C  
HETATM    2  C   UNL     1     -12.685   7.820  71.382  1.00  0.00    -0.308 C  
HETATM    3  C   UNL     1     -14.188   8.084  71.527  1.00  0.00    -0.513 C  
ENDROOT
BRANCH   2   4
HETATM    4  N   UNL     1     -11.967   8.946  71.994  1.00  0.00    -0.362 NA 
HETATM    5  H   UNL     1     -11.154   8.607  72.508  1.00  0.00     0.000 HD 
BRANCH   4   6
HETATM    6  C   UNL     1     -11.570  10.011  71.064  1.00  0.00    -0.393 C  
BRANCH   6   7
HETATM    7  C   UNL     1     -10.606   9.616  69.929  1.00  0.00    -0.249 C  
HETATM    8  O   UNL     1      -9.358  10.298  70.134  1.00  0.00    -0.384 OA 
HETATM    9  H   UNL     1      -8.763  10.054  69.434  1.00  0.00     0.000 HD 
BRANCH   7  10
HETATM   10  C   UNL     1     -11.161   9.984  68.550  1.00  0.00    -0.167 C  
BRANCH  10  11
HETATM   11  O   UNL     1     -12.174  10.989  68.729  1.00  0.00    -0.546 OA 
BRANCH  11  12
HETATM   12  C   UNL     1     -11.878  12.232  68.234  1.00  0.00    -0.310 A  
HETATM   13  C   UNL     1     -11.533  12.513  66.913  1.00  0.00    -0.416 A  
HETATM   14  C   UNL     1     -11.207  13.818  66.532  1.00  0.00    -0.319 A  
HETATM   15  C   UNL     1     -11.246  14.869  67.457  1.00  0.00    -0.334 A  
HETATM   16  C   UNL     1     -11.619  14.585  68.776  1.00  0.00    -0.343 A  
HETATM   17  C   UNL     1     -11.934  13.276  69.159  1.00  0.00    -0.343 A  
BRANCH  15  18
HETATM   18  C   UNL     1     -10.857  16.269  67.043  1.00  0.00    -0.173 C  
BRANCH  18  19
HETATM   19  C   UNL     1      -9.733  16.290  66.006  1.00  0.00    -0.339 C  
BRANCH  19  20
HETATM   20  O   UNL     1      -9.066  17.554  66.044  1.00  0.00    -0.489 OA 
BRANCH  20  21
HETATM   21  C   UNL     1      -8.734  17.905  67.388  1.00  0.00    -0.237 C  
BRANCH  21  22
HETATM   22  C   UNL     1      -8.952  19.370  67.579  1.00  0.00    -0.358 C  
HETATM   23  C   UNL     1      -9.961  20.087  66.716  1.00  0.00    -0.585 C  
HETATM   24  C   UNL     1     -10.231  19.894  68.182  1.00  0.00    -0.564 C  
ENDBRANCH  21  22
ENDBRANCH  20  21
ENDBRANCH  19  20
ENDBRANCH  18  19
ENDBRANCH  15  18
ENDBRANCH  11  12
ENDBRANCH  10  11
ENDBRANCH   7  10
ENDBRANCH   6   7
ENDBRANCH   4   6
ENDBRANCH   2   4
TORSDOF 11
ENDMDL
MODEL       71
REMARK 921   NORMALIZED FREE ENERGY PREDICTED BY IDOCK:   -4.61 KCAL/MOL
REMARK 922        TOTAL FREE ENERGY PREDICTED BY IDOCK:   -8.91 KCAL/MOL
REMARK 923 INTER-LIGAND FREE ENERGY PREDICTED BY IDOCK:   -8.12 KCAL/MOL
REMARK 924 INTRA-LIGAND FREE ENERGY PREDICTED BY IDOCK:   -0.78 KCAL/MOL
REMARK 927      BINDING AFFINITY PREDICTED BY RF-SCORE:    0.00 PKD
ROOT
HETATM    1  C   UNL     1     -10.277   4.072  73.804  1.00  0.00    -0.208 C  
HETATM    2  C   UNL     1     -10.481   5.159  72.749  1.00  0.00    -0.214 C  
HETATM    3  C   UNL     1     -10.159   4.596  71.360  1.00  0.00    -0.248 C  
ENDROOT
BRANCH   2   4
HETATM    4  N   UNL     1     -11.852   5.685  72.717  1.00  0.00    -0.513 NA 
HETATM    5  H   UNL     1     -12.098   6.080  73.625  1.00  0.00     0.000 HD 
BRANCH   4   6
HETATM    6  C   UNL     1     -12.120   6.660  71.651  1.00  0.00    -0.355 C  
BRANCH   6   7
HETATM    7  C   UNL     1     -13.035   7.847  72.012  1.00  0.00    -0.246 C  
HETATM    8  O   UNL     1     -14.194   7.803  71.164  1.00  0.00    -0.639 OA 
HETATM    9  H   UNL     1     -14.757   8.535  71.386  1.00  0.00     0.000 HD 
BRANCH   7  10
HETATM   10  C   UNL     1     -12.327   9.193  71.830  1.00  0.00    -0.385 C  
BRANCH  10  11
HETATM   11  O   UNL     1     -13.253  10.236  72.180  1.00  0.00    -0.452 OA 
BRANCH  11  12
HETATM   12  C   UNL     1     -13.007  11.465  71.627  1.00  0.00    -0.418 A  
HETATM   13  C   UNL     1     -12.264  11.694  70.469  1.00  0.00    -0.451 A  
HETATM   14  C   UNL     1     -12.042  13.000  70.022  1.00  0.00    -0.367 A  
HETATM   15  C   UNL     1     -12.580  14.097  70.706  1.00  0.00    -0.432 A  
HETATM   16  C   UNL     1     -13.348  13.859  71.852  1.00  0.00    -0.496 A  
HETATM   17  C   UNL     1     -13.561  12.552  72.306  1.00  0.00    -0.443 A  
BRANCH  15  18
HETATM   18  C   UNL     1     -12.304  15.505  70.234  1.00  0.00    -0.431 C  
BRANCH  18  19
HETATM   19  C   UNL     1     -10.838  15.909  70.399  1.00  0.00    -0.313 C  
BRANCH  19  20
HETATM   20  O   UNL     1     -10.337  16.423  69.163  1.00  0.00    -0.251 OA 
BRANCH  20  21
HETATM   21  C   UNL     1     -11.237  16.124  68.095  1.00  0.00    -0.311 C  
BRANCH  21  22
HETATM   22  C   UNL     1     -10.517  15.328  67.056  1.00  0.00    -0.292 C  
HETATM   23  C   UNL     1     -11.215  14.159  66.405  1.00  0.00    -0.328 C  
HETATM   24  C   UNL     1     -10.923  15.397  65.604  1.00  0.00    -0.330 C  
ENDBRANCH  21  22
ENDBRANCH  20  21
ENDBRANCH  19  20
ENDBRANCH  18  19
ENDBRANCH  15  18
ENDBRANCH  11  12
ENDBRANCH  10  11
ENDBRANCH   7  10
ENDBRANCH   6   7
ENDBRANCH   4   6
ENDBRANCH   2   4
TORSDOF 11
ENDMDL
MODEL       72
REMARK 921   NORMALIZED FREE ENERGY PREDICTED BY IDOCK:   -4.61 KCAL/MOL
REMARK 922        TOTAL FREE ENERGY PREDICTED BY IDOCK:   -8.90 KCAL/MOL
REMARK 923 INTER-LIGAND FREE ENERGY PREDICTED BY IDOCK:   -7.64 KCAL/MOL
REMARK 924 INTRA-LIGAND FREE ENERGY PREDICTED BY IDOCK:   -1.26 KCAL/MOL
REMARK 927      BINDING AFFINITY PREDICTED BY RF-SCORE:    0.00 PKD
ROOT
HETATM    1  C   UNL     1     -10.838   9.509  71.141  1.00  0.00    -0.425 C  
HETATM    2  C   UNL     1     -12.099  10.289  70.768  1.00  0.00    -0.353 C  
HETATM    3  C   UNL     1     -13.115  10.203  71.912  1.00  0.00    -0.571 C  
ENDROOT
BRANCH   2   4
HETATM    4  N   UNL     1     -11.843  11.709  70.496  1.00  0.00    -0.488 NA 
HETATM    5  H   UNL     1     -11.364  12.138  71.288  1.00  0.00     0.000 HD 
BRANCH   4   6
HETATM    6  C   UNL     1     -11.111  11.983  69.252  1.00  0.00    -0.185 C  
BRANCH   6   7
HETATM    7  C   UNL     1     -11.903  11.845  67.938  1.00  0.00    -0.238 C  
HETATM    8  O   UNL     1     -11.274  10.837  67.130  1.00  0.00    -0.314 OA 
HETATM    9  H   UNL     1     -11.762  10.752  66.320  1.00  0.00     0.000 HD 
BRANCH   7  10
HETATM   10  C   UNL     1     -11.949  13.161  67.155  1.00  0.00    -0.341 C  
BRANCH  10  11
HETATM   11  O   UNL     1     -10.888  13.142  66.184  1.00  0.00    -0.277 OA 
BRANCH  11  12
HETATM   12  C   UNL     1      -9.911  14.088  66.347  1.00  0.00    -0.294 A  
HETATM   13  C   UNL     1      -8.733  13.915  67.072  1.00  0.00    -0.215 A  
HETATM   14  C   UNL     1      -7.826  14.971  67.205  1.00  0.00    -0.241 A  
HETATM   15  C   UNL     1      -8.067  16.208  66.596  1.00  0.00    -0.323 A  
HETATM   16  C   UNL     1      -9.239  16.368  65.847  1.00  0.00    -0.234 A  
HETATM   17  C   UNL     1     -10.151  15.314  65.723  1.00  0.00    -0.384 A  
BRANCH  15  18
HETATM   18  C   UNL     1      -7.098  17.353  66.778  1.00  0.00    -0.245 C  
BRANCH  18  19
HETATM   19  C   UNL     1      -7.144  17.952  68.184  1.00  0.00    -0.224 C  
BRANCH  19  20
HETATM   20  O   UNL     1      -7.699  19.268  68.129  1.00  0.00    -0.276 OA 
BRANCH  20  21
HETATM   21  C   UNL     1      -8.979  19.299  68.763  1.00  0.00    -0.355 C  
BRANCH  21  22
HETATM   22  C   UNL     1      -9.932  20.066  67.906  1.00  0.00    -0.558 C  
HETATM   23  C   UNL     1      -9.728  20.089  66.411  1.00  0.00    -0.557 C  
HETATM   24  C   UNL     1     -10.903  19.356  66.996  1.00  0.00    -0.540 C  
ENDBRANCH  21  22
ENDBRANCH  20  21
ENDBRANCH  19  20
ENDBRANCH  18  19
ENDBRANCH  15  18
ENDBRANCH  11  12
ENDBRANCH  10  11
ENDBRANCH   7  10
ENDBRANCH   6   7
ENDBRANCH   4   6
ENDBRANCH   2   4
TORSDOF 11
ENDMDL
MODEL       73
REMARK 921   NORMALIZED FREE ENERGY PREDICTED BY IDOCK:   -4.60 KCAL/MOL
REMARK 922        TOTAL FREE ENERGY PREDICTED BY IDOCK:   -8.89 KCAL/MOL
REMARK 923 INTER-LIGAND FREE ENERGY PREDICTED BY IDOCK:   -7.93 KCAL/MOL
REMARK 924 INTRA-LIGAND FREE ENERGY PREDICTED BY IDOCK:   -0.97 KCAL/MOL
REMARK 927      BINDING AFFINITY PREDICTED BY RF-SCORE:    0.00 PKD
ROOT
HETATM    1  C   UNL     1     -10.169   5.495  71.200  1.00  0.00    -0.285 C  
HETATM    2  C   UNL     1     -11.344   6.473  71.142  1.00  0.00    -0.314 C  
HETATM    3  C   UNL     1     -10.905   7.838  71.684  1.00  0.00    -0.265 C  
ENDROOT
BRANCH   2   4
HETATM    4  N   UNL     1     -11.864   6.672  69.782  1.00  0.00    -0.654 NA 
HETATM    5  H   UNL     1     -12.055   7.661  69.620  1.00  0.00     0.000 HD 
BRANCH   4   6
HETATM    6  C   UNL     1     -11.018   6.137  68.708  1.00  0.00    -0.348 C  
BRANCH   6   7
HETATM    7  C   UNL     1     -11.209   6.749  67.306  1.00  0.00    -0.209 C  
HETATM    8  O   UNL     1     -10.919   5.740  66.325  1.00  0.00    -0.681 OA 
HETATM    9  H   UNL     1     -11.036   6.117  65.461  1.00  0.00     0.000 HD 
BRANCH   7  10
HETATM   10  C   UNL     1     -10.292   7.954  67.076  1.00  0.00    -0.341 C  
BRANCH  10  11
HETATM   11  O   UNL     1     -10.416   8.832  68.209  1.00  0.00    -0.215 OA 
BRANCH  11  12
HETATM   12  C   UNL     1     -10.789  10.120  67.929  1.00  0.00    -0.284 A  
HETATM   13  C   UNL     1     -10.897  10.670  66.652  1.00  0.00    -0.197 A  
HETATM   14  C   UNL     1     -11.246  12.014  66.490  1.00  0.00    -0.387 A  
HETATM   15  C   UNL     1     -11.519  12.825  67.598  1.00  0.00    -0.387 A  
HETATM   16  C   UNL     1     -11.435  12.261  68.877  1.00  0.00    -0.355 A  
HETATM   17  C   UNL     1     -11.075  10.918  69.038  1.00  0.00    -0.302 A  
BRANCH  15  18
HETATM   18  C   UNL     1     -11.859  14.285  67.414  1.00  0.00    -0.441 C  
BRANCH  18  19
HETATM   19  C   UNL     1     -11.538  15.130  68.647  1.00  0.00    -0.338 C  
BRANCH  19  20
HETATM   20  O   UNL     1     -11.523  16.515  68.293  1.00  0.00    -0.283 OA 
BRANCH  20  21
HETATM   21  C   UNL     1     -10.441  17.186  68.939  1.00  0.00    -0.346 C  
BRANCH  21  22
HETATM   22  C   UNL     1      -9.905  18.242  68.028  1.00  0.00    -0.343 C  
HETATM   23  C   UNL     1     -10.183  18.152  66.547  1.00  0.00    -0.398 C  
HETATM   24  C   UNL     1     -10.825  19.237  67.366  1.00  0.00    -0.554 C  
ENDBRANCH  21  22
ENDBRANCH  20  21
ENDBRANCH  19  20
ENDBRANCH  18  19
ENDBRANCH  15  18
ENDBRANCH  11  12
ENDBRANCH  10  11
ENDBRANCH   7  10
ENDBRANCH   6   7
ENDBRANCH   4   6
ENDBRANCH   2   4
TORSDOF 11
ENDMDL
MODEL       74
REMARK 921   NORMALIZED FREE ENERGY PREDICTED BY IDOCK:   -4.58 KCAL/MOL
REMARK 922        TOTAL FREE ENERGY PREDICTED BY IDOCK:   -8.86 KCAL/MOL
REMARK 923 INTER-LIGAND FREE ENERGY PREDICTED BY IDOCK:   -7.61 KCAL/MOL
REMARK 924 INTRA-LIGAND FREE ENERGY PREDICTED BY IDOCK:   -1.25 KCAL/MOL
REMARK 927      BINDING AFFINITY PREDICTED BY RF-SCORE:    0.00 PKD
ROOT
HETATM    1  C   UNL     1      -8.585   9.840  67.163  1.00  0.00    -0.129 C  
HETATM    2  C   UNL     1      -8.032  11.077  66.455  1.00  0.00    -0.158 C  
HETATM    3  C   UNL     1      -6.506  10.976  66.361  1.00  0.00    -0.127 C  
ENDROOT
BRANCH   2   4
HETATM    4  N   UNL     1      -8.559  11.250  65.095  1.00  0.00    -0.386 NA 
HETATM    5  H   UNL     1      -7.998  10.717  64.430  1.00  0.00     0.000 HD 
BRANCH   4   6
HETATM    6  C   UNL     1      -9.982  10.924  64.933  1.00  0.00    -0.303 C  
BRANCH   6   7
HETATM    7  C   UNL     1     -10.900  12.060  64.441  1.00  0.00    -0.329 C  
HETATM    8  O   UNL     1     -10.079  13.114  63.912  1.00  0.00    -0.733 OA 
HETATM    9  H   UNL     1     -10.645  13.814  63.609  1.00  0.00     0.000 HD 
BRANCH   7  10
HETATM   10  C   UNL     1     -11.775  12.620  65.567  1.00  0.00    -0.402 C  
BRANCH  10  11
HETATM   11  O   UNL     1     -10.930  12.880  66.702  1.00  0.00    -0.267 OA 
BRANCH  11  12
HETATM   12  C   UNL     1     -11.380  12.405  67.905  1.00  0.00    -0.289 A  
HETATM   13  C   UNL     1     -11.630  11.065  68.200  1.00  0.00    -0.345 A  
HETATM   14  C   UNL     1     -12.132  10.701  69.453  1.00  0.00    -0.250 A  
HETATM   15  C   UNL     1     -12.367  11.665  70.442  1.00  0.00    -0.373 A  
HETATM   16  C   UNL     1     -12.090  13.006  70.148  1.00  0.00    -0.377 A  
HETATM   17  C   UNL     1     -11.597  13.370  68.890  1.00  0.00    -0.356 A  
BRANCH  15  18
HETATM   18  C   UNL     1     -12.944  11.265  71.779  1.00  0.00    -0.519 C  
BRANCH  18  19
HETATM   19  C   UNL     1     -12.794   9.771  72.067  1.00  0.00    -0.401 C  
BRANCH  19  20
HETATM   20  O   UNL     1     -14.035   9.105  71.818  1.00  0.00    -0.369 OA 
BRANCH  20  21
HETATM   21  C   UNL     1     -13.817   7.717  71.562  1.00  0.00    -0.358 C  
BRANCH  21  22
HETATM   22  C   UNL     1     -12.347   7.455  71.512  1.00  0.00    -0.385 C  
HETATM   23  C   UNL     1     -11.825   6.093  71.901  1.00  0.00    -0.316 C  
HETATM   24  C   UNL     1     -11.755   6.541  70.468  1.00  0.00    -0.438 C  
ENDBRANCH  21  22
ENDBRANCH  20  21
ENDBRANCH  19  20
ENDBRANCH  18  19
ENDBRANCH  15  18
ENDBRANCH  11  12
ENDBRANCH  10  11
ENDBRANCH   7  10
ENDBRANCH   6   7
ENDBRANCH   4   6
ENDBRANCH   2   4
TORSDOF 11
ENDMDL
MODEL       75
REMARK 921   NORMALIZED FREE ENERGY PREDICTED BY IDOCK:   -4.58 KCAL/MOL
REMARK 922        TOTAL FREE ENERGY PREDICTED BY IDOCK:   -8.86 KCAL/MOL
REMARK 923 INTER-LIGAND FREE ENERGY PREDICTED BY IDOCK:   -7.84 KCAL/MOL
REMARK 924 INTRA-LIGAND FREE ENERGY PREDICTED BY IDOCK:   -1.02 KCAL/MOL
REMARK 927      BINDING AFFINITY PREDICTED BY RF-SCORE:    0.00 PKD
ROOT
HETATM    1  C   UNL     1     -11.042   6.540  67.822  1.00  0.00    -0.366 C  
HETATM    2  C   UNL     1     -10.322   5.806  68.954  1.00  0.00    -0.227 C  
HETATM    3  C   UNL     1      -8.924   6.404  69.148  1.00  0.00    -0.129 C  
ENDROOT
BRANCH   2   4
HETATM    4  N   UNL     1     -11.030   5.885  70.238  1.00  0.00    -0.326 NA 
HETATM    5  H   UNL     1     -11.889   5.337  70.201  1.00  0.00     0.000 HD 
BRANCH   4   6
HETATM    6  C   UNL     1     -10.235   5.502  71.412  1.00  0.00    -0.215 C  
BRANCH   6   7
HETATM    7  C   UNL     1     -10.812   5.876  72.792  1.00  0.00    -0.252 C  
HETATM    8  O   UNL     1     -12.227   5.627  72.777  1.00  0.00    -0.531 OA 
HETATM    9  H   UNL     1     -12.582   5.858  73.627  1.00  0.00     0.000 HD 
BRANCH   7  10
HETATM   10  C   UNL     1     -10.563   7.348  73.138  1.00  0.00    -0.374 C  
BRANCH  10  11
HETATM   11  O   UNL     1     -11.770   8.082  72.865  1.00  0.00    -0.369 OA 
BRANCH  11  12
HETATM   12  C   UNL     1     -11.679   9.042  71.893  1.00  0.00    -0.374 A  
HETATM   13  C   UNL     1     -10.666   9.132  70.939  1.00  0.00    -0.343 A  
HETATM   14  C   UNL     1     -10.654  10.186  70.021  1.00  0.00    -0.338 A  
HETATM   15  C   UNL     1     -11.667  11.153  70.021  1.00  0.00    -0.438 A  
HETATM   16  C   UNL     1     -12.696  11.043  70.964  1.00  0.00    -0.485 A  
HETATM   17  C   UNL     1     -12.701   9.993  71.890  1.00  0.00    -0.493 A  
BRANCH  15  18
HETATM   18  C   UNL     1     -11.624  12.307  69.048  1.00  0.00    -0.368 C  
BRANCH  18  19
HETATM   19  C   UNL     1     -10.285  12.420  68.319  1.00  0.00    -0.229 C  
BRANCH  19  20
HETATM   20  O   UNL     1     -10.511  12.548  66.913  1.00  0.00    -0.227 OA 
BRANCH  20  21
HETATM   21  C   UNL     1     -11.869  12.903  66.654  1.00  0.00    -0.395 C  
BRANCH  21  22
HETATM   22  C   UNL     1     -12.092  12.945  65.178  1.00  0.00    -0.489 C  
HETATM   23  C   UNL     1     -11.843  14.231  64.428  1.00  0.00    -0.444 C  
HETATM   24  C   UNL     1     -10.932  13.053  64.219  1.00  0.00    -0.427 C  
ENDBRANCH  21  22
ENDBRANCH  20  21
ENDBRANCH  19  20
ENDBRANCH  18  19
ENDBRANCH  15  18
ENDBRANCH  11  12
ENDBRANCH  10  11
ENDBRANCH   7  10
ENDBRANCH   6   7
ENDBRANCH   4   6
ENDBRANCH   2   4
TORSDOF 11
ENDMDL
MODEL       76
REMARK 921   NORMALIZED FREE ENERGY PREDICTED BY IDOCK:   -4.57 KCAL/MOL
REMARK 922        TOTAL FREE ENERGY PREDICTED BY IDOCK:   -8.84 KCAL/MOL
REMARK 923 INTER-LIGAND FREE ENERGY PREDICTED BY IDOCK:   -7.96 KCAL/MOL
REMARK 924 INTRA-LIGAND FREE ENERGY PREDICTED BY IDOCK:   -0.89 KCAL/MOL
REMARK 927      BINDING AFFINITY PREDICTED BY RF-SCORE:    0.00 PKD
ROOT
HETATM    1  C   UNL     1     -10.081   6.928  71.335  1.00  0.00    -0.197 C  
HETATM    2  C   UNL     1     -11.418   6.366  70.852  1.00  0.00    -0.344 C  
HETATM    3  C   UNL     1     -12.552   6.905  71.732  1.00  0.00    -0.386 C  
ENDROOT
BRANCH   2   4
HETATM    4  N   UNL     1     -11.723   6.716  69.458  1.00  0.00    -0.657 NA 
HETATM    5  H   UNL     1     -11.831   7.726  69.364  1.00  0.00     0.000 HD 
BRANCH   4   6
HETATM    6  C   UNL     1     -10.763   6.215  68.466  1.00  0.00    -0.300 C  
BRANCH   6   7
HETATM    7  C   UNL     1     -10.926   6.730  67.022  1.00  0.00    -0.368 C  
HETATM    8  O   UNL     1     -10.367   5.756  66.126  1.00  0.00    -0.412 OA 
HETATM    9  H   UNL     1     -10.467   6.073  65.236  1.00  0.00     0.000 HD 
BRANCH   7  10
HETATM   10  C   UNL     1     -10.221   8.073  66.809  1.00  0.00    -0.297 C  
BRANCH  10  11
HETATM   11  O   UNL     1     -10.580   8.944  67.897  1.00  0.00    -0.230 OA 
BRANCH  11  12
HETATM   12  C   UNL     1     -10.889  10.233  67.553  1.00  0.00    -0.298 A  
HETATM   13  C   UNL     1     -11.456  11.182  68.405  1.00  0.00    -0.377 A  
HETATM   14  C   UNL     1     -11.769  12.458  67.929  1.00  0.00    -0.421 A  
HETATM   15  C   UNL     1     -11.498  12.819  66.603  1.00  0.00    -0.404 A  
HETATM   16  C   UNL     1     -10.905  11.871  65.760  1.00  0.00    -0.341 A  
HETATM   17  C   UNL     1     -10.601  10.590  66.235  1.00  0.00    -0.203 A  
BRANCH  15  18
HETATM   18  C   UNL     1     -11.874  14.189  66.090  1.00  0.00    -0.420 C  
BRANCH  18  19
HETATM   19  C   UNL     1     -11.240  14.509  64.736  1.00  0.00    -0.390 C  
BRANCH  19  20
HETATM   20  O   UNL     1     -10.840  15.882  64.703  1.00  0.00    -0.557 OA 
BRANCH  20  21
HETATM   21  C   UNL     1     -10.101  16.216  65.878  1.00  0.00    -0.354 C  
BRANCH  21  22
HETATM   22  C   UNL     1     -10.266  17.673  66.163  1.00  0.00    -0.345 C  
HETATM   23  C   UNL     1     -10.055  18.181  67.568  1.00  0.00    -0.358 C  
HETATM   24  C   UNL     1      -9.076  18.542  66.486  1.00  0.00    -0.299 C  
ENDBRANCH  21  22
ENDBRANCH  20  21
ENDBRANCH  19  20
ENDBRANCH  18  19
ENDBRANCH  15  18
ENDBRANCH  11  12
ENDBRANCH  10  11
ENDBRANCH   7  10
ENDBRANCH   6   7
ENDBRANCH   4   6
ENDBRANCH   2   4
TORSDOF 11
ENDMDL
MODEL       77
REMARK 921   NORMALIZED FREE ENERGY PREDICTED BY IDOCK:   -4.53 KCAL/MOL
REMARK 922        TOTAL FREE ENERGY PREDICTED BY IDOCK:   -8.78 KCAL/MOL
REMARK 923 INTER-LIGAND FREE ENERGY PREDICTED BY IDOCK:   -7.86 KCAL/MOL
REMARK 924 INTRA-LIGAND FREE ENERGY PREDICTED BY IDOCK:   -0.92 KCAL/MOL
REMARK 927      BINDING AFFINITY PREDICTED BY RF-SCORE:    0.00 PKD
ROOT
HETATM    1  C   UNL     1     -10.607  15.817  66.695  1.00  0.00    -0.307 C  
HETATM    2  C   UNL     1     -11.406  14.579  67.104  1.00  0.00    -0.350 C  
HETATM    3  C   UNL     1     -10.447  13.474  67.558  1.00  0.00    -0.237 C  
ENDROOT
BRANCH   2   4
HETATM    4  N   UNL     1     -12.351  14.836  68.200  1.00  0.00    -0.572 NA 
HETATM    5  H   UNL     1     -12.840  13.977  68.452  1.00  0.00     0.000 HD 
BRANCH   4   6
HETATM    6  C   UNL     1     -11.764  15.454  69.396  1.00  0.00    -0.351 C  
BRANCH   6   7
HETATM    7  C   UNL     1     -12.580  15.352  70.700  1.00  0.00    -0.439 C  
HETATM    8  O   UNL     1     -12.055  16.303  71.641  1.00  0.00    -0.602 OA 
HETATM    9  H   UNL     1     -12.558  16.241  72.444  1.00  0.00     0.000 HD 
BRANCH   7  10
HETATM   10  C   UNL     1     -12.513  13.949  71.311  1.00  0.00    -0.359 C  
BRANCH  10  11
HETATM   11  O   UNL     1     -12.411  12.997  70.237  1.00  0.00    -0.310 OA 
BRANCH  11  12
HETATM   12  C   UNL     1     -12.270  11.687  70.610  1.00  0.00    -0.366 A  
HETATM   13  C   UNL     1     -11.331  10.796  70.091  1.00  0.00    -0.390 A  
HETATM   14  C   UNL     1     -11.310   9.466  70.519  1.00  0.00    -0.328 A  
HETATM   15  C   UNL     1     -12.208   9.008  71.491  1.00  0.00    -0.403 A  
HETATM   16  C   UNL     1     -13.131   9.913  72.028  1.00  0.00    -0.545 A  
HETATM   17  C   UNL     1     -13.158  11.243  71.591  1.00  0.00    -0.513 A  
BRANCH  15  18
HETATM   18  C   UNL     1     -12.200   7.559  71.919  1.00  0.00    -0.339 C  
BRANCH  18  19
HETATM   19  C   UNL     1     -11.959   6.598  70.754  1.00  0.00    -0.353 C  
BRANCH  19  20
HETATM   20  O   UNL     1     -10.642   6.048  70.848  1.00  0.00    -0.226 OA 
BRANCH  20  21
HETATM   21  C   UNL     1     -10.336   5.708  72.201  1.00  0.00    -0.209 C  
BRANCH  21  22
HETATM   22  C   UNL     1     -10.352   4.221  72.347  1.00  0.00    -0.230 C  
HETATM   23  C   UNL     1      -9.653   3.587  73.525  1.00  0.00    -0.137 C  
HETATM   24  C   UNL     1     -11.153   3.556  73.438  1.00  0.00    -0.291 C  
ENDBRANCH  21  22
ENDBRANCH  20  21
ENDBRANCH  19  20
ENDBRANCH  18  19
ENDBRANCH  15  18
ENDBRANCH  11  12
ENDBRANCH  10  11
ENDBRANCH   7  10
ENDBRANCH   6   7
ENDBRANCH   4   6
ENDBRANCH   2   4
TORSDOF 11
ENDMDL
MODEL       78
REMARK 921   NORMALIZED FREE ENERGY PREDICTED BY IDOCK:   -4.53 KCAL/MOL
REMARK 922        TOTAL FREE ENERGY PREDICTED BY IDOCK:   -8.77 KCAL/MOL
REMARK 923 INTER-LIGAND FREE ENERGY PREDICTED BY IDOCK:   -7.07 KCAL/MOL
REMARK 924 INTRA-LIGAND FREE ENERGY PREDICTED BY IDOCK:   -1.70 KCAL/MOL
REMARK 927      BINDING AFFINITY PREDICTED BY RF-SCORE:    0.00 PKD
ROOT
HETATM    1  C   UNL     1     -14.159   8.647  72.082  1.00  0.00    -0.511 C  
HETATM    2  C   UNL     1     -13.090   9.559  71.478  1.00  0.00    -0.389 C  
HETATM    3  C   UNL     1     -13.326  11.002  71.934  1.00  0.00    -0.423 C  
ENDROOT
BRANCH   2   4
HETATM    4  N   UNL     1     -11.723   9.181  71.862  1.00  0.00    -0.371 NA 
HETATM    5  H   UNL     1     -11.677   8.996  72.864  1.00  0.00     0.000 HD 
BRANCH   4   6
HETATM    6  C   UNL     1     -11.155   8.053  71.113  1.00  0.00    -0.252 C  
BRANCH   6   7
HETATM    7  C   UNL     1      -9.691   8.194  70.652  1.00  0.00    -0.170 C  
HETATM    8  O   UNL     1      -9.083   9.266  71.389  1.00  0.00    -0.299 OA 
HETATM    9  H   UNL     1      -8.180   9.354  71.105  1.00  0.00     0.000 HD 
BRANCH   7  10
HETATM   10  C   UNL     1      -9.588   8.491  69.153  1.00  0.00    -0.167 C  
BRANCH  10  11
HETATM   11  O   UNL     1     -10.768   9.213  68.757  1.00  0.00    -0.207 OA 
BRANCH  11  12
HETATM   12  C   UNL     1     -10.582  10.531  68.434  1.00  0.00    -0.199 A  
HETATM   13  C   UNL     1      -9.373  11.102  68.038  1.00  0.00    -0.166 A  
HETATM   14  C   UNL     1      -9.295  12.473  67.775  1.00  0.00    -0.198 A  
HETATM   15  C   UNL     1     -10.426  13.291  67.875  1.00  0.00    -0.244 A  
HETATM   16  C   UNL     1     -11.643  12.707  68.247  1.00  0.00    -0.377 A  
HETATM   17  C   UNL     1     -11.719  11.337  68.521  1.00  0.00    -0.378 A  
BRANCH  15  18
HETATM   18  C   UNL     1     -10.322  14.777  67.624  1.00  0.00    -0.237 C  
BRANCH  18  19
HETATM   19  C   UNL     1      -9.417  15.116  66.438  1.00  0.00    -0.296 C  
BRANCH  19  20
HETATM   20  O   UNL     1      -9.984  14.593  65.234  1.00  0.00    -0.366 OA 
BRANCH  20  21
HETATM   21  C   UNL     1     -11.228  15.232  64.948  1.00  0.00    -0.415 C  
BRANCH  21  22
HETATM   22  C   UNL     1     -12.121  14.268  64.236  1.00  0.00    -0.467 C  
HETATM   23  C   UNL     1     -11.632  12.865  63.969  1.00  0.00    -0.486 C  
HETATM   24  C   UNL     1     -12.737  13.098  64.962  1.00  0.00    -0.456 C  
ENDBRANCH  21  22
ENDBRANCH  20  21
ENDBRANCH  19  20
ENDBRANCH  18  19
ENDBRANCH  15  18
ENDBRANCH  11  12
ENDBRANCH  10  11
ENDBRANCH   7  10
ENDBRANCH   6   7
ENDBRANCH   4   6
ENDBRANCH   2   4
TORSDOF 11
ENDMDL
MODEL       79
REMARK 921   NORMALIZED FREE ENERGY PREDICTED BY IDOCK:   -4.50 KCAL/MOL
REMARK 922        TOTAL FREE ENERGY PREDICTED BY IDOCK:   -8.72 KCAL/MOL
REMARK 923 INTER-LIGAND FREE ENERGY PREDICTED BY IDOCK:   -7.58 KCAL/MOL
REMARK 924 INTRA-LIGAND FREE ENERGY PREDICTED BY IDOCK:   -1.14 KCAL/MOL
REMARK 927      BINDING AFFINITY PREDICTED BY RF-SCORE:    0.00 PKD
ROOT
HETATM    1  C   UNL     1     -11.767   8.386  72.341  1.00  0.00    -0.452 C  
HETATM    2  C   UNL     1     -11.138   7.944  71.018  1.00  0.00    -0.250 C  
HETATM    3  C   UNL     1     -11.686   6.569  70.621  1.00  0.00    -0.436 C  
ENDROOT
BRANCH   2   4
HETATM    4  N   UNL     1     -11.403   8.874  69.912  1.00  0.00    -0.443 NA 
HETATM    5  H   UNL     1     -12.275   8.624  69.444  1.00  0.00     0.000 HD 
BRANCH   4   6
HETATM    6  C   UNL     1     -11.417  10.295  70.283  1.00  0.00    -0.317 C  
BRANCH   6   7
HETATM    7  C   UNL     1     -12.138  11.256  69.318  1.00  0.00    -0.303 C  
HETATM    8  O   UNL     1     -12.026  10.731  67.985  1.00  0.00    -0.780 OA 
HETATM    9  H   UNL     1     -12.471  11.324  67.390  1.00  0.00     0.000 HD 
BRANCH   7  10
HETATM   10  C   UNL     1     -11.539  12.665  69.357  1.00  0.00    -0.306 C  
BRANCH  10  11
HETATM   11  O   UNL     1     -10.612  12.787  68.264  1.00  0.00    -0.224 OA 
BRANCH  11  12
HETATM   12  C   UNL     1     -10.565  14.013  67.654  1.00  0.00    -0.249 A  
HETATM   13  C   UNL     1     -10.263  14.235  66.310  1.00  0.00    -0.307 A  
HETATM   14  C   UNL     1     -10.202  15.538  65.808  1.00  0.00    -0.390 A  
HETATM   15  C   UNL     1     -10.465  16.640  66.630  1.00  0.00    -0.258 A  
HETATM   16  C   UNL     1     -10.793  16.410  67.972  1.00  0.00    -0.342 A  
HETATM   17  C   UNL     1     -10.844  15.105  68.477  1.00  0.00    -0.247 A  
BRANCH  15  18
HETATM   18  C   UNL     1     -10.360  18.045  66.086  1.00  0.00    -0.368 C  
BRANCH  18  19
HETATM   19  C   UNL     1     -10.728  19.110  67.119  1.00  0.00    -0.471 C  
BRANCH  19  20
HETATM   20  O   UNL     1      -9.593  19.939  67.382  1.00  0.00    -0.332 OA 
BRANCH  20  21
HETATM   21  C   UNL     1      -8.988  19.580  68.625  1.00  0.00    -0.336 C  
BRANCH  21  22
HETATM   22  C   UNL     1      -7.534  19.315  68.403  1.00  0.00    -0.346 C  
HETATM   23  C   UNL     1      -7.100  17.972  67.868  1.00  0.00    -0.216 C  
HETATM   24  C   UNL     1      -6.969  19.199  67.009  1.00  0.00    -0.208 C  
ENDBRANCH  21  22
ENDBRANCH  20  21
ENDBRANCH  19  20
ENDBRANCH  18  19
ENDBRANCH  15  18
ENDBRANCH  11  12
ENDBRANCH  10  11
ENDBRANCH   7  10
ENDBRANCH   6   7
ENDBRANCH   4   6
ENDBRANCH   2   4
TORSDOF 11
ENDMDL
MODEL       80
REMARK 921   NORMALIZED FREE ENERGY PREDICTED BY IDOCK:   -4.49 KCAL/MOL
REMARK 922        TOTAL FREE ENERGY PREDICTED BY IDOCK:   -8.71 KCAL/MOL
REMARK 923 INTER-LIGAND FREE ENERGY PREDICTED BY IDOCK:   -7.42 KCAL/MOL
REMARK 924 INTRA-LIGAND FREE ENERGY PREDICTED BY IDOCK:   -1.29 KCAL/MOL
REMARK 927      BINDING AFFINITY PREDICTED BY RF-SCORE:    0.00 PKD
ROOT
HETATM    1  C   UNL     1      -9.242   4.104  68.284  1.00  0.00    -0.195 C  
HETATM    2  C   UNL     1      -9.344   5.434  67.538  1.00  0.00    -0.114 C  
HETATM    3  C   UNL     1     -10.520   5.385  66.556  1.00  0.00    -0.352 C  
ENDROOT
BRANCH   2   4
HETATM    4  N   UNL     1      -9.548   6.584  68.429  1.00  0.00    -0.123 NA 
HETATM    5  H   UNL     1     -10.328   7.152  68.099  1.00  0.00     0.000 HD 
BRANCH   4   6
HETATM    6  C   UNL     1      -9.731   6.248  69.847  1.00  0.00    -0.166 C  
BRANCH   6   7
HETATM    7  C   UNL     1     -10.841   7.006  70.601  1.00  0.00    -0.246 C  
HETATM    8  O   UNL     1     -12.110   6.636  70.036  1.00  0.00    -0.633 OA 
HETATM    9  H   UNL     1     -12.794   7.104  70.501  1.00  0.00     0.000 HD 
BRANCH   7  10
HETATM   10  C   UNL     1     -10.669   8.524  70.502  1.00  0.00    -0.221 C  
BRANCH  10  11
HETATM   11  O   UNL     1     -10.816   8.902  69.122  1.00  0.00    -0.182 OA 
BRANCH  11  12
HETATM   12  C   UNL     1     -11.156  10.209  68.892  1.00  0.00    -0.207 A  
HETATM   13  C   UNL     1     -11.137  10.842  67.649  1.00  0.00    -0.376 A  
HETATM   14  C   UNL     1     -11.463  12.197  67.544  1.00  0.00    -0.410 A  
HETATM   15  C   UNL     1     -11.840  12.937  68.671  1.00  0.00    -0.347 A  
HETATM   16  C   UNL     1     -11.883  12.290  69.912  1.00  0.00    -0.383 A  
HETATM   17  C   UNL     1     -11.545  10.936  70.019  1.00  0.00    -0.424 A  
BRANCH  15  18
HETATM   18  C   UNL     1     -12.155  14.410  68.551  1.00  0.00    -0.278 C  
BRANCH  18  19
HETATM   19  C   UNL     1     -11.117  15.297  69.239  1.00  0.00    -0.274 C  
BRANCH  19  20
HETATM   20  O   UNL     1     -11.760  16.129  70.208  1.00  0.00    -0.316 OA 
BRANCH  20  21
HETATM   21  C   UNL     1     -11.540  15.625  71.526  1.00  0.00    -0.435 C  
BRANCH  21  22
HETATM   22  C   UNL     1     -12.848  15.543  72.243  1.00  0.00    -0.493 C  
HETATM   23  C   UNL     1     -14.062  15.024  71.512  1.00  0.00    -0.613 C  
HETATM   24  C   UNL     1     -13.447  14.210  72.616  1.00  0.00    -0.634 C  
ENDBRANCH  21  22
ENDBRANCH  20  21
ENDBRANCH  19  20
ENDBRANCH  18  19
ENDBRANCH  15  18
ENDBRANCH  11  12
ENDBRANCH  10  11
ENDBRANCH   7  10
ENDBRANCH   6   7
ENDBRANCH   4   6
ENDBRANCH   2   4
TORSDOF 11
ENDMDL
MODEL       81
REMARK 921   NORMALIZED FREE ENERGY PREDICTED BY IDOCK:   -4.49 KCAL/MOL
REMARK 922        TOTAL FREE ENERGY PREDICTED BY IDOCK:   -8.70 KCAL/MOL
REMARK 923 INTER-LIGAND FREE ENERGY PREDICTED BY IDOCK:   -7.02 KCAL/MOL
REMARK 924 INTRA-LIGAND FREE ENERGY PREDICTED BY IDOCK:   -1.69 KCAL/MOL
REMARK 927      BINDING AFFINITY PREDICTED BY RF-SCORE:    0.00 PKD
ROOT
HETATM    1  C   UNL     1     -11.081  11.749  64.217  1.00  0.00    -0.420 C  
HETATM    2  C   UNL     1     -10.782  11.260  65.634  1.00  0.00    -0.217 C  
HETATM    3  C   UNL     1      -9.423  11.801  66.090  1.00  0.00    -0.240 C  
ENDROOT
BRANCH   2   4
HETATM    4  N   UNL     1     -11.789  11.683  66.617  1.00  0.00    -0.482 NA 
HETATM    5  H   UNL     1     -12.198  10.868  67.075  1.00  0.00     0.000 HD 
BRANCH   4   6
HETATM    6  C   UNL     1     -11.314  12.643  67.622  1.00  0.00    -0.310 C  
BRANCH   6   7
HETATM    7  C   UNL     1     -12.031  14.007  67.670  1.00  0.00    -0.368 C  
HETATM    8  O   UNL     1     -12.663  14.234  66.400  1.00  0.00    -0.524 OA 
HETATM    9  H   UNL     1     -13.105  15.075  66.429  1.00  0.00     0.000 HD 
BRANCH   7  10
HETATM   10  C   UNL     1     -11.060  15.155  67.962  1.00  0.00    -0.308 C  
BRANCH  10  11
HETATM   11  O   UNL     1      -9.719  14.644  67.861  1.00  0.00    -0.211 OA 
BRANCH  11  12
HETATM   12  C   UNL     1      -8.721  15.582  67.846  1.00  0.00    -0.163 A  
HETATM   13  C   UNL     1      -8.037  16.051  68.968  1.00  0.00    -0.226 A  
HETATM   14  C   UNL     1      -7.064  17.045  68.835  1.00  0.00    -0.233 A  
HETATM   15  C   UNL     1      -6.738  17.571  67.579  1.00  0.00    -0.175 A  
HETATM   16  C   UNL     1      -7.410  17.077  66.453  1.00  0.00    -0.328 A  
HETATM   17  C   UNL     1      -8.391  16.089  66.588  1.00  0.00    -0.331 A  
BRANCH  15  18
HETATM   18  C   UNL     1      -5.711  18.671  67.451  1.00  0.00    -0.155 C  
BRANCH  18  19
HETATM   19  C   UNL     1      -6.333  20.027  67.115  1.00  0.00    -0.189 C  
BRANCH  19  20
HETATM   20  O   UNL     1      -7.534  20.207  67.871  1.00  0.00    -0.290 OA 
BRANCH  20  21
HETATM   21  C   UNL     1      -8.613  20.582  67.014  1.00  0.00    -0.232 C  
BRANCH  21  22
HETATM   22  C   UNL     1      -9.907  20.267  67.691  1.00  0.00    -0.563 C  
HETATM   23  C   UNL     1     -10.619  18.978  67.362  1.00  0.00    -0.559 C  
HETATM   24  C   UNL     1      -9.999  19.167  68.719  1.00  0.00    -0.493 C  
ENDBRANCH  21  22
ENDBRANCH  20  21
ENDBRANCH  19  20
ENDBRANCH  18  19
ENDBRANCH  15  18
ENDBRANCH  11  12
ENDBRANCH  10  11
ENDBRANCH   7  10
ENDBRANCH   6   7
ENDBRANCH   4   6
ENDBRANCH   2   4
TORSDOF 11
ENDMDL
MODEL       82
REMARK 921   NORMALIZED FREE ENERGY PREDICTED BY IDOCK:   -4.46 KCAL/MOL
REMARK 922        TOTAL FREE ENERGY PREDICTED BY IDOCK:   -8.66 KCAL/MOL
REMARK 923 INTER-LIGAND FREE ENERGY PREDICTED BY IDOCK:   -7.41 KCAL/MOL
REMARK 924 INTRA-LIGAND FREE ENERGY PREDICTED BY IDOCK:   -1.25 KCAL/MOL
REMARK 927      BINDING AFFINITY PREDICTED BY RF-SCORE:    0.00 PKD
ROOT
HETATM    1  C   UNL     1     -12.655  12.020  63.470  1.00  0.00    -0.625 C  
HETATM    2  C   UNL     1     -11.126  11.979  63.477  1.00  0.00    -0.443 C  
HETATM    3  C   UNL     1     -10.585  13.125  64.338  1.00  0.00    -0.441 C  
ENDROOT
BRANCH   2   4
HETATM    4  N   UNL     1     -10.583  10.720  64.005  1.00  0.00    -0.466 NA 
HETATM    5  H   UNL     1     -11.098   9.927  63.622  1.00  0.00     0.000 HD 
BRANCH   4   6
HETATM    6  C   UNL     1      -9.140  10.532  63.806  1.00  0.00    -0.236 C  
BRANCH   6   7
HETATM    7  C   UNL     1      -8.374   9.808  64.930  1.00  0.00    -0.148 C  
HETATM    8  O   UNL     1      -7.645   8.713  64.352  1.00  0.00    -0.103 OA 
HETATM    9  H   UNL     1      -7.173   8.267  65.044  1.00  0.00     0.000 HD 
BRANCH   7  10
HETATM   10  C   UNL     1      -9.315   9.271  66.012  1.00  0.00    -0.223 C  
BRANCH  10  11
HETATM   11  O   UNL     1      -9.011   9.948  67.245  1.00  0.00    -0.134 OA 
BRANCH  11  12
HETATM   12  C   UNL     1      -9.754  11.068  67.511  1.00  0.00    -0.172 A  
HETATM   13  C   UNL     1     -11.147  11.129  67.519  1.00  0.00    -0.353 A  
HETATM   14  C   UNL     1     -11.797  12.343  67.762  1.00  0.00    -0.362 A  
HETATM   15  C   UNL     1     -11.070  13.509  68.028  1.00  0.00    -0.283 A  
HETATM   16  C   UNL     1      -9.672  13.435  68.046  1.00  0.00    -0.222 A  
HETATM   17  C   UNL     1      -9.021  12.223  67.792  1.00  0.00    -0.177 A  
BRANCH  15  18
HETATM   18  C   UNL     1     -11.782  14.821  68.254  1.00  0.00    -0.340 C  
BRANCH  18  19
HETATM   19  C   UNL     1     -10.847  15.927  68.745  1.00  0.00    -0.284 C  
BRANCH  19  20
HETATM   20  O   UNL     1     -11.145  17.149  68.063  1.00  0.00    -0.313 OA 
BRANCH  20  21
HETATM   21  C   UNL     1     -10.188  18.155  68.397  1.00  0.00    -0.387 C  
BRANCH  21  22
HETATM   22  C   UNL     1     -10.510  19.405  67.644  1.00  0.00    -0.573 C  
HETATM   23  C   UNL     1      -9.405  20.140  66.925  1.00  0.00    -0.522 C  
HETATM   24  C   UNL     1     -10.474  19.435  66.137  1.00  0.00    -0.600 C  
ENDBRANCH  21  22
ENDBRANCH  20  21
ENDBRANCH  19  20
ENDBRANCH  18  19
ENDBRANCH  15  18
ENDBRANCH  11  12
ENDBRANCH  10  11
ENDBRANCH   7  10
ENDBRANCH   6   7
ENDBRANCH   4   6
ENDBRANCH   2   4
TORSDOF 11
ENDMDL
MODEL       83
REMARK 921   NORMALIZED FREE ENERGY PREDICTED BY IDOCK:   -4.45 KCAL/MOL
REMARK 922        TOTAL FREE ENERGY PREDICTED BY IDOCK:   -8.65 KCAL/MOL
REMARK 923 INTER-LIGAND FREE ENERGY PREDICTED BY IDOCK:   -7.72 KCAL/MOL
REMARK 924 INTRA-LIGAND FREE ENERGY PREDICTED BY IDOCK:   -0.93 KCAL/MOL
REMARK 927      BINDING AFFINITY PREDICTED BY RF-SCORE:    0.00 PKD
ROOT
HETATM    1  C   UNL     1      -9.955  19.266  68.495  1.00  0.00    -0.513 C  
HETATM    2  C   UNL     1     -10.820  18.753  67.343  1.00  0.00    -0.348 C  
HETATM    3  C   UNL     1     -10.488  19.530  66.064  1.00  0.00    -0.611 C  
ENDROOT
BRANCH   2   4
HETATM    4  N   UNL     1     -10.626  17.323  67.066  1.00  0.00    -0.278 NA 
HETATM    5  H   UNL     1     -11.488  16.810  67.250  1.00  0.00     0.000 HD 
BRANCH   4   6
HETATM    6  C   UNL     1     -10.129  17.012  65.720  1.00  0.00    -0.199 C  
BRANCH   6   7
HETATM    7  C   UNL     1     -10.771  15.807  65.005  1.00  0.00    -0.421 C  
HETATM    8  O   UNL     1     -11.539  16.294  63.892  1.00  0.00    -1.489 OA 
HETATM    9  H   UNL     1     -11.935  15.551  63.452  1.00  0.00     0.000 HD 
BRANCH   7  10
HETATM   10  C   UNL     1     -11.686  15.008  65.938  1.00  0.00    -0.098 C  
BRANCH  10  11
HETATM   11  O   UNL     1     -11.499  13.609  65.658  1.00  0.00    -0.303 OA 
BRANCH  11  12
HETATM   12  C   UNL     1     -11.486  12.778  66.747  1.00  0.00    -0.343 A  
HETATM   13  C   UNL     1     -11.255  11.403  66.709  1.00  0.00    -0.319 A  
HETATM   14  C   UNL     1     -11.309  10.648  67.884  1.00  0.00    -0.342 A  
HETATM   15  C   UNL     1     -11.568  11.254  69.119  1.00  0.00    -0.387 A  
HETATM   16  C   UNL     1     -11.773  12.639  69.154  1.00  0.00    -0.375 A  
HETATM   17  C   UNL     1     -11.729  13.393  67.976  1.00  0.00    -0.391 A  
BRANCH  15  18
HETATM   18  C   UNL     1     -11.661  10.423  70.377  1.00  0.00    -0.423 C  
BRANCH  18  19
HETATM   19  C   UNL     1     -10.606   9.317  70.436  1.00  0.00    -0.248 C  
BRANCH  19  20
HETATM   20  O   UNL     1      -9.314   9.869  70.166  1.00  0.00    -0.234 OA 
BRANCH  20  21
HETATM   21  C   UNL     1      -8.320   8.844  70.177  1.00  0.00    -0.139 C  
BRANCH  21  22
HETATM   22  C   UNL     1      -7.366   9.076  69.051  1.00  0.00    -0.073 C  
HETATM   23  C   UNL     1      -7.895   9.182  67.642  1.00  0.00    -0.096 C  
HETATM   24  C   UNL     1      -7.329  10.396  68.323  1.00  0.00    -0.088 C  
ENDBRANCH  21  22
ENDBRANCH  20  21
ENDBRANCH  19  20
ENDBRANCH  18  19
ENDBRANCH  15  18
ENDBRANCH  11  12
ENDBRANCH  10  11
ENDBRANCH   7  10
ENDBRANCH   6   7
ENDBRANCH   4   6
ENDBRANCH   2   4
TORSDOF 11
ENDMDL
MODEL       84
REMARK 921   NORMALIZED FREE ENERGY PREDICTED BY IDOCK:   -4.45 KCAL/MOL
REMARK 922        TOTAL FREE ENERGY PREDICTED BY IDOCK:   -8.64 KCAL/MOL
REMARK 923 INTER-LIGAND FREE ENERGY PREDICTED BY IDOCK:   -7.64 KCAL/MOL
REMARK 924 INTRA-LIGAND FREE ENERGY PREDICTED BY IDOCK:   -1.00 KCAL/MOL
REMARK 927      BINDING AFFINITY PREDICTED BY RF-SCORE:    0.00 PKD
ROOT
HETATM    1  C   UNL     1      -7.223  10.219  65.112  1.00  0.00    -0.125 C  
HETATM    2  C   UNL     1      -8.487   9.649  65.757  1.00  0.00    -0.133 C  
HETATM    3  C   UNL     1      -8.829  10.451  67.017  1.00  0.00    -0.143 C  
ENDROOT
BRANCH   2   4
HETATM    4  N   UNL     1      -9.656   9.682  64.868  1.00  0.00    -0.425 NA 
HETATM    5  H   UNL     1     -10.295   8.921  65.098  1.00  0.00     0.000 HD 
BRANCH   4   6
HETATM    6  C   UNL     1     -10.380  10.959  64.838  1.00  0.00    -0.304 C  
BRANCH   6   7
HETATM    7  C   UNL     1     -11.051  11.344  63.506  1.00  0.00    -0.285 C  
HETATM    8  O   UNL     1     -10.145  11.039  62.433  1.00  0.00    -0.582 OA 
HETATM    9  H   UNL     1     -10.559  11.276  61.612  1.00  0.00     0.000 HD 
BRANCH   7  10
HETATM   10  C   UNL     1     -11.411  12.832  63.453  1.00  0.00    -0.394 C  
BRANCH  10  11
HETATM   11  O   UNL     1     -12.359  13.100  64.501  1.00  0.00    -0.445 OA 
BRANCH  11  12
HETATM   12  C   UNL     1     -11.899  13.860  65.544  1.00  0.00    -0.362 A  
HETATM   13  C   UNL     1     -12.277  13.713  66.878  1.00  0.00    -0.398 A  
HETATM   14  C   UNL     1     -11.772  14.579  67.853  1.00  0.00    -0.381 A  
HETATM   15  C   UNL     1     -10.862  15.589  67.517  1.00  0.00    -0.306 A  
HETATM   16  C   UNL     1     -10.466  15.715  66.180  1.00  0.00    -0.327 A  
HETATM   17  C   UNL     1     -10.980  14.854  65.203  1.00  0.00    -0.410 A  
BRANCH  15  18
HETATM   18  C   UNL     1     -10.352  16.541  68.572  1.00  0.00    -0.289 C  
BRANCH  18  19
HETATM   19  C   UNL     1      -8.843  16.776  68.480  1.00  0.00    -0.248 C  
BRANCH  19  20
HETATM   20  O   UNL     1      -8.580  18.175  68.353  1.00  0.00    -0.287 OA 
BRANCH  20  21
HETATM   21  C   UNL     1      -8.434  18.535  66.979  1.00  0.00    -0.264 C  
BRANCH  21  22
HETATM   22  C   UNL     1      -9.388  19.640  66.658  1.00  0.00    -0.460 C  
HETATM   23  C   UNL     1     -10.593  19.351  65.798  1.00  0.00    -0.490 C  
HETATM   24  C   UNL     1     -10.772  19.670  67.256  1.00  0.00    -0.583 C  
ENDBRANCH  21  22
ENDBRANCH  20  21
ENDBRANCH  19  20
ENDBRANCH  18  19
ENDBRANCH  15  18
ENDBRANCH  11  12
ENDBRANCH  10  11
ENDBRANCH   7  10
ENDBRANCH   6   7
ENDBRANCH   4   6
ENDBRANCH   2   4
TORSDOF 11
ENDMDL
MODEL       85
REMARK 921   NORMALIZED FREE ENERGY PREDICTED BY IDOCK:   -4.44 KCAL/MOL
REMARK 922        TOTAL FREE ENERGY PREDICTED BY IDOCK:   -8.63 KCAL/MOL
REMARK 923 INTER-LIGAND FREE ENERGY PREDICTED BY IDOCK:   -7.06 KCAL/MOL
REMARK 924 INTRA-LIGAND FREE ENERGY PREDICTED BY IDOCK:   -1.57 KCAL/MOL
REMARK 927      BINDING AFFINITY PREDICTED BY RF-SCORE:    0.00 PKD
ROOT
HETATM    1  C   UNL     1     -13.860   8.601  72.224  1.00  0.00    -0.459 C  
HETATM    2  C   UNL     1     -12.732   9.280  71.445  1.00  0.00    -0.330 C  
HETATM    3  C   UNL     1     -12.900  10.802  71.518  1.00  0.00    -0.567 C  
ENDROOT
BRANCH   2   4
HETATM    4  N   UNL     1     -11.395   8.947  71.953  1.00  0.00    -0.360 NA 
HETATM    5  H   UNL     1     -11.412   8.879  72.971  1.00  0.00     0.000 HD 
BRANCH   4   6
HETATM    6  C   UNL     1     -10.792   7.739  71.375  1.00  0.00    -0.228 C  
BRANCH   6   7
HETATM    7  C   UNL     1      -9.297   7.816  71.012  1.00  0.00    -0.152 C  
HETATM    8  O   UNL     1      -8.754   9.022  71.574  1.00  0.00    -0.304 OA 
HETATM    9  H   UNL     1      -7.831   9.070  71.351  1.00  0.00     0.000 HD 
BRANCH   7  10
HETATM   10  C   UNL     1      -9.073   7.821  69.497  1.00  0.00    -0.146 C  
BRANCH  10  11
HETATM   11  O   UNL     1     -10.354   7.956  68.856  1.00  0.00    -0.210 OA 
BRANCH  11  12
HETATM   12  C   UNL     1     -10.459   8.966  67.936  1.00  0.00    -0.223 A  
HETATM   13  C   UNL     1      -9.951   8.930  66.638  1.00  0.00    -0.346 A  
HETATM   14  C   UNL     1     -10.081  10.040  65.799  1.00  0.00    -0.320 A  
HETATM   15  C   UNL     1     -10.742  11.196  66.232  1.00  0.00    -0.298 A  
HETATM   16  C   UNL     1     -11.274  11.216  67.527  1.00  0.00    -0.369 A  
HETATM   17  C   UNL     1     -11.134  10.108  68.370  1.00  0.00    -0.273 A  
BRANCH  15  18
HETATM   18  C   UNL     1     -10.845  12.403  65.331  1.00  0.00    -0.320 C  
BRANCH  18  19
HETATM   19  C   UNL     1     -12.281  12.905  65.171  1.00  0.00    -0.470 C  
BRANCH  19  20
HETATM   20  O   UNL     1     -12.436  14.148  65.860  1.00  0.00    -0.471 OA 
BRANCH  20  21
HETATM   21  C   UNL     1     -11.196  14.854  65.905  1.00  0.00    -0.328 C  
BRANCH  21  22
HETATM   22  C   UNL     1     -10.992  15.399  67.281  1.00  0.00    -0.317 C  
HETATM   23  C   UNL     1     -11.684  14.738  68.448  1.00  0.00    -0.343 C  
HETATM   24  C   UNL     1     -10.191  14.637  68.308  1.00  0.00    -0.227 C  
ENDBRANCH  21  22
ENDBRANCH  20  21
ENDBRANCH  19  20
ENDBRANCH  18  19
ENDBRANCH  15  18
ENDBRANCH  11  12
ENDBRANCH  10  11
ENDBRANCH   7  10
ENDBRANCH   6   7
ENDBRANCH   4   6
ENDBRANCH   2   4
TORSDOF 11
ENDMDL
MODEL       86
REMARK 921   NORMALIZED FREE ENERGY PREDICTED BY IDOCK:   -4.42 KCAL/MOL
REMARK 922        TOTAL FREE ENERGY PREDICTED BY IDOCK:   -8.60 KCAL/MOL
REMARK 923 INTER-LIGAND FREE ENERGY PREDICTED BY IDOCK:   -7.01 KCAL/MOL
REMARK 924 INTRA-LIGAND FREE ENERGY PREDICTED BY IDOCK:   -1.59 KCAL/MOL
REMARK 927      BINDING AFFINITY PREDICTED BY RF-SCORE:    0.00 PKD
ROOT
HETATM    1  C   UNL     1     -12.200  10.706  71.064  1.00  0.00    -0.498 C  
HETATM    2  C   UNL     1     -12.235   9.271  71.589  1.00  0.00    -0.370 C  
HETATM    3  C   UNL     1     -13.562   9.020  72.314  1.00  0.00    -0.540 C  
ENDROOT
BRANCH   2   4
HETATM    4  N   UNL     1     -12.102   8.263  70.529  1.00  0.00    -0.479 NA 
HETATM    5  H   UNL     1     -12.787   8.434  69.792  1.00  0.00     0.000 HD 
BRANCH   4   6
HETATM    6  C   UNL     1     -10.757   8.140  69.951  1.00  0.00    -0.241 C  
BRANCH   6   7
HETATM    7  C   UNL     1     -10.638   8.332  68.427  1.00  0.00    -0.099 C  
HETATM    8  O   UNL     1      -9.682   7.385  67.923  1.00  0.00    -0.139 OA 
HETATM    9  H   UNL     1      -9.608   7.503  66.983  1.00  0.00     0.000 HD 
BRANCH   7  10
HETATM   10  C   UNL     1     -10.186   9.748  68.060  1.00  0.00    -0.190 C  
BRANCH  10  11
HETATM   11  O   UNL     1     -11.248  10.381  67.325  1.00  0.00    -0.284 OA 
BRANCH  11  12
HETATM   12  C   UNL     1     -11.045  11.693  66.989  1.00  0.00    -0.302 A  
HETATM   13  C   UNL     1     -12.013  12.553  66.472  1.00  0.00    -0.367 A  
HETATM   14  C   UNL     1     -11.677  13.864  66.124  1.00  0.00    -0.393 A  
HETATM   15  C   UNL     1     -10.377  14.348  66.309  1.00  0.00    -0.300 A  
HETATM   16  C   UNL     1      -9.415  13.488  66.854  1.00  0.00    -0.258 A  
HETATM   17  C   UNL     1      -9.750  12.172  67.192  1.00  0.00    -0.203 A  
BRANCH  15  18
HETATM   18  C   UNL     1     -10.016  15.755  65.896  1.00  0.00    -0.380 C  
BRANCH  18  19
HETATM   19  C   UNL     1      -9.379  16.562  67.028  1.00  0.00    -0.230 C  
BRANCH  19  20
HETATM   20  O   UNL     1     -10.403  17.129  67.851  1.00  0.00    -0.318 OA 
BRANCH  20  21
HETATM   21  C   UNL     1     -10.329  16.602  69.176  1.00  0.00    -0.326 C  
BRANCH  21  22
HETATM   22  C   UNL     1     -11.627  15.944  69.514  1.00  0.00    -0.337 C  
HETATM   23  C   UNL     1     -11.664  14.453  69.743  1.00  0.00    -0.361 C  
HETATM   24  C   UNL     1     -11.884  15.394  70.895  1.00  0.00    -0.400 C  
ENDBRANCH  21  22
ENDBRANCH  20  21
ENDBRANCH  19  20
ENDBRANCH  18  19
ENDBRANCH  15  18
ENDBRANCH  11  12
ENDBRANCH  10  11
ENDBRANCH   7  10
ENDBRANCH   6   7
ENDBRANCH   4   6
ENDBRANCH   2   4
TORSDOF 11
ENDMDL
MODEL       87
REMARK 921   NORMALIZED FREE ENERGY PREDICTED BY IDOCK:   -4.42 KCAL/MOL
REMARK 922        TOTAL FREE ENERGY PREDICTED BY IDOCK:   -8.60 KCAL/MOL
REMARK 923 INTER-LIGAND FREE ENERGY PREDICTED BY IDOCK:   -7.87 KCAL/MOL
REMARK 924 INTRA-LIGAND FREE ENERGY PREDICTED BY IDOCK:   -0.73 KCAL/MOL
REMARK 927      BINDING AFFINITY PREDICTED BY RF-SCORE:    0.00 PKD
ROOT
HETATM    1  C   UNL     1      -9.515   5.341  72.097  1.00  0.00    -0.168 C  
HETATM    2  C   UNL     1     -10.823   4.972  72.797  1.00  0.00    -0.244 C  
HETATM    3  C   UNL     1     -10.546   4.643  74.267  1.00  0.00    -0.328 C  
ENDROOT
BRANCH   2   4
HETATM    4  N   UNL     1     -11.826   6.045  72.755  1.00  0.00    -0.527 NA 
HETATM    5  H   UNL     1     -12.440   5.985  73.567  1.00  0.00     0.000 HD 
BRANCH   4   6
HETATM    6  C   UNL     1     -11.279   7.403  72.633  1.00  0.00    -0.332 C  
BRANCH   6   7
HETATM    7  C   UNL     1     -12.069   8.391  71.754  1.00  0.00    -0.328 C  
HETATM    8  O   UNL     1     -12.587   7.678  70.619  1.00  0.00    -0.529 OA 
HETATM    9  H   UNL     1     -13.074   8.287  70.077  1.00  0.00     0.000 HD 
BRANCH   7  10
HETATM   10  C   UNL     1     -11.194   9.549  71.264  1.00  0.00    -0.382 C  
BRANCH  10  11
HETATM   11  O   UNL     1     -12.021  10.722  71.159  1.00  0.00    -0.329 OA 
BRANCH  11  12
HETATM   12  C   UNL     1     -11.890  11.445  70.003  1.00  0.00    -0.359 A  
HETATM   13  C   UNL     1     -11.653  10.908  68.738  1.00  0.00    -0.378 A  
HETATM   14  C   UNL     1     -11.494  11.750  67.633  1.00  0.00    -0.370 A  
HETATM   15  C   UNL     1     -11.595  13.140  67.767  1.00  0.00    -0.379 A  
HETATM   16  C   UNL     1     -11.859  13.672  69.035  1.00  0.00    -0.393 A  
HETATM   17  C   UNL     1     -12.008  12.829  70.142  1.00  0.00    -0.371 A  
BRANCH  15  18
HETATM   18  C   UNL     1     -11.384  14.042  66.574  1.00  0.00    -0.343 C  
BRANCH  18  19
HETATM   19  C   UNL     1      -9.912  14.382  66.340  1.00  0.00    -0.294 C  
BRANCH  19  20
HETATM   20  O   UNL     1      -9.799  15.317  65.264  1.00  0.00    -0.307 OA 
BRANCH  20  21
HETATM   21  C   UNL     1     -10.613  16.464  65.510  1.00  0.00    -0.330 C  
BRANCH  21  22
HETATM   22  C   UNL     1      -9.858  17.426  66.369  1.00  0.00    -0.311 C  
HETATM   23  C   UNL     1     -10.414  18.810  66.596  1.00  0.00    -0.483 C  
HETATM   24  C   UNL     1     -10.373  17.823  67.729  1.00  0.00    -0.382 C  
ENDBRANCH  21  22
ENDBRANCH  20  21
ENDBRANCH  19  20
ENDBRANCH  18  19
ENDBRANCH  15  18
ENDBRANCH  11  12
ENDBRANCH  10  11
ENDBRANCH   7  10
ENDBRANCH   6   7
ENDBRANCH   4   6
ENDBRANCH   2   4
TORSDOF 11
ENDMDL
MODEL       88
REMARK 921   NORMALIZED FREE ENERGY PREDICTED BY IDOCK:   -4.42 KCAL/MOL
REMARK 922        TOTAL FREE ENERGY PREDICTED BY IDOCK:   -8.59 KCAL/MOL
REMARK 923 INTER-LIGAND FREE ENERGY PREDICTED BY IDOCK:   -7.75 KCAL/MOL
REMARK 924 INTRA-LIGAND FREE ENERGY PREDICTED BY IDOCK:   -0.84 KCAL/MOL
REMARK 927      BINDING AFFINITY PREDICTED BY RF-SCORE:    0.00 PKD
ROOT
HETATM    1  C   UNL     1      -8.934  14.728  66.774  1.00  0.00    -0.292 C  
HETATM    2  C   UNL     1      -9.575  16.049  66.347  1.00  0.00    -0.283 C  
HETATM    3  C   UNL     1      -8.494  17.126  66.212  1.00  0.00    -0.279 C  
ENDROOT
BRANCH   2   4
HETATM    4  N   UNL     1     -10.286  15.959  65.064  1.00  0.00    -0.524 NA 
HETATM    5  H   UNL     1      -9.640  15.691  64.322  1.00  0.00     0.000 HD 
BRANCH   4   6
HETATM    6  C   UNL     1     -11.456  15.071  65.063  1.00  0.00    -0.364 C  
BRANCH   6   7
HETATM    7  C   UNL     1     -11.360  13.800  64.197  1.00  0.00    -0.256 C  
HETATM    8  O   UNL     1     -12.311  13.905  63.125  1.00  0.00    -1.122 OA 
HETATM    9  H   UNL     1     -12.252  13.122  62.591  1.00  0.00     0.000 HD 
BRANCH   7  10
HETATM   10  C   UNL     1     -11.649  12.531  65.005  1.00  0.00    -0.349 C  
BRANCH  10  11
HETATM   11  O   UNL     1     -11.791  12.904  66.387  1.00  0.00    -0.381 OA 
BRANCH  11  12
HETATM   12  C   UNL     1     -11.494  11.929  67.303  1.00  0.00    -0.317 A  
HETATM   13  C   UNL     1     -10.727  10.792  67.051  1.00  0.00    -0.320 A  
HETATM   14  C   UNL     1     -10.527   9.841  68.055  1.00  0.00    -0.271 A  
HETATM   15  C   UNL     1     -11.065  10.021  69.335  1.00  0.00    -0.265 A  
HETATM   16  C   UNL     1     -11.811  11.178  69.590  1.00  0.00    -0.419 A  
HETATM   17  C   UNL     1     -12.021  12.124  68.581  1.00  0.00    -0.290 A  
BRANCH  15  18
HETATM   18  C   UNL     1     -10.872   8.969  70.402  1.00  0.00    -0.284 C  
BRANCH  18  19
HETATM   19  C   UNL     1     -11.851   9.120  71.567  1.00  0.00    -0.358 C  
BRANCH  19  20
HETATM   20  O   UNL     1     -11.343   8.436  72.715  1.00  0.00    -0.346 OA 
BRANCH  20  21
HETATM   21  C   UNL     1     -11.078   7.067  72.406  1.00  0.00    -0.259 C  
BRANCH  21  22
HETATM   22  C   UNL     1      -9.738   6.693  72.949  1.00  0.00    -0.168 C  
HETATM   23  C   UNL     1      -8.890   7.747  73.618  1.00  0.00    -0.323 C  
HETATM   24  C   UNL     1      -9.489   6.637  74.436  1.00  0.00    -0.279 C  
ENDBRANCH  21  22
ENDBRANCH  20  21
ENDBRANCH  19  20
ENDBRANCH  18  19
ENDBRANCH  15  18
ENDBRANCH  11  12
ENDBRANCH  10  11
ENDBRANCH   7  10
ENDBRANCH   6   7
ENDBRANCH   4   6
ENDBRANCH   2   4
TORSDOF 11
ENDMDL
MODEL       89
REMARK 921   NORMALIZED FREE ENERGY PREDICTED BY IDOCK:   -4.41 KCAL/MOL
REMARK 922        TOTAL FREE ENERGY PREDICTED BY IDOCK:   -8.58 KCAL/MOL
REMARK 923 INTER-LIGAND FREE ENERGY PREDICTED BY IDOCK:   -7.51 KCAL/MOL
REMARK 924 INTRA-LIGAND FREE ENERGY PREDICTED BY IDOCK:   -1.07 KCAL/MOL
REMARK 927      BINDING AFFINITY PREDICTED BY RF-SCORE:    0.00 PKD
ROOT
HETATM    1  C   UNL     1     -13.198   9.257  72.281  1.00  0.00    -0.535 C  
HETATM    2  C   UNL     1     -12.883  10.354  71.262  1.00  0.00    -0.433 C  
HETATM    3  C   UNL     1     -13.242  11.722  71.851  1.00  0.00    -0.468 C  
ENDROOT
BRANCH   2   4
HETATM    4  N   UNL     1     -11.469  10.388  70.867  1.00  0.00    -0.340 NA 
HETATM    5  H   UNL     1     -10.872  10.248  71.682  1.00  0.00     0.000 HD 
BRANCH   4   6
HETATM    6  C   UNL     1     -11.097   9.449  69.800  1.00  0.00    -0.172 C  
BRANCH   6   7
HETATM    7  C   UNL     1     -10.175   9.991  68.690  1.00  0.00    -0.180 C  
HETATM    8  O   UNL     1      -9.303  10.978  69.264  1.00  0.00    -0.393 OA 
HETATM    9  H   UNL     1      -8.735  11.312  68.580  1.00  0.00     0.000 HD 
BRANCH   7  10
HETATM   10  C   UNL     1     -10.969  10.625  67.544  1.00  0.00    -0.310 C  
BRANCH  10  11
HETATM   11  O   UNL     1     -11.988  11.464  68.115  1.00  0.00    -0.594 OA 
BRANCH  11  12
HETATM   12  C   UNL     1     -11.783  12.814  68.005  1.00  0.00    -0.356 A  
HETATM   13  C   UNL     1     -11.691  13.521  66.806  1.00  0.00    -0.430 A  
HETATM   14  C   UNL     1     -11.436  14.895  66.817  1.00  0.00    -0.304 A  
HETATM   15  C   UNL     1     -11.293  15.592  68.023  1.00  0.00    -0.332 A  
HETATM   16  C   UNL     1     -11.413  14.881  69.224  1.00  0.00    -0.324 A  
HETATM   17  C   UNL     1     -11.658  13.504  69.212  1.00  0.00    -0.369 A  
BRANCH  15  18
HETATM   18  C   UNL     1     -10.981  17.070  68.022  1.00  0.00    -0.252 C  
BRANCH  18  19
HETATM   19  C   UNL     1     -10.178  17.506  66.796  1.00  0.00    -0.327 C  
BRANCH  19  20
HETATM   20  O   UNL     1      -8.781  17.475  67.099  1.00  0.00    -0.227 OA 
BRANCH  20  21
HETATM   21  C   UNL     1      -8.458  18.468  68.073  1.00  0.00    -0.283 C  
BRANCH  21  22
HETATM   22  C   UNL     1      -7.263  19.237  67.612  1.00  0.00    -0.254 C  
HETATM   23  C   UNL     1      -7.013  19.398  66.132  1.00  0.00    -0.264 C  
HETATM   24  C   UNL     1      -7.412  20.589  66.960  1.00  0.00    -0.362 C  
ENDBRANCH  21  22
ENDBRANCH  20  21
ENDBRANCH  19  20
ENDBRANCH  18  19
ENDBRANCH  15  18
ENDBRANCH  11  12
ENDBRANCH  10  11
ENDBRANCH   7  10
ENDBRANCH   6   7
ENDBRANCH   4   6
ENDBRANCH   2   4
TORSDOF 11
ENDMDL
MODEL       90
REMARK 921   NORMALIZED FREE ENERGY PREDICTED BY IDOCK:   -4.41 KCAL/MOL
REMARK 922        TOTAL FREE ENERGY PREDICTED BY IDOCK:   -8.58 KCAL/MOL
REMARK 923 INTER-LIGAND FREE ENERGY PREDICTED BY IDOCK:   -7.48 KCAL/MOL
REMARK 924 INTRA-LIGAND FREE ENERGY PREDICTED BY IDOCK:   -1.09 KCAL/MOL
REMARK 927      BINDING AFFINITY PREDICTED BY RF-SCORE:    0.00 PKD
ROOT
HETATM    1  C   UNL     1     -12.433  14.226  70.104  1.00  0.00    -0.393 C  
HETATM    2  C   UNL     1     -12.414  13.247  71.279  1.00  0.00    -0.258 C  
HETATM    3  C   UNL     1     -13.617  13.513  72.190  1.00  0.00    -0.651 C  
ENDROOT
BRANCH   2   4
HETATM    4  N   UNL     1     -12.465  11.840  70.862  1.00  0.00    -0.363 NA 
HETATM    5  H   UNL     1     -11.548  11.536  70.536  1.00  0.00     0.000 HD 
BRANCH   4   6
HETATM    6  C   UNL     1     -12.978  10.908  71.875  1.00  0.00    -0.396 C  
BRANCH   6   7
HETATM    7  C   UNL     1     -12.531   9.438  71.754  1.00  0.00    -0.391 C  
HETATM    8  O   UNL     1     -12.792   8.778  73.003  1.00  0.00    -0.629 OA 
HETATM    9  H   UNL     1     -12.517   7.872  72.928  1.00  0.00     0.000 HD 
BRANCH   7  10
HETATM   10  C   UNL     1     -11.041   9.317  71.421  1.00  0.00    -0.367 C  
BRANCH  10  11
HETATM   11  O   UNL     1     -10.905   8.443  70.286  1.00  0.00    -0.236 OA 
BRANCH  11  12
HETATM   12  C   UNL     1     -10.340   8.998  69.169  1.00  0.00    -0.219 A  
HETATM   13  C   UNL     1      -9.639  10.204  69.132  1.00  0.00    -0.222 A  
HETATM   14  C   UNL     1      -9.143  10.693  67.921  1.00  0.00    -0.145 A  
HETATM   15  C   UNL     1      -9.313   9.977  66.730  1.00  0.00    -0.193 A  
HETATM   16  C   UNL     1      -9.994   8.754  66.777  1.00  0.00    -0.338 A  
HETATM   17  C   UNL     1     -10.500   8.269  67.989  1.00  0.00    -0.239 A  
BRANCH  15  18
HETATM   18  C   UNL     1      -8.804  10.533  65.421  1.00  0.00    -0.203 C  
BRANCH  18  19
HETATM   19  C   UNL     1      -9.914  10.725  64.387  1.00  0.00    -0.338 C  
BRANCH  19  20
HETATM   20  O   UNL     1     -11.032  11.377  64.995  1.00  0.00    -0.275 OA 
BRANCH  20  21
HETATM   21  C   UNL     1     -11.652  12.273  64.072  1.00  0.00    -0.417 C  
BRANCH  21  22
HETATM   22  C   UNL     1     -12.074  13.509  64.798  1.00  0.00    -0.442 C  
HETATM   23  C   UNL     1     -11.579  13.747  66.203  1.00  0.00    -0.369 C  
HETATM   24  C   UNL     1     -11.091  14.619  65.080  1.00  0.00    -0.401 C  
ENDBRANCH  21  22
ENDBRANCH  20  21
ENDBRANCH  19  20
ENDBRANCH  18  19
ENDBRANCH  15  18
ENDBRANCH  11  12
ENDBRANCH  10  11
ENDBRANCH   7  10
ENDBRANCH   6   7
ENDBRANCH   4   6
ENDBRANCH   2   4
TORSDOF 11
ENDMDL
MODEL       91
REMARK 921   NORMALIZED FREE ENERGY PREDICTED BY IDOCK:   -4.40 KCAL/MOL
REMARK 922        TOTAL FREE ENERGY PREDICTED BY IDOCK:   -8.57 KCAL/MOL
REMARK 923 INTER-LIGAND FREE ENERGY PREDICTED BY IDOCK:   -7.43 KCAL/MOL
REMARK 924 INTRA-LIGAND FREE ENERGY PREDICTED BY IDOCK:   -1.14 KCAL/MOL
REMARK 927      BINDING AFFINITY PREDICTED BY RF-SCORE:    0.00 PKD
ROOT
HETATM    1  C   UNL     1      -8.878  16.671  68.936  1.00  0.00    -0.238 C  
HETATM    2  C   UNL     1     -10.329  16.971  68.558  1.00  0.00    -0.359 C  
HETATM    3  C   UNL     1     -10.435  17.174  67.043  1.00  0.00    -0.282 C  
ENDROOT
BRANCH   2   4
HETATM    4  N   UNL     1     -11.259  15.899  68.937  1.00  0.00    -0.320 NA 
HETATM    5  H   UNL     1     -11.045  15.047  68.418  1.00  0.00     0.000 HD 
BRANCH   4   6
HETATM    6  C   UNL     1     -11.326  15.612  70.376  1.00  0.00    -0.358 C  
BRANCH   6   7
HETATM    7  C   UNL     1     -12.732  15.483  70.992  1.00  0.00    -0.467 C  
HETATM    8  O   UNL     1     -12.750  16.193  72.241  1.00  0.00    -0.438 OA 
HETATM    9  H   UNL     1     -13.617  16.113  72.621  1.00  0.00     0.000 HD 
BRANCH   7  10
HETATM   10  C   UNL     1     -13.118  14.021  71.238  1.00  0.00    -0.329 C  
BRANCH  10  11
HETATM   11  O   UNL     1     -12.299  13.193  70.394  1.00  0.00    -0.328 OA 
BRANCH  11  12
HETATM   12  C   UNL     1     -12.287  11.857  70.696  1.00  0.00    -0.313 A  
HETATM   13  C   UNL     1     -11.541  10.886  70.029  1.00  0.00    -0.424 A  
HETATM   14  C   UNL     1     -11.642   9.542  70.400  1.00  0.00    -0.268 A  
HETATM   15  C   UNL     1     -12.470   9.148  71.458  1.00  0.00    -0.418 A  
HETATM   16  C   UNL     1     -13.196  10.131  72.141  1.00  0.00    -0.463 A  
HETATM   17  C   UNL     1     -13.102  11.475  71.763  1.00  0.00    -0.503 A  
BRANCH  15  18
HETATM   18  C   UNL     1     -12.600   7.688  71.826  1.00  0.00    -0.359 C  
BRANCH  18  19
HETATM   19  C   UNL     1     -11.803   6.769  70.900  1.00  0.00    -0.385 C  
BRANCH  19  20
HETATM   20  O   UNL     1     -10.821   6.056  71.656  1.00  0.00    -0.242 OA 
BRANCH  20  21
HETATM   21  C   UNL     1     -10.990   6.301  73.053  1.00  0.00    -0.242 C  
BRANCH  21  22
HETATM   22  C   UNL     1      -9.713   6.836  73.614  1.00  0.00    -0.247 C  
HETATM   23  C   UNL     1      -8.517   6.996  72.708  1.00  0.00    -0.129 C  
HETATM   24  C   UNL     1      -9.218   8.212  73.244  1.00  0.00    -0.316 C  
ENDBRANCH  21  22
ENDBRANCH  20  21
ENDBRANCH  19  20
ENDBRANCH  18  19
ENDBRANCH  15  18
ENDBRANCH  11  12
ENDBRANCH  10  11
ENDBRANCH   7  10
ENDBRANCH   6   7
ENDBRANCH   4   6
ENDBRANCH   2   4
TORSDOF 11
ENDMDL
MODEL       92
REMARK 921   NORMALIZED FREE ENERGY PREDICTED BY IDOCK:   -4.40 KCAL/MOL
REMARK 922        TOTAL FREE ENERGY PREDICTED BY IDOCK:   -8.56 KCAL/MOL
REMARK 923 INTER-LIGAND FREE ENERGY PREDICTED BY IDOCK:   -7.16 KCAL/MOL
REMARK 924 INTRA-LIGAND FREE ENERGY PREDICTED BY IDOCK:   -1.41 KCAL/MOL
REMARK 927      BINDING AFFINITY PREDICTED BY RF-SCORE:    0.00 PKD
ROOT
HETATM    1  C   UNL     1     -10.032   9.498  66.277  1.00  0.00    -0.344 C  
HETATM    2  C   UNL     1      -9.602  10.828  65.658  1.00  0.00    -0.216 C  
HETATM    3  C   UNL     1     -10.313  11.025  64.315  1.00  0.00    -0.430 C  
ENDROOT
BRANCH   2   4
HETATM    4  N   UNL     1      -9.908  11.987  66.507  1.00  0.00    -0.204 NA 
HETATM    5  H   UNL     1      -9.086  12.585  66.598  1.00  0.00     0.000 HD 
BRANCH   4   6
HETATM    6  C   UNL     1     -11.067  12.782  66.080  1.00  0.00    -0.290 C  
BRANCH   6   7
HETATM    7  C   UNL     1     -12.121  13.104  67.158  1.00  0.00    -0.286 C  
HETATM    8  O   UNL     1     -12.261  14.531  67.246  1.00  0.00    -0.575 OA 
HETATM    9  H   UNL     1     -12.911  14.729  67.910  1.00  0.00     0.000 HD 
BRANCH   7  10
HETATM   10  C   UNL     1     -11.726  12.550  68.530  1.00  0.00    -0.324 C  
BRANCH  10  11
HETATM   11  O   UNL     1     -12.089  11.159  68.573  1.00  0.00    -0.586 OA 
BRANCH  11  12
HETATM   12  C   UNL     1     -11.558  10.434  69.607  1.00  0.00    -0.239 A  
HETATM   13  C   UNL     1     -12.268   9.968  70.713  1.00  0.00    -0.408 A  
HETATM   14  C   UNL     1     -11.609   9.274  71.732  1.00  0.00    -0.458 A  
HETATM   15  C   UNL     1     -10.236   9.009  71.651  1.00  0.00    -0.418 A  
HETATM   16  C   UNL     1      -9.534   9.455  70.525  1.00  0.00    -0.327 A  
HETATM   17  C   UNL     1     -10.193  10.160  69.511  1.00  0.00    -0.258 A  
BRANCH  15  18
HETATM   18  C   UNL     1      -9.527   8.289  72.774  1.00  0.00    -0.343 C  
BRANCH  18  19
HETATM   19  C   UNL     1      -8.278   7.543  72.305  1.00  0.00    -0.103 C  
BRANCH  19  20
HETATM   20  O   UNL     1      -8.609   6.695  71.202  1.00  0.00    -0.128 OA 
BRANCH  20  21
HETATM   21  C   UNL     1      -9.547   5.696  71.602  1.00  0.00    -0.154 C  
BRANCH  21  22
HETATM   22  C   UNL     1     -10.375   5.302  70.423  1.00  0.00    -0.345 C  
HETATM   23  C   UNL     1     -11.481   6.217  69.958  1.00  0.00    -0.460 C  
HETATM   24  C   UNL     1     -10.254   6.033  69.109  1.00  0.00    -0.258 C  
ENDBRANCH  21  22
ENDBRANCH  20  21
ENDBRANCH  19  20
ENDBRANCH  18  19
ENDBRANCH  15  18
ENDBRANCH  11  12
ENDBRANCH  10  11
ENDBRANCH   7  10
ENDBRANCH   6   7
ENDBRANCH   4   6
ENDBRANCH   2   4
TORSDOF 11
ENDMDL
MODEL       93
REMARK 921   NORMALIZED FREE ENERGY PREDICTED BY IDOCK:   -4.40 KCAL/MOL
REMARK 922        TOTAL FREE ENERGY PREDICTED BY IDOCK:   -8.56 KCAL/MOL
REMARK 923 INTER-LIGAND FREE ENERGY PREDICTED BY IDOCK:   -7.50 KCAL/MOL
REMARK 924 INTRA-LIGAND FREE ENERGY PREDICTED BY IDOCK:   -1.06 KCAL/MOL
REMARK 927      BINDING AFFINITY PREDICTED BY RF-SCORE:    0.00 PKD
ROOT
HETATM    1  C   UNL     1     -11.065  10.109  69.867  1.00  0.00    -0.346 C  
HETATM    2  C   UNL     1     -12.213  11.012  70.320  1.00  0.00    -0.363 C  
HETATM    3  C   UNL     1     -12.789  10.488  71.640  1.00  0.00    -0.581 C  
ENDROOT
BRANCH   2   4
HETATM    4  N   UNL     1     -11.805  12.408  70.526  1.00  0.00    -0.525 NA 
HETATM    5  H   UNL     1     -10.808  12.456  70.738  1.00  0.00     0.000 HD 
BRANCH   4   6
HETATM    6  C   UNL     1     -12.134  13.321  69.424  1.00  0.00    -0.248 C  
BRANCH   6   7
HETATM    7  C   UNL     1     -11.717  14.795  69.598  1.00  0.00    -0.314 C  
HETATM    8  O   UNL     1     -12.905  15.592  69.728  1.00  0.00    -0.572 OA 
HETATM    9  H   UNL     1     -12.648  16.500  69.836  1.00  0.00     0.000 HD 
BRANCH   7  10
HETATM   10  C   UNL     1     -10.896  15.303  68.409  1.00  0.00    -0.257 C  
BRANCH  10  11
HETATM   11  O   UNL     1     -11.279  16.666  68.152  1.00  0.00    -0.339 OA 
BRANCH  11  12
HETATM   12  C   UNL     1     -10.316  17.461  67.587  1.00  0.00    -0.355 A  
HETATM   13  C   UNL     1      -9.170  17.003  66.938  1.00  0.00    -0.254 A  
HETATM   14  C   UNL     1      -8.233  17.912  66.437  1.00  0.00    -0.287 A  
HETATM   15  C   UNL     1      -8.437  19.292  66.552  1.00  0.00    -0.336 A  
HETATM   16  C   UNL     1      -9.602  19.746  67.181  1.00  0.00    -0.483 A  
HETATM   17  C   UNL     1     -10.535  18.836  67.691  1.00  0.00    -0.495 A  
BRANCH  15  18
HETATM   18  C   UNL     1      -7.400  20.264  66.040  1.00  0.00    -0.265 C  
BRANCH  18  19
HETATM   19  C   UNL     1      -6.066  19.592  65.713  1.00  0.00    -0.186 C  
BRANCH  19  20
HETATM   20  O   UNL     1      -5.215  19.625  66.862  1.00  0.00    -0.162 OA 
BRANCH  20  21
HETATM   21  C   UNL     1      -5.429  20.824  67.609  1.00  0.00    -0.234 C  
BRANCH  21  22
HETATM   22  C   UNL     1      -5.471  20.493  69.065  1.00  0.00    -0.344 C  
HETATM   23  C   UNL     1      -6.673  19.771  69.624  1.00  0.00    -0.351 C  
HETATM   24  C   UNL     1      -5.347  19.067  69.542  1.00  0.00    -0.204 C  
ENDBRANCH  21  22
ENDBRANCH  20  21
ENDBRANCH  19  20
ENDBRANCH  18  19
ENDBRANCH  15  18
ENDBRANCH  11  12
ENDBRANCH  10  11
ENDBRANCH   7  10
ENDBRANCH   6   7
ENDBRANCH   4   6
ENDBRANCH   2   4
TORSDOF 11
ENDMDL
MODEL       94
REMARK 921   NORMALIZED FREE ENERGY PREDICTED BY IDOCK:   -4.39 KCAL/MOL
REMARK 922        TOTAL FREE ENERGY PREDICTED BY IDOCK:   -8.55 KCAL/MOL
REMARK 923 INTER-LIGAND FREE ENERGY PREDICTED BY IDOCK:   -7.00 KCAL/MOL
REMARK 924 INTRA-LIGAND FREE ENERGY PREDICTED BY IDOCK:   -1.55 KCAL/MOL
REMARK 927      BINDING AFFINITY PREDICTED BY RF-SCORE:    0.00 PKD
ROOT
HETATM    1  C   UNL     1      -8.903  16.528  66.222  1.00  0.00    -0.364 C  
HETATM    2  C   UNL     1     -10.375  16.839  65.949  1.00  0.00    -0.328 C  
HETATM    3  C   UNL     1     -10.579  18.357  65.891  1.00  0.00    -0.313 C  
ENDROOT
BRANCH   2   4
HETATM    4  N   UNL     1     -10.863  16.269  64.686  1.00  0.00    -0.860 NA 
HETATM    5  H   UNL     1     -10.359  16.676  63.898  1.00  0.00     0.000 HD 
BRANCH   4   6
HETATM    6  C   UNL     1     -10.823  14.803  64.609  1.00  0.00    -0.292 C  
BRANCH   6   7
HETATM    7  C   UNL     1     -12.148  14.091  64.269  1.00  0.00    -0.445 C  
HETATM    8  O   UNL     1     -13.054  14.266  65.370  1.00  0.00    -0.685 OA 
HETATM    9  H   UNL     1     -13.871  13.827  65.161  1.00  0.00     0.000 HD 
BRANCH   7  10
HETATM   10  C   UNL     1     -11.946  12.594  64.015  1.00  0.00    -0.451 C  
BRANCH  10  11
HETATM   11  O   UNL     1     -10.592  12.259  64.366  1.00  0.00    -0.287 OA 
BRANCH  11  12
HETATM   12  C   UNL     1     -10.442  11.220  65.246  1.00  0.00    -0.282 A  
HETATM   13  C   UNL     1      -9.776  10.025  64.977  1.00  0.00    -0.386 A  
HETATM   14  C   UNL     1      -9.724   9.015  65.942  1.00  0.00    -0.306 A  
HETATM   15  C   UNL     1     -10.312   9.190  67.200  1.00  0.00    -0.337 A  
HETATM   16  C   UNL     1     -10.956  10.402  67.474  1.00  0.00    -0.358 A  
HETATM   17  C   UNL     1     -11.017  11.409  66.503  1.00  0.00    -0.328 A  
BRANCH  15  18
HETATM   18  C   UNL     1     -10.281   8.078  68.221  1.00  0.00    -0.243 C  
BRANCH  18  19
HETATM   19  C   UNL     1      -9.493   8.448  69.478  1.00  0.00    -0.166 C  
BRANCH  19  20
HETATM   20  O   UNL     1      -8.208   8.954  69.109  1.00  0.00    -0.114 OA 
BRANCH  20  21
HETATM   21  C   UNL     1      -7.792   9.976  70.016  1.00  0.00    -0.158 C  
BRANCH  21  22
HETATM   22  C   UNL     1      -7.019  11.012  69.267  1.00  0.00    -0.116 C  
HETATM   23  C   UNL     1      -6.565  10.720  67.857  1.00  0.00    -0.063 C  
HETATM   24  C   UNL     1      -7.633  11.749  68.103  1.00  0.00    -0.117 C  
ENDBRANCH  21  22
ENDBRANCH  20  21
ENDBRANCH  19  20
ENDBRANCH  18  19
ENDBRANCH  15  18
ENDBRANCH  11  12
ENDBRANCH  10  11
ENDBRANCH   7  10
ENDBRANCH   6   7
ENDBRANCH   4   6
ENDBRANCH   2   4
TORSDOF 11
ENDMDL
MODEL       95
REMARK 921   NORMALIZED FREE ENERGY PREDICTED BY IDOCK:   -4.38 KCAL/MOL
REMARK 922        TOTAL FREE ENERGY PREDICTED BY IDOCK:   -8.53 KCAL/MOL
REMARK 923 INTER-LIGAND FREE ENERGY PREDICTED BY IDOCK:   -7.29 KCAL/MOL
REMARK 924 INTRA-LIGAND FREE ENERGY PREDICTED BY IDOCK:   -1.24 KCAL/MOL
REMARK 927      BINDING AFFINITY PREDICTED BY RF-SCORE:    0.00 PKD
ROOT
HETATM    1  C   UNL     1     -14.282  15.173  71.597  1.00  0.00    -0.664 C  
HETATM    2  C   UNL     1     -12.891  14.812  71.075  1.00  0.00    -0.352 C  
HETATM    3  C   UNL     1     -12.677  13.299  71.184  1.00  0.00    -0.404 C  
ENDROOT
BRANCH   2   4
HETATM    4  N   UNL     1     -12.680  15.199  69.674  1.00  0.00    -0.605 NA 
HETATM    5  H   UNL     1     -12.135  16.061  69.625  1.00  0.00     0.000 HD 
BRANCH   4   6
HETATM    6  C   UNL     1     -12.070  14.166  68.827  1.00  0.00    -0.291 C  
BRANCH   6   7
HETATM    7  C   UNL     1     -11.630  14.598  67.415  1.00  0.00    -0.389 C  
HETATM    8  O   UNL     1     -12.518  13.996  66.458  1.00  0.00    -0.469 OA 
HETATM    9  H   UNL     1     -12.247  14.262  65.587  1.00  0.00     0.000 HD 
BRANCH   7  10
HETATM   10  C   UNL     1     -10.192  14.171  67.105  1.00  0.00    -0.258 C  
BRANCH  10  11
HETATM   11  O   UNL     1     -10.225  12.833  66.578  1.00  0.00    -0.244 OA 
BRANCH  11  12
HETATM   12  C   UNL     1      -9.938  11.832  67.468  1.00  0.00    -0.192 A  
HETATM   13  C   UNL     1      -8.745  11.701  68.177  1.00  0.00    -0.159 A  
HETATM   14  C   UNL     1      -8.547  10.609  69.028  1.00  0.00    -0.150 A  
HETATM   15  C   UNL     1      -9.547   9.646  69.207  1.00  0.00    -0.190 A  
HETATM   16  C   UNL     1     -10.754   9.797  68.513  1.00  0.00    -0.252 A  
HETATM   17  C   UNL     1     -10.946  10.885  67.653  1.00  0.00    -0.350 A  
BRANCH  15  18
HETATM   18  C   UNL     1      -9.309   8.451  70.100  1.00  0.00    -0.164 C  
BRANCH  18  19
HETATM   19  C   UNL     1      -9.626   8.737  71.569  1.00  0.00    -0.284 C  
BRANCH  19  20
HETATM   20  O   UNL     1     -10.346   7.636  72.130  1.00  0.00    -0.204 OA 
BRANCH  20  21
HETATM   21  C   UNL     1     -11.725   7.703  71.765  1.00  0.00    -0.283 C  
BRANCH  21  22
HETATM   22  C   UNL     1     -12.304   8.984  72.271  1.00  0.00    -0.402 C  
HETATM   23  C   UNL     1     -13.193   9.802  71.366  1.00  0.00    -0.482 C  
HETATM   24  C   UNL     1     -13.778   9.108  72.565  1.00  0.00    -0.499 C  
ENDBRANCH  21  22
ENDBRANCH  20  21
ENDBRANCH  19  20
ENDBRANCH  18  19
ENDBRANCH  15  18
ENDBRANCH  11  12
ENDBRANCH  10  11
ENDBRANCH   7  10
ENDBRANCH   6   7
ENDBRANCH   4   6
ENDBRANCH   2   4
TORSDOF 11
ENDMDL
MODEL       96
REMARK 921   NORMALIZED FREE ENERGY PREDICTED BY IDOCK:   -4.36 KCAL/MOL
REMARK 922        TOTAL FREE ENERGY PREDICTED BY IDOCK:   -8.50 KCAL/MOL
REMARK 923 INTER-LIGAND FREE ENERGY PREDICTED BY IDOCK:   -6.92 KCAL/MOL
REMARK 924 INTRA-LIGAND FREE ENERGY PREDICTED BY IDOCK:   -1.59 KCAL/MOL
REMARK 927      BINDING AFFINITY PREDICTED BY RF-SCORE:    0.00 PKD
ROOT
HETATM    1  C   UNL     1      -8.666  17.210  66.644  1.00  0.00    -0.281 C  
HETATM    2  C   UNL     1      -9.280  15.833  66.388  1.00  0.00    -0.312 C  
HETATM    3  C   UNL     1      -8.504  14.770  67.173  1.00  0.00    -0.247 C  
ENDROOT
BRANCH   2   4
HETATM    4  N   UNL     1     -10.692  15.746  66.782  1.00  0.00    -0.313 NA 
HETATM    5  H   UNL     1     -11.125  16.669  66.748  1.00  0.00     0.000 HD 
BRANCH   4   6
HETATM    6  C   UNL     1     -11.494  14.782  66.016  1.00  0.00    -0.316 C  
BRANCH   6   7
HETATM    7  C   UNL     1     -12.188  13.666  66.820  1.00  0.00    -0.369 C  
HETATM    8  O   UNL     1     -12.532  14.183  68.116  1.00  0.00    -0.541 OA 
HETATM    9  H   UNL     1     -12.960  13.494  68.611  1.00  0.00     0.000 HD 
BRANCH   7  10
HETATM   10  C   UNL     1     -11.290  12.437  66.989  1.00  0.00    -0.327 C  
BRANCH  10  11
HETATM   11  O   UNL     1     -11.980  11.490  67.824  1.00  0.00    -0.623 OA 
BRANCH  11  12
HETATM   12  C   UNL     1     -11.223  10.877  68.787  1.00  0.00    -0.270 A  
HETATM   13  C   UNL     1      -9.860  10.598  68.686  1.00  0.00    -0.183 A  
HETATM   14  C   UNL     1      -9.200   9.927  69.719  1.00  0.00    -0.252 A  
HETATM   15  C   UNL     1      -9.881   9.548  70.882  1.00  0.00    -0.279 A  
HETATM   16  C   UNL     1     -11.243   9.855  70.990  1.00  0.00    -0.435 A  
HETATM   17  C   UNL     1     -11.906  10.517  69.950  1.00  0.00    -0.358 A  
BRANCH  15  18
HETATM   18  C   UNL     1      -9.166   8.791  71.976  1.00  0.00    -0.294 C  
BRANCH  18  19
HETATM   19  C   UNL     1     -10.027   7.691  72.597  1.00  0.00    -0.223 C  
BRANCH  19  20
HETATM   20  O   UNL     1      -9.889   6.486  71.840  1.00  0.00    -0.159 OA 
BRANCH  20  21
HETATM   21  C   UNL     1     -11.105   6.183  71.155  1.00  0.00    -0.298 C  
BRANCH  21  22
HETATM   22  C   UNL     1     -10.787   5.748  69.761  1.00  0.00    -0.419 C  
HETATM   23  C   UNL     1     -10.897   6.743  68.632  1.00  0.00    -0.277 C  
HETATM   24  C   UNL     1      -9.546   6.239  69.058  1.00  0.00    -0.138 C  
ENDBRANCH  21  22
ENDBRANCH  20  21
ENDBRANCH  19  20
ENDBRANCH  18  19
ENDBRANCH  15  18
ENDBRANCH  11  12
ENDBRANCH  10  11
ENDBRANCH   7  10
ENDBRANCH   6   7
ENDBRANCH   4   6
ENDBRANCH   2   4
TORSDOF 11
ENDMDL
MODEL       97
REMARK 921   NORMALIZED FREE ENERGY PREDICTED BY IDOCK:   -4.36 KCAL/MOL
REMARK 922        TOTAL FREE ENERGY PREDICTED BY IDOCK:   -8.49 KCAL/MOL
REMARK 923 INTER-LIGAND FREE ENERGY PREDICTED BY IDOCK:   -7.77 KCAL/MOL
REMARK 924 INTRA-LIGAND FREE ENERGY PREDICTED BY IDOCK:   -0.72 KCAL/MOL
REMARK 927      BINDING AFFINITY PREDICTED BY RF-SCORE:    0.00 PKD
ROOT
HETATM    1  C   UNL     1      -8.857  16.577  66.385  1.00  0.00    -0.345 C  
HETATM    2  C   UNL     1     -10.331  16.898  66.139  1.00  0.00    -0.320 C  
HETATM    3  C   UNL     1     -10.507  18.411  65.968  1.00  0.00    -0.400 C  
ENDROOT
BRANCH   2   4
HETATM    4  N   UNL     1     -10.875  16.242  64.942  1.00  0.00    -0.671 NA 
HETATM    5  H   UNL     1     -10.363  16.542  64.112  1.00  0.00     0.000 HD 
BRANCH   4   6
HETATM    6  C   UNL     1     -10.922  14.775  65.004  1.00  0.00    -0.414 C  
BRANCH   6   7
HETATM    7  C   UNL     1     -12.098  14.089  64.282  1.00  0.00    -0.445 C  
HETATM    8  O   UNL     1     -13.163  13.895  65.226  1.00  0.00    -0.774 OA 
HETATM    9  H   UNL     1     -13.888  13.472  64.781  1.00  0.00     0.000 HD 
BRANCH   7  10
HETATM   10  C   UNL     1     -11.696  12.734  63.691  1.00  0.00    -0.519 C  
BRANCH  10  11
HETATM   11  O   UNL     1     -10.314  12.497  64.014  1.00  0.00    -0.377 OA 
BRANCH  11  12
HETATM   12  C   UNL     1     -10.045  11.318  64.658  1.00  0.00    -0.290 A  
HETATM   13  C   UNL     1      -9.315  10.256  64.125  1.00  0.00    -0.336 A  
HETATM   14  C   UNL     1      -9.141   9.081  64.862  1.00  0.00    -0.132 A  
HETATM   15  C   UNL     1      -9.668   8.955  66.153  1.00  0.00    -0.338 A  
HETATM   16  C   UNL     1     -10.378  10.035  66.693  1.00  0.00    -0.281 A  
HETATM   17  C   UNL     1     -10.561  11.207  65.951  1.00  0.00    -0.294 A  
BRANCH  15  18
HETATM   18  C   UNL     1      -9.505   7.668  66.926  1.00  0.00    -0.222 C  
BRANCH  18  19
HETATM   19  C   UNL     1     -10.814   6.890  67.065  1.00  0.00    -0.366 C  
BRANCH  19  20
HETATM   20  O   UNL     1     -10.916   6.350  68.386  1.00  0.00    -0.287 OA 
BRANCH  20  21
HETATM   21  C   UNL     1     -10.709   7.372  69.362  1.00  0.00    -0.211 C  
BRANCH  21  22
HETATM   22  C   UNL     1     -10.021   6.782  70.549  1.00  0.00    -0.197 C  
HETATM   23  C   UNL     1     -10.758   5.790  71.414  1.00  0.00    -0.319 C  
HETATM   24  C   UNL     1      -9.605   5.332  70.566  1.00  0.00    -0.236 C  
ENDBRANCH  21  22
ENDBRANCH  20  21
ENDBRANCH  19  20
ENDBRANCH  18  19
ENDBRANCH  15  18
ENDBRANCH  11  12
ENDBRANCH  10  11
ENDBRANCH   7  10
ENDBRANCH   6   7
ENDBRANCH   4   6
ENDBRANCH   2   4
TORSDOF 11
ENDMDL
MODEL       98
REMARK 921   NORMALIZED FREE ENERGY PREDICTED BY IDOCK:   -4.33 KCAL/MOL
REMARK 922        TOTAL FREE ENERGY PREDICTED BY IDOCK:   -8.45 KCAL/MOL
REMARK 923 INTER-LIGAND FREE ENERGY PREDICTED BY IDOCK:   -7.00 KCAL/MOL
REMARK 924 INTRA-LIGAND FREE ENERGY PREDICTED BY IDOCK:   -1.45 KCAL/MOL
REMARK 927      BINDING AFFINITY PREDICTED BY RF-SCORE:    0.00 PKD
ROOT
HETATM    1  C   UNL     1     -10.852   6.446  67.840  1.00  0.00    -0.404 C  
HETATM    2  C   UNL     1     -11.363   6.104  69.240  1.00  0.00    -0.291 C  
HETATM    3  C   UNL     1     -10.346   5.207  69.954  1.00  0.00    -0.347 C  
ENDROOT
BRANCH   2   4
HETATM    4  N   UNL     1     -11.589   7.289  70.079  1.00  0.00    -0.510 NA 
HETATM    5  H   UNL     1     -12.476   7.203  70.576  1.00  0.00     0.000 HD 
BRANCH   4   6
HETATM    6  C   UNL     1     -10.507   7.600  71.021  1.00  0.00    -0.211 C  
BRANCH   6   7
HETATM    7  C   UNL     1      -9.604   8.797  70.668  1.00  0.00    -0.199 C  
HETATM    8  O   UNL     1      -8.880   9.186  71.847  1.00  0.00    -0.340 OA 
HETATM    9  H   UNL     1      -8.324   9.924  71.630  1.00  0.00     0.000 HD 
BRANCH   7  10
HETATM   10  C   UNL     1     -10.411   9.994  70.156  1.00  0.00    -0.284 C  
BRANCH  10  11
HETATM   11  O   UNL     1     -10.860   9.693  68.823  1.00  0.00    -0.219 OA 
BRANCH  11  12
HETATM   12  C   UNL     1     -11.056  10.770  68.000  1.00  0.00    -0.299 A  
HETATM   13  C   UNL     1     -10.644  10.856  66.670  1.00  0.00    -0.305 A  
HETATM   14  C   UNL     1     -10.861  12.027  65.939  1.00  0.00    -0.329 A  
HETATM   15  C   UNL     1     -11.517  13.123  66.513  1.00  0.00    -0.378 A  
HETATM   16  C   UNL     1     -11.953  13.021  67.840  1.00  0.00    -0.338 A  
HETATM   17  C   UNL     1     -11.726  11.852  68.575  1.00  0.00    -0.388 A  
BRANCH  15  18
HETATM   18  C   UNL     1     -11.715  14.397  65.726  1.00  0.00    -0.362 C  
BRANCH  18  19
HETATM   19  C   UNL     1     -10.439  14.864  65.023  1.00  0.00    -0.401 C  
BRANCH  19  20
HETATM   20  O   UNL     1      -9.971  16.073  65.627  1.00  0.00    -0.329 OA 
BRANCH  20  21
HETATM   21  C   UNL     1      -8.862  15.807  66.486  1.00  0.00    -0.310 C  
BRANCH  21  22
HETATM   22  C   UNL     1      -9.084  16.489  67.797  1.00  0.00    -0.204 C  
HETATM   23  C   UNL     1     -10.468  16.505  68.398  1.00  0.00    -0.307 C  
HETATM   24  C   UNL     1      -9.380  15.695  69.046  1.00  0.00    -0.243 C  
ENDBRANCH  21  22
ENDBRANCH  20  21
ENDBRANCH  19  20
ENDBRANCH  18  19
ENDBRANCH  15  18
ENDBRANCH  11  12
ENDBRANCH  10  11
ENDBRANCH   7  10
ENDBRANCH   6   7
ENDBRANCH   4   6
ENDBRANCH   2   4
TORSDOF 11
ENDMDL
MODEL       99
REMARK 921   NORMALIZED FREE ENERGY PREDICTED BY IDOCK:   -4.32 KCAL/MOL
REMARK 922        TOTAL FREE ENERGY PREDICTED BY IDOCK:   -8.44 KCAL/MOL
REMARK 923 INTER-LIGAND FREE ENERGY PREDICTED BY IDOCK:   -7.72 KCAL/MOL
REMARK 924 INTRA-LIGAND FREE ENERGY PREDICTED BY IDOCK:   -0.72 KCAL/MOL
REMARK 927      BINDING AFFINITY PREDICTED BY RF-SCORE:    0.00 PKD
ROOT
HETATM    1  C   UNL     1     -10.226   5.547  69.889  1.00  0.00    -0.338 C  
HETATM    2  C   UNL     1      -9.364   4.543  70.656  1.00  0.00    -0.155 C  
HETATM    3  C   UNL     1      -8.038   5.201  71.055  1.00  0.00    -0.103 C  
ENDROOT
BRANCH   2   4
HETATM    4  N   UNL     1     -10.006   4.043  71.879  1.00  0.00    -0.182 NA 
HETATM    5  H   UNL     1      -9.969   3.024  71.904  1.00  0.00     0.000 HD 
BRANCH   4   6
HETATM    6  C   UNL     1      -9.480   4.601  73.131  1.00  0.00    -0.124 C  
BRANCH   6   7
HETATM    7  C   UNL     1     -10.389   5.591  73.885  1.00  0.00    -0.261 C  
HETATM    8  O   UNL     1     -11.757   5.275  73.580  1.00  0.00    -0.419 OA 
HETATM    9  H   UNL     1     -12.318   5.885  74.044  1.00  0.00     0.000 HD 
BRANCH   7  10
HETATM   10  C   UNL     1     -10.107   7.044  73.491  1.00  0.00    -0.310 C  
BRANCH  10  11
HETATM   11  O   UNL     1     -11.368   7.718  73.334  1.00  0.00    -0.287 OA 
BRANCH  11  12
HETATM   12  C   UNL     1     -11.445   8.609  72.296  1.00  0.00    -0.353 A  
HETATM   13  C   UNL     1     -10.377   9.003  71.490  1.00  0.00    -0.412 A  
HETATM   14  C   UNL     1     -10.567   9.955  70.485  1.00  0.00    -0.359 A  
HETATM   15  C   UNL     1     -11.830  10.512  70.250  1.00  0.00    -0.418 A  
HETATM   16  C   UNL     1     -12.904  10.093  71.045  1.00  0.00    -0.474 A  
HETATM   17  C   UNL     1     -12.711   9.147  72.058  1.00  0.00    -0.473 A  
BRANCH  15  18
HETATM   18  C   UNL     1     -12.016  11.567  69.186  1.00  0.00    -0.386 C  
BRANCH  18  19
HETATM   19  C   UNL     1     -11.875  12.990  69.730  1.00  0.00    -0.311 C  
BRANCH  19  20
HETATM   20  O   UNL     1     -12.368  13.044  71.071  1.00  0.00    -0.355 OA 
BRANCH  20  21
HETATM   21  C   UNL     1     -13.292  14.123  71.221  1.00  0.00    -0.302 C  
BRANCH  21  22
HETATM   22  C   UNL     1     -13.419  14.460  72.671  1.00  0.00    -0.605 C  
HETATM   23  C   UNL     1     -12.174  14.733  73.479  1.00  0.00    -0.416 C  
HETATM   24  C   UNL     1     -13.130  15.853  73.174  1.00  0.00    -0.673 C  
ENDBRANCH  21  22
ENDBRANCH  20  21
ENDBRANCH  19  20
ENDBRANCH  18  19
ENDBRANCH  15  18
ENDBRANCH  11  12
ENDBRANCH  10  11
ENDBRANCH   7  10
ENDBRANCH   6   7
ENDBRANCH   4   6
ENDBRANCH   2   4
TORSDOF 11
ENDMDL
MODEL      100
REMARK 921   NORMALIZED FREE ENERGY PREDICTED BY IDOCK:   -4.32 KCAL/MOL
REMARK 922        TOTAL FREE ENERGY PREDICTED BY IDOCK:   -8.43 KCAL/MOL
REMARK 923 INTER-LIGAND FREE ENERGY PREDICTED BY IDOCK:   -7.52 KCAL/MOL
REMARK 924 INTRA-LIGAND FREE ENERGY PREDICTED BY IDOCK:   -0.92 KCAL/MOL
REMARK 927      BINDING AFFINITY PREDICTED BY RF-SCORE:    0.00 PKD
ROOT
HETATM    1  C   UNL     1     -13.250  15.328  70.920  1.00  0.00    -0.506 C  
HETATM    2  C   UNL     1     -12.129  14.708  70.085  1.00  0.00    -0.327 C  
HETATM    3  C   UNL     1     -12.135  13.186  70.264  1.00  0.00    -0.399 C  
ENDROOT
BRANCH   2   4
HETATM    4  N   UNL     1     -12.251  14.995  68.649  1.00  0.00    -0.593 NA 
HETATM    5  H   UNL     1     -11.604  15.737  68.383  1.00  0.00     0.000 HD 
BRANCH   4   6
HETATM    6  C   UNL     1     -12.080  13.834  67.766  1.00  0.00    -0.290 C  
BRANCH   6   7
HETATM    7  C   UNL     1     -11.666  14.126  66.310  1.00  0.00    -0.390 C  
HETATM    8  O   UNL     1     -12.836  14.054  65.480  1.00  0.00    -0.615 OA 
HETATM    9  H   UNL     1     -12.581  14.234  64.583  1.00  0.00     0.000 HD 
BRANCH   7  10
HETATM   10  C   UNL     1     -10.623  13.127  65.799  1.00  0.00    -0.282 C  
BRANCH  10  11
HETATM   11  O   UNL     1     -11.289  11.878  65.542  1.00  0.00    -0.322 OA 
BRANCH  11  12
HETATM   12  C   UNL     1     -10.798  10.789  66.213  1.00  0.00    -0.073 A  
HETATM   13  C   UNL     1      -9.990   9.797  65.659  1.00  0.00    -0.352 A  
HETATM   14  C   UNL     1      -9.584   8.706  66.432  1.00  0.00    -0.316 A  
HETATM   15  C   UNL     1      -9.955   8.599  67.778  1.00  0.00    -0.240 A  
HETATM   16  C   UNL     1     -10.744   9.612  68.336  1.00  0.00    -0.251 A  
HETATM   17  C   UNL     1     -11.159  10.699  67.558  1.00  0.00    -0.367 A  
BRANCH  15  18
HETATM   18  C   UNL     1      -9.541   7.397  68.594  1.00  0.00    -0.146 C  
BRANCH  18  19
HETATM   19  C   UNL     1     -10.544   6.247  68.507  1.00  0.00    -0.262 C  
BRANCH  19  20
HETATM   20  O   UNL     1     -11.657   6.511  69.365  1.00  0.00    -0.339 OA 
BRANCH  20  21
HETATM   21  C   UNL     1     -11.341   6.170  70.715  1.00  0.00    -0.295 C  
BRANCH  21  22
HETATM   22  C   UNL     1     -12.079   7.085  71.637  1.00  0.00    -0.384 C  
HETATM   23  C   UNL     1     -11.318   8.153  72.384  1.00  0.00    -0.456 C  
HETATM   24  C   UNL     1     -12.277   8.540  71.293  1.00  0.00    -0.310 C  
ENDBRANCH  21  22
ENDBRANCH  20  21
ENDBRANCH  19  20
ENDBRANCH  18  19
ENDBRANCH  15  18
ENDBRANCH  11  12
ENDBRANCH  10  11
ENDBRANCH   7  10
ENDBRANCH   6   7
ENDBRANCH   4   6
ENDBRANCH   2   4
TORSDOF 11
ENDMDL
MODEL      101
REMARK 921   NORMALIZED FREE ENERGY PREDICTED BY IDOCK:   -4.31 KCAL/MOL
REMARK 922        TOTAL FREE ENERGY PREDICTED BY IDOCK:   -8.41 KCAL/MOL
REMARK 923 INTER-LIGAND FREE ENERGY PREDICTED BY IDOCK:   -7.30 KCAL/MOL
REMARK 924 INTRA-LIGAND FREE ENERGY PREDICTED BY IDOCK:   -1.12 KCAL/MOL
REMARK 927      BINDING AFFINITY PREDICTED BY RF-SCORE:    0.00 PKD
ROOT
HETATM    1  C   UNL     1      -8.440  10.669  64.943  1.00  0.00    -0.116 C  
HETATM    2  C   UNL     1      -9.716   9.937  65.359  1.00  0.00    -0.306 C  
HETATM    3  C   UNL     1      -9.524   9.314  66.746  1.00  0.00    -0.228 C  
ENDROOT
BRANCH   2   4
HETATM    4  N   UNL     1     -10.894  10.813  65.415  1.00  0.00    -0.072 NA 
HETATM    5  H   UNL     1     -10.913  11.321  66.300  1.00  0.00     0.000 HD 
BRANCH   4   6
HETATM    6  C   UNL     1     -11.029  11.748  64.291  1.00  0.00    -0.359 C  
BRANCH   6   7
HETATM    7  C   UNL     1     -12.315  12.596  64.246  1.00  0.00    -0.435 C  
HETATM    8  O   UNL     1     -12.216  13.515  63.146  1.00  0.00    -0.927 OA 
HETATM    9  H   UNL     1     -13.009  14.038  63.118  1.00  0.00     0.000 HD 
BRANCH   7  10
HETATM   10  C   UNL     1     -12.530  13.383  65.542  1.00  0.00    -0.483 C  
BRANCH  10  11
HETATM   11  O   UNL     1     -11.241  13.646  66.125  1.00  0.00    -0.298 OA 
BRANCH  11  12
HETATM   12  C   UNL     1     -10.967  14.959  66.403  1.00  0.00    -0.336 A  
HETATM   13  C   UNL     1     -10.522  15.904  65.479  1.00  0.00    -0.425 A  
HETATM   14  C   UNL     1     -10.232  17.208  65.889  1.00  0.00    -0.290 A  
HETATM   15  C   UNL     1     -10.407  17.600  67.222  1.00  0.00    -0.354 A  
HETATM   16  C   UNL     1     -10.880  16.654  68.140  1.00  0.00    -0.348 A  
HETATM   17  C   UNL     1     -11.160  15.345  67.731  1.00  0.00    -0.320 A  
BRANCH  15  18
HETATM   18  C   UNL     1     -10.057  19.002  67.662  1.00  0.00    -0.448 C  
BRANCH  18  19
HETATM   19  C   UNL     1      -8.770  19.060  68.487  1.00  0.00    -0.357 C  
BRANCH  19  20
HETATM   20  O   UNL     1      -7.752  18.285  67.849  1.00  0.00    -0.234 OA 
BRANCH  20  21
HETATM   21  C   UNL     1      -6.748  19.135  67.294  1.00  0.00    -0.194 C  
BRANCH  21  22
HETATM   22  C   UNL     1      -6.754  18.993  65.807  1.00  0.00    -0.304 C  
HETATM   23  C   UNL     1      -6.869  20.228  64.946  1.00  0.00    -0.231 C  
HETATM   24  C   UNL     1      -5.580  19.454  64.978  1.00  0.00    -0.231 C  
ENDBRANCH  21  22
ENDBRANCH  20  21
ENDBRANCH  19  20
ENDBRANCH  18  19
ENDBRANCH  15  18
ENDBRANCH  11  12
ENDBRANCH  10  11
ENDBRANCH   7  10
ENDBRANCH   6   7
ENDBRANCH   4   6
ENDBRANCH   2   4
TORSDOF 11
ENDMDL
MODEL      102
REMARK 921   NORMALIZED FREE ENERGY PREDICTED BY IDOCK:   -4.30 KCAL/MOL
REMARK 922        TOTAL FREE ENERGY PREDICTED BY IDOCK:   -8.40 KCAL/MOL
REMARK 923 INTER-LIGAND FREE ENERGY PREDICTED BY IDOCK:   -7.31 KCAL/MOL
REMARK 924 INTRA-LIGAND FREE ENERGY PREDICTED BY IDOCK:   -1.08 KCAL/MOL
REMARK 927      BINDING AFFINITY PREDICTED BY RF-SCORE:    0.00 PKD
ROOT
HETATM    1  C   UNL     1      -7.997  15.833  67.292  1.00  0.00    -0.216 C  
HETATM    2  C   UNL     1      -9.034  14.905  66.659  1.00  0.00    -0.270 C  
HETATM    3  C   UNL     1      -8.984  13.534  67.343  1.00  0.00    -0.219 C  
ENDROOT
BRANCH   2   4
HETATM    4  N   UNL     1     -10.409  15.414  66.766  1.00  0.00    -0.272 NA 
HETATM    5  H   UNL     1     -11.066  14.638  66.843  1.00  0.00     0.000 HD 
BRANCH   4   6
HETATM    6  C   UNL     1     -10.633  16.377  67.852  1.00  0.00    -0.320 C  
BRANCH   6   7
HETATM    7  C   UNL     1     -11.729  16.024  68.876  1.00  0.00    -0.319 C  
HETATM    8  O   UNL     1     -11.339  16.542  70.158  1.00  0.00    -0.439 OA 
HETATM    9  H   UNL     1     -12.015  16.324  70.789  1.00  0.00     0.000 HD 
BRANCH   7  10
HETATM   10  C   UNL     1     -11.945  14.511  68.987  1.00  0.00    -0.299 C  
BRANCH  10  11
HETATM   11  O   UNL     1     -12.054  14.177  70.382  1.00  0.00    -0.303 OA 
BRANCH  11  12
HETATM   12  C   UNL     1     -12.324  12.863  70.663  1.00  0.00    -0.302 A  
HETATM   13  C   UNL     1     -13.089  12.408  71.736  1.00  0.00    -0.446 A  
HETATM   14  C   UNL     1     -13.261  11.037  71.948  1.00  0.00    -0.503 A  
HETATM   15  C   UNL     1     -12.693  10.098  71.079  1.00  0.00    -0.481 A  
HETATM   16  C   UNL     1     -11.948  10.561  69.988  1.00  0.00    -0.367 A  
HETATM   17  C   UNL     1     -11.768  11.934  69.782  1.00  0.00    -0.403 A  
BRANCH  15  18
HETATM   18  C   UNL     1     -12.854   8.619  71.338  1.00  0.00    -0.294 C  
BRANCH  18  19
HETATM   19  C   UNL     1     -11.836   8.078  72.343  1.00  0.00    -0.372 C  
BRANCH  19  20
HETATM   20  O   UNL     1     -10.894   7.239  71.670  1.00  0.00    -0.220 OA 
BRANCH  20  21
HETATM   21  C   UNL     1     -11.520   6.551  70.587  1.00  0.00    -0.374 C  
BRANCH  21  22
HETATM   22  C   UNL     1     -10.548   6.426  69.459  1.00  0.00    -0.308 C  
HETATM   23  C   UNL     1     -11.063   6.363  68.042  1.00  0.00    -0.365 C  
HETATM   24  C   UNL     1     -10.306   7.574  68.511  1.00  0.00    -0.224 C  
ENDBRANCH  21  22
ENDBRANCH  20  21
ENDBRANCH  19  20
ENDBRANCH  18  19
ENDBRANCH  15  18
ENDBRANCH  11  12
ENDBRANCH  10  11
ENDBRANCH   7  10
ENDBRANCH   6   7
ENDBRANCH   4   6
ENDBRANCH   2   4
TORSDOF 11
ENDMDL
MODEL      103
REMARK 921   NORMALIZED FREE ENERGY PREDICTED BY IDOCK:   -4.29 KCAL/MOL
REMARK 922        TOTAL FREE ENERGY PREDICTED BY IDOCK:   -8.37 KCAL/MOL
REMARK 923 INTER-LIGAND FREE ENERGY PREDICTED BY IDOCK:   -7.48 KCAL/MOL
REMARK 924 INTRA-LIGAND FREE ENERGY PREDICTED BY IDOCK:   -0.89 KCAL/MOL
REMARK 927      BINDING AFFINITY PREDICTED BY RF-SCORE:    0.00 PKD
ROOT
HETATM    1  C   UNL     1      -7.611  16.996  66.449  1.00  0.00    -0.350 C  
HETATM    2  C   UNL     1      -7.931  15.641  67.081  1.00  0.00    -0.219 C  
HETATM    3  C   UNL     1      -7.241  15.533  68.445  1.00  0.00    -0.114 C  
ENDROOT
BRANCH   2   4
HETATM    4  N   UNL     1      -9.370  15.422  67.283  1.00  0.00    -0.207 NA 
HETATM    5  H   UNL     1      -9.536  14.998  68.196  1.00  0.00     0.000 HD 
BRANCH   4   6
HETATM    6  C   UNL     1     -10.210  16.616  67.119  1.00  0.00    -0.290 C  
BRANCH   6   7
HETATM    7  C   UNL     1     -10.780  17.244  68.405  1.00  0.00    -0.332 C  
HETATM    8  O   UNL     1     -10.038  18.440  68.695  1.00  0.00    -0.369 OA 
HETATM    9  H   UNL     1     -10.390  18.828  69.488  1.00  0.00     0.000 HD 
BRANCH   7  10
HETATM   10  C   UNL     1     -10.685  16.291  69.601  1.00  0.00    -0.338 C  
BRANCH  10  11
HETATM   11  O   UNL     1     -12.007  16.118  70.141  1.00  0.00    -0.254 OA 
BRANCH  11  12
HETATM   12  C   UNL     1     -12.312  14.859  70.586  1.00  0.00    -0.344 A  
HETATM   13  C   UNL     1     -13.081  14.564  71.711  1.00  0.00    -0.421 A  
HETATM   14  C   UNL     1     -13.290  13.236  72.094  1.00  0.00    -0.618 A  
HETATM   15  C   UNL     1     -12.757  12.179  71.347  1.00  0.00    -0.368 A  
HETATM   16  C   UNL     1     -12.007  12.480  70.203  1.00  0.00    -0.377 A  
HETATM   17  C   UNL     1     -11.790  13.810  69.826  1.00  0.00    -0.394 A  
BRANCH  15  18
HETATM   18  C   UNL     1     -12.958  10.749  71.790  1.00  0.00    -0.568 C  
BRANCH  18  19
HETATM   19  C   UNL     1     -12.479   9.733  70.752  1.00  0.00    -0.213 C  
BRANCH  19  20
HETATM   20  O   UNL     1     -12.693   8.407  71.242  1.00  0.00    -0.285 OA 
BRANCH  20  21
HETATM   21  C   UNL     1     -12.151   8.264  72.555  1.00  0.00    -0.337 C  
BRANCH  21  22
HETATM   22  C   UNL     1     -10.874   7.492  72.477  1.00  0.00    -0.349 C  
HETATM   23  C   UNL     1      -9.577   8.169  72.846  1.00  0.00    -0.345 C  
HETATM   24  C   UNL     1     -10.134   7.085  73.726  1.00  0.00    -0.390 C  
ENDBRANCH  21  22
ENDBRANCH  20  21
ENDBRANCH  19  20
ENDBRANCH  18  19
ENDBRANCH  15  18
ENDBRANCH  11  12
ENDBRANCH  10  11
ENDBRANCH   7  10
ENDBRANCH   6   7
ENDBRANCH   4   6
ENDBRANCH   2   4
TORSDOF 11
ENDMDL
MODEL      104
REMARK 921   NORMALIZED FREE ENERGY PREDICTED BY IDOCK:   -4.27 KCAL/MOL
REMARK 922        TOTAL FREE ENERGY PREDICTED BY IDOCK:   -8.36 KCAL/MOL
REMARK 923 INTER-LIGAND FREE ENERGY PREDICTED BY IDOCK:   -7.64 KCAL/MOL
REMARK 924 INTRA-LIGAND FREE ENERGY PREDICTED BY IDOCK:   -0.72 KCAL/MOL
REMARK 927      BINDING AFFINITY PREDICTED BY RF-SCORE:    0.00 PKD
ROOT
HETATM    1  C   UNL     1     -10.398   6.000  67.970  1.00  0.00    -0.250 C  
HETATM    2  C   UNL     1     -11.156   6.313  69.261  1.00  0.00    -0.393 C  
HETATM    3  C   UNL     1     -10.407   5.713  70.456  1.00  0.00    -0.327 C  
ENDROOT
BRANCH   2   4
HETATM    4  N   UNL     1     -11.314   7.754  69.504  1.00  0.00    -0.437 NA 
HETATM    5  H   UNL     1     -11.211   7.956  70.498  1.00  0.00     0.000 HD 
BRANCH   4   6
HETATM    6  C   UNL     1     -10.427   8.619  68.716  1.00  0.00    -0.185 C  
BRANCH   6   7
HETATM    7  C   UNL     1     -10.819  10.106  68.616  1.00  0.00    -0.235 C  
HETATM    8  O   UNL     1     -12.035  10.307  69.356  1.00  0.00    -0.494 OA 
HETATM    9  H   UNL     1     -12.277  11.224  69.294  1.00  0.00     0.000 HD 
BRANCH   7  10
HETATM   10  C   UNL     1     -11.035  10.546  67.165  1.00  0.00    -0.228 C  
BRANCH  10  11
HETATM   11  O   UNL     1     -12.023  11.591  67.156  1.00  0.00    -0.581 OA 
BRANCH  11  12
HETATM   12  C   UNL     1     -11.593  12.818  66.724  1.00  0.00    -0.370 A  
HETATM   13  C   UNL     1     -11.362  13.170  65.394  1.00  0.00    -0.323 A  
HETATM   14  C   UNL     1     -10.880  14.443  65.076  1.00  0.00    -0.420 A  
HETATM   15  C   UNL     1     -10.646  15.395  66.075  1.00  0.00    -0.330 A  
HETATM   16  C   UNL     1     -10.906  15.045  67.406  1.00  0.00    -0.305 A  
HETATM   17  C   UNL     1     -11.378  13.767  67.725  1.00  0.00    -0.331 A  
BRANCH  15  18
HETATM   18  C   UNL     1     -10.091  16.755  65.723  1.00  0.00    -0.276 C  
BRANCH  18  19
HETATM   19  C   UNL     1      -8.593  16.875  66.003  1.00  0.00    -0.159 C  
BRANCH  19  20
HETATM   20  O   UNL     1      -8.212  18.253  66.008  1.00  0.00    -0.479 OA 
BRANCH  20  21
HETATM   21  C   UNL     1      -8.246  18.778  67.336  1.00  0.00    -0.263 C  
BRANCH  21  22
HETATM   22  C   UNL     1      -8.903  20.119  67.315  1.00  0.00    -0.445 C  
HETATM   23  C   UNL     1     -10.031  20.376  66.346  1.00  0.00    -0.402 C  
HETATM   24  C   UNL     1     -10.312  20.302  67.821  1.00  0.00    -0.408 C  
ENDBRANCH  21  22
ENDBRANCH  20  21
ENDBRANCH  19  20
ENDBRANCH  18  19
ENDBRANCH  15  18
ENDBRANCH  11  12
ENDBRANCH  10  11
ENDBRANCH   7  10
ENDBRANCH   6   7
ENDBRANCH   4   6
ENDBRANCH   2   4
TORSDOF 11
ENDMDL
MODEL      105
REMARK 921   NORMALIZED FREE ENERGY PREDICTED BY IDOCK:   -4.27 KCAL/MOL
REMARK 922        TOTAL FREE ENERGY PREDICTED BY IDOCK:   -8.36 KCAL/MOL
REMARK 923 INTER-LIGAND FREE ENERGY PREDICTED BY IDOCK:   -6.87 KCAL/MOL
REMARK 924 INTRA-LIGAND FREE ENERGY PREDICTED BY IDOCK:   -1.48 KCAL/MOL
REMARK 927      BINDING AFFINITY PREDICTED BY RF-SCORE:    0.00 PKD
ROOT
HETATM    1  C   UNL     1     -10.741  11.579  64.945  1.00  0.00    -0.357 C  
HETATM    2  C   UNL     1     -10.685  11.123  66.404  1.00  0.00    -0.247 C  
HETATM    3  C   UNL     1      -9.342  11.530  67.020  1.00  0.00    -0.185 C  
ENDROOT
BRANCH   2   4
HETATM    4  N   UNL     1     -11.754  11.698  67.232  1.00  0.00    -0.611 NA 
HETATM    5  H   UNL     1     -12.269  10.956  67.707  1.00  0.00     0.000 HD 
BRANCH   4   6
HETATM    6  C   UNL     1     -11.316  12.711  68.200  1.00  0.00    -0.290 C  
BRANCH   6   7
HETATM    7  C   UNL     1     -11.904  14.126  68.038  1.00  0.00    -0.365 C  
HETATM    8  O   UNL     1     -12.674  14.162  66.825  1.00  0.00    -0.510 OA 
HETATM    9  H   UNL     1     -13.037  15.034  66.725  1.00  0.00     0.000 HD 
BRANCH   7  10
HETATM   10  C   UNL     1     -10.812  15.198  67.974  1.00  0.00    -0.284 C  
BRANCH  10  11
HETATM   11  O   UNL     1     -11.423  16.474  68.235  1.00  0.00    -0.283 OA 
BRANCH  11  12
HETATM   12  C   UNL     1     -10.677  17.574  67.900  1.00  0.00    -0.339 A  
HETATM   13  C   UNL     1     -10.661  18.187  66.647  1.00  0.00    -0.296 A  
HETATM   14  C   UNL     1      -9.824  19.281  66.409  1.00  0.00    -0.455 A  
HETATM   15  C   UNL     1      -9.009  19.798  67.424  1.00  0.00    -0.402 A  
HETATM   16  C   UNL     1      -9.050  19.195  68.687  1.00  0.00    -0.414 A  
HETATM   17  C   UNL     1      -9.880  18.093  68.921  1.00  0.00    -0.322 A  
BRANCH  15  18
HETATM   18  C   UNL     1      -8.082  20.958  67.145  1.00  0.00    -0.161 C  
BRANCH  18  19
HETATM   19  C   UNL     1      -6.640  20.680  67.572  1.00  0.00    -0.309 C  
BRANCH  19  20
HETATM   20  O   UNL     1      -6.041  19.747  66.670  1.00  0.00    -0.169 OA 
BRANCH  20  21
HETATM   21  C   UNL     1      -5.499  18.636  67.385  1.00  0.00    -0.146 C  
BRANCH  21  22
HETATM   22  C   UNL     1      -5.764  17.382  66.617  1.00  0.00    -0.232 C  
HETATM   23  C   UNL     1      -6.196  16.140  67.357  1.00  0.00    -0.200 C  
HETATM   24  C   UNL     1      -7.167  16.852  66.456  1.00  0.00    -0.297 C  
ENDBRANCH  21  22
ENDBRANCH  20  21
ENDBRANCH  19  20
ENDBRANCH  18  19
ENDBRANCH  15  18
ENDBRANCH  11  12
ENDBRANCH  10  11
ENDBRANCH   7  10
ENDBRANCH   6   7
ENDBRANCH   4   6
ENDBRANCH   2   4
TORSDOF 11
ENDMDL
MODEL      106
REMARK 921   NORMALIZED FREE ENERGY PREDICTED BY IDOCK:   -4.27 KCAL/MOL
REMARK 922        TOTAL FREE ENERGY PREDICTED BY IDOCK:   -8.35 KCAL/MOL
REMARK 923 INTER-LIGAND FREE ENERGY PREDICTED BY IDOCK:   -7.49 KCAL/MOL
REMARK 924 INTRA-LIGAND FREE ENERGY PREDICTED BY IDOCK:   -0.87 KCAL/MOL
REMARK 927      BINDING AFFINITY PREDICTED BY RF-SCORE:    0.00 PKD
ROOT
HETATM    1  C   UNL     1     -12.252  14.364  64.377  1.00  0.00    -0.481 C  
HETATM    2  C   UNL     1     -12.465  12.933  64.872  1.00  0.00    -0.478 C  
HETATM    3  C   UNL     1     -12.472  11.971  63.680  1.00  0.00    -0.637 C  
ENDROOT
BRANCH   2   4
HETATM    4  N   UNL     1     -11.427  12.484  65.810  1.00  0.00    -0.346 NA 
HETATM    5  H   UNL     1     -11.210  11.500  65.650  1.00  0.00     0.000 HD 
BRANCH   4   6
HETATM    6  C   UNL     1     -10.194  13.282  65.802  1.00  0.00    -0.292 C  
BRANCH   6   7
HETATM    7  C   UNL     1      -9.345  13.259  67.088  1.00  0.00    -0.240 C  
HETATM    8  O   UNL     1      -7.967  13.447  66.728  1.00  0.00    -0.393 OA 
HETATM    9  H   UNL     1      -7.444  13.433  67.521  1.00  0.00     0.000 HD 
BRANCH   7  10
HETATM   10  C   UNL     1      -9.491  11.937  67.848  1.00  0.00    -0.194 C  
BRANCH  10  11
HETATM   11  O   UNL     1     -10.769  11.939  68.509  1.00  0.00    -0.208 OA 
BRANCH  11  12
HETATM   12  C   UNL     1     -10.947  10.981  69.472  1.00  0.00    -0.243 A  
HETATM   13  C   UNL     1      -9.980  10.065  69.886  1.00  0.00    -0.280 A  
HETATM   14  C   UNL     1     -10.291   9.100  70.849  1.00  0.00    -0.349 A  
HETATM   15  C   UNL     1     -11.562   9.050  71.434  1.00  0.00    -0.396 A  
HETATM   16  C   UNL     1     -12.520   9.990  71.034  1.00  0.00    -0.460 A  
HETATM   17  C   UNL     1     -12.211  10.948  70.062  1.00  0.00    -0.422 A  
BRANCH  15  18
HETATM   18  C   UNL     1     -11.898   7.981  72.447  1.00  0.00    -0.429 C  
BRANCH  18  19
HETATM   19  C   UNL     1     -12.255   6.642  71.801  1.00  0.00    -0.353 C  
BRANCH  19  20
HETATM   20  O   UNL     1     -11.178   5.718  71.980  1.00  0.00    -0.265 OA 
BRANCH  20  21
HETATM   21  C   UNL     1     -10.517   5.954  73.223  1.00  0.00    -0.235 C  
BRANCH  21  22
HETATM   22  C   UNL     1     -10.675   4.753  74.097  1.00  0.00    -0.329 C  
HETATM   23  C   UNL     1     -11.125   3.448  73.486  1.00  0.00    -0.317 C  
HETATM   24  C   UNL     1      -9.719   3.590  73.999  1.00  0.00    -0.142 C  
ENDBRANCH  21  22
ENDBRANCH  20  21
ENDBRANCH  19  20
ENDBRANCH  18  19
ENDBRANCH  15  18
ENDBRANCH  11  12
ENDBRANCH  10  11
ENDBRANCH   7  10
ENDBRANCH   6   7
ENDBRANCH   4   6
ENDBRANCH   2   4
TORSDOF 11
ENDMDL
MODEL      107
REMARK 921   NORMALIZED FREE ENERGY PREDICTED BY IDOCK:   -4.27 KCAL/MOL
REMARK 922        TOTAL FREE ENERGY PREDICTED BY IDOCK:   -8.35 KCAL/MOL
REMARK 923 INTER-LIGAND FREE ENERGY PREDICTED BY IDOCK:   -7.13 KCAL/MOL
REMARK 924 INTRA-LIGAND FREE ENERGY PREDICTED BY IDOCK:   -1.22 KCAL/MOL
REMARK 927      BINDING AFFINITY PREDICTED BY RF-SCORE:    0.00 PKD
ROOT
HETATM    1  C   UNL     1     -10.398  15.770  69.842  1.00  0.00    -0.313 C  
HETATM    2  C   UNL     1     -11.546  15.322  68.936  1.00  0.00    -0.347 C  
HETATM    3  C   UNL     1     -11.101  14.122  68.095  1.00  0.00    -0.276 C  
ENDROOT
BRANCH   2   4
HETATM    4  N   UNL     1     -12.752  14.931  69.680  1.00  0.00    -0.593 NA 
HETATM    5  H   UNL     1     -12.772  13.920  69.810  1.00  0.00     0.000 HD 
BRANCH   4   6
HETATM    6  C   UNL     1     -12.936  15.612  70.968  1.00  0.00    -0.458 C  
BRANCH   6   7
HETATM    7  C   UNL     1     -13.769  14.869  72.031  1.00  0.00    -0.435 C  
HETATM    8  O   UNL     1     -14.014  15.766  73.127  1.00  0.00    -0.631 OA 
HETATM    9  H   UNL     1     -14.527  15.308  73.782  1.00  0.00     0.000 HD 
BRANCH   7  10
HETATM   10  C   UNL     1     -13.051  13.620  72.553  1.00  0.00    -0.388 C  
BRANCH  10  11
HETATM   11  O   UNL     1     -13.835  12.470  72.191  1.00  0.00    -0.343 OA 
BRANCH  11  12
HETATM   12  C   UNL     1     -13.133  11.390  71.725  1.00  0.00    -0.418 A  
HETATM   13  C   UNL     1     -13.236  10.088  72.214  1.00  0.00    -0.401 A  
HETATM   14  C   UNL     1     -12.434   9.072  71.687  1.00  0.00    -0.418 A  
HETATM   15  C   UNL     1     -11.536   9.331  70.644  1.00  0.00    -0.327 A  
HETATM   16  C   UNL     1     -11.457  10.635  70.139  1.00  0.00    -0.411 A  
HETATM   17  C   UNL     1     -12.252  11.654  70.675  1.00  0.00    -0.461 A  
BRANCH  15  18
HETATM   18  C   UNL     1     -10.648   8.234  70.107  1.00  0.00    -0.233 C  
BRANCH  18  19
HETATM   19  C   UNL     1     -10.520   8.267  68.583  1.00  0.00    -0.168 C  
BRANCH  19  20
HETATM   20  O   UNL     1      -9.147   8.120  68.212  1.00  0.00    -0.136 OA 
BRANCH  20  21
HETATM   21  C   UNL     1      -8.386   7.601  69.303  1.00  0.00    -0.134 C  
BRANCH  21  22
HETATM   22  C   UNL     1      -7.119   8.383  69.432  1.00  0.00    -0.054 C  
HETATM   23  C   UNL     1      -7.066   9.797  68.907  1.00  0.00    -0.067 C  
HETATM   24  C   UNL     1      -7.018   9.545  70.389  1.00  0.00    -0.112 C  
ENDBRANCH  21  22
ENDBRANCH  20  21
ENDBRANCH  19  20
ENDBRANCH  18  19
ENDBRANCH  15  18
ENDBRANCH  11  12
ENDBRANCH  10  11
ENDBRANCH   7  10
ENDBRANCH   6   7
ENDBRANCH   4   6
ENDBRANCH   2   4
TORSDOF 11
ENDMDL
MODEL      108
REMARK 921   NORMALIZED FREE ENERGY PREDICTED BY IDOCK:   -4.26 KCAL/MOL
REMARK 922        TOTAL FREE ENERGY PREDICTED BY IDOCK:   -8.34 KCAL/MOL
REMARK 923 INTER-LIGAND FREE ENERGY PREDICTED BY IDOCK:   -7.35 KCAL/MOL
REMARK 924 INTRA-LIGAND FREE ENERGY PREDICTED BY IDOCK:   -0.98 KCAL/MOL
REMARK 927      BINDING AFFINITY PREDICTED BY RF-SCORE:    0.00 PKD
ROOT
HETATM    1  C   UNL     1     -10.334  19.997  65.939  1.00  0.00    -0.529 C  
HETATM    2  C   UNL     1      -9.569  20.337  67.219  1.00  0.00    -0.444 C  
HETATM    3  C   UNL     1     -10.318  19.772  68.431  1.00  0.00    -0.513 C  
ENDROOT
BRANCH   2   4
HETATM    4  N   UNL     1      -8.204  19.796  67.238  1.00  0.00    -0.294 NA 
HETATM    5  H   UNL     1      -7.589  20.410  67.773  1.00  0.00     0.000 HD 
BRANCH   4   6
HETATM    6  C   UNL     1      -8.088  18.415  67.726  1.00  0.00    -0.254 C  
BRANCH   6   7
HETATM    7  C   UNL     1      -7.798  17.330  66.670  1.00  0.00    -0.260 C  
HETATM    8  O   UNL     1      -7.249  17.965  65.504  1.00  0.00    -0.510 OA 
HETATM    9  H   UNL     1      -7.070  17.296  64.853  1.00  0.00     0.000 HD 
BRANCH   7  10
HETATM   10  C   UNL     1      -9.061  16.559  66.277  1.00  0.00    -0.313 C  
BRANCH  10  11
HETATM   11  O   UNL     1      -9.961  16.572  67.400  1.00  0.00    -0.255 OA 
BRANCH  11  12
HETATM   12  C   UNL     1     -10.470  15.356  67.773  1.00  0.00    -0.266 A  
HETATM   13  C   UNL     1     -11.174  15.103  68.950  1.00  0.00    -0.292 A  
HETATM   14  C   UNL     1     -11.609  13.808  69.246  1.00  0.00    -0.362 A  
HETATM   15  C   UNL     1     -11.372  12.749  68.362  1.00  0.00    -0.331 A  
HETATM   16  C   UNL     1     -10.687  13.014  67.169  1.00  0.00    -0.266 A  
HETATM   17  C   UNL     1     -10.243  14.309  66.879  1.00  0.00    -0.266 A  
BRANCH  15  18
HETATM   18  C   UNL     1     -11.814  11.347  68.709  1.00  0.00    -0.388 C  
BRANCH  18  19
HETATM   19  C   UNL     1     -12.346  11.230  70.138  1.00  0.00    -0.276 C  
BRANCH  19  20
HETATM   20  O   UNL     1     -12.436   9.851  70.507  1.00  0.00    -0.222 OA 
BRANCH  20  21
HETATM   21  C   UNL     1     -12.069   9.673  71.875  1.00  0.00    -0.306 C  
BRANCH  21  22
HETATM   22  C   UNL     1     -11.025   8.609  71.968  1.00  0.00    -0.432 C  
HETATM   23  C   UNL     1     -10.404   8.070  70.702  1.00  0.00    -0.211 C  
HETATM   24  C   UNL     1      -9.581   8.905  71.644  1.00  0.00    -0.363 C  
ENDBRANCH  21  22
ENDBRANCH  20  21
ENDBRANCH  19  20
ENDBRANCH  18  19
ENDBRANCH  15  18
ENDBRANCH  11  12
ENDBRANCH  10  11
ENDBRANCH   7  10
ENDBRANCH   6   7
ENDBRANCH   4   6
ENDBRANCH   2   4
TORSDOF 11
ENDMDL
MODEL      109
REMARK 921   NORMALIZED FREE ENERGY PREDICTED BY IDOCK:   -4.26 KCAL/MOL
REMARK 922        TOTAL FREE ENERGY PREDICTED BY IDOCK:   -8.34 KCAL/MOL
REMARK 923 INTER-LIGAND FREE ENERGY PREDICTED BY IDOCK:   -7.45 KCAL/MOL
REMARK 924 INTRA-LIGAND FREE ENERGY PREDICTED BY IDOCK:   -0.88 KCAL/MOL
REMARK 927      BINDING AFFINITY PREDICTED BY RF-SCORE:    0.00 PKD
ROOT
HETATM    1  C   UNL     1      -9.472   4.088  72.806  1.00  0.00    -0.163 C  
HETATM    2  C   UNL     1      -8.732   3.584  71.566  1.00  0.00    -0.088 C  
HETATM    3  C   UNL     1      -9.550   2.476  70.893  1.00  0.00    -0.192 C  
ENDROOT
BRANCH   2   4
HETATM    4  N   UNL     1      -8.489   4.635  70.569  1.00  0.00    -0.088 NA 
HETATM    5  H   UNL     1      -7.513   4.930  70.600  1.00  0.00     0.000 HD 
BRANCH   4   6
HETATM    6  C   UNL     1      -8.871   4.290  69.194  1.00  0.00    -0.091 C  
BRANCH   6   7
HETATM    7  C   UNL     1      -9.864   5.237  68.492  1.00  0.00    -0.152 C  
HETATM    8  O   UNL     1      -9.116   6.204  67.737  1.00  0.00    -0.119 OA 
HETATM    9  H   UNL     1      -9.728   6.787  67.305  1.00  0.00     0.000 HD 
BRANCH   7  10
HETATM   10  C   UNL     1     -10.765   5.967  69.493  1.00  0.00    -0.343 C  
BRANCH  10  11
HETATM   11  O   UNL     1     -10.103   7.180  69.889  1.00  0.00    -0.187 OA 
BRANCH  11  12
HETATM   12  C   UNL     1     -10.916   8.185  70.344  1.00  0.00    -0.247 A  
HETATM   13  C   UNL     1     -10.742   9.544  70.083  1.00  0.00    -0.299 A  
HETATM   14  C   UNL     1     -11.614  10.485  70.639  1.00  0.00    -0.445 A  
HETATM   15  C   UNL     1     -12.688  10.085  71.442  1.00  0.00    -0.518 A  
HETATM   16  C   UNL     1     -12.873   8.717  71.680  1.00  0.00    -0.392 A  
HETATM   17  C   UNL     1     -11.993   7.776  71.131  1.00  0.00    -0.312 A  
BRANCH  15  18
HETATM   18  C   UNL     1     -13.601  11.112  72.068  1.00  0.00    -0.133 C  
BRANCH  18  19
HETATM   19  C   UNL     1     -13.104  12.545  71.873  1.00  0.00    -0.368 C  
BRANCH  19  20
HETATM   20  O   UNL     1     -13.779  13.418  72.783  1.00  0.00    -0.697 OA 
BRANCH  20  21
HETATM   21  C   UNL     1     -14.112  14.650  72.142  1.00  0.00    -0.510 C  
BRANCH  21  22
HETATM   22  C   UNL     1     -13.474  15.777  72.887  1.00  0.00    -0.666 C  
HETATM   23  C   UNL     1     -12.474  15.473  73.975  1.00  0.00    -0.789 C  
HETATM   24  C   UNL     1     -12.016  16.110  72.693  1.00  0.00    -0.653 C  
ENDBRANCH  21  22
ENDBRANCH  20  21
ENDBRANCH  19  20
ENDBRANCH  18  19
ENDBRANCH  15  18
ENDBRANCH  11  12
ENDBRANCH  10  11
ENDBRANCH   7  10
ENDBRANCH   6   7
ENDBRANCH   4   6
ENDBRANCH   2   4
TORSDOF 11
ENDMDL
MODEL      110
REMARK 921   NORMALIZED FREE ENERGY PREDICTED BY IDOCK:   -4.25 KCAL/MOL
REMARK 922        TOTAL FREE ENERGY PREDICTED BY IDOCK:   -8.31 KCAL/MOL
REMARK 923 INTER-LIGAND FREE ENERGY PREDICTED BY IDOCK:   -7.66 KCAL/MOL
REMARK 924 INTRA-LIGAND FREE ENERGY PREDICTED BY IDOCK:   -0.66 KCAL/MOL
REMARK 927      BINDING AFFINITY PREDICTED BY RF-SCORE:    0.00 PKD
ROOT
HETATM    1  C   UNL     1     -11.197  10.486  68.657  1.00  0.00    -0.328 C  
HETATM    2  C   UNL     1     -12.065  11.195  69.697  1.00  0.00    -0.336 C  
HETATM    3  C   UNL     1     -12.189  10.317  70.948  1.00  0.00    -0.465 C  
ENDROOT
BRANCH   2   4
HETATM    4  N   UNL     1     -11.526  12.497  70.111  1.00  0.00    -0.523 NA 
HETATM    5  H   UNL     1     -10.731  12.752  69.524  1.00  0.00     0.000 HD 
BRANCH   4   6
HETATM    6  C   UNL     1     -12.503  13.593  70.143  1.00  0.00    -0.239 C  
BRANCH   6   7
HETATM    7  C   UNL     1     -11.940  15.026  70.069  1.00  0.00    -0.332 C  
HETATM    8  O   UNL     1     -13.032  15.952  70.194  1.00  0.00    -0.652 OA 
HETATM    9  H   UNL     1     -12.685  16.835  70.149  1.00  0.00     0.000 HD 
BRANCH   7  10
HETATM   10  C   UNL     1     -11.207  15.287  68.750  1.00  0.00    -0.287 C  
BRANCH  10  11
HETATM   11  O   UNL     1     -11.348  16.682  68.428  1.00  0.00    -0.321 OA 
BRANCH  11  12
HETATM   12  C   UNL     1     -10.193  17.419  68.443  1.00  0.00    -0.362 A  
HETATM   13  C   UNL     1     -10.123  18.807  68.571  1.00  0.00    -0.444 A  
HETATM   14  C   UNL     1      -8.887  19.456  68.529  1.00  0.00    -0.411 A  
HETATM   15  C   UNL     1      -7.697  18.732  68.386  1.00  0.00    -0.344 A  
HETATM   16  C   UNL     1      -7.772  17.337  68.286  1.00  0.00    -0.234 A  
HETATM   17  C   UNL     1      -9.011  16.688  68.317  1.00  0.00    -0.214 A  
BRANCH  15  18
HETATM   18  C   UNL     1      -6.369  19.447  68.305  1.00  0.00    -0.262 C  
BRANCH  18  19
HETATM   19  C   UNL     1      -6.518  20.965  68.202  1.00  0.00    -0.260 C  
BRANCH  19  20
HETATM   20  O   UNL     1      -6.651  21.344  66.830  1.00  0.00    -0.446 OA 
BRANCH  20  21
HETATM   21  C   UNL     1      -5.757  20.587  66.013  1.00  0.00    -0.190 C  
BRANCH  21  22
HETATM   22  C   UNL     1      -6.436  20.252  64.725  1.00  0.00    -0.326 C  
HETATM   23  C   UNL     1      -6.193  21.117  63.513  1.00  0.00    -0.334 C  
HETATM   24  C   UNL     1      -5.656  19.713  63.552  1.00  0.00    -0.347 C  
ENDBRANCH  21  22
ENDBRANCH  20  21
ENDBRANCH  19  20
ENDBRANCH  18  19
ENDBRANCH  15  18
ENDBRANCH  11  12
ENDBRANCH  10  11
ENDBRANCH   7  10
ENDBRANCH   6   7
ENDBRANCH   4   6
ENDBRANCH   2   4
TORSDOF 11
ENDMDL
MODEL      111
REMARK 921   NORMALIZED FREE ENERGY PREDICTED BY IDOCK:   -4.24 KCAL/MOL
REMARK 922        TOTAL FREE ENERGY PREDICTED BY IDOCK:   -8.30 KCAL/MOL
REMARK 923 INTER-LIGAND FREE ENERGY PREDICTED BY IDOCK:   -7.45 KCAL/MOL
REMARK 924 INTRA-LIGAND FREE ENERGY PREDICTED BY IDOCK:   -0.85 KCAL/MOL
REMARK 927      BINDING AFFINITY PREDICTED BY RF-SCORE:    0.00 PKD
ROOT
HETATM    1  C   UNL     1     -10.721   6.008  71.734  1.00  0.00    -0.294 C  
HETATM    2  C   UNL     1     -11.974   6.623  71.111  1.00  0.00    -0.357 C  
HETATM    3  C   UNL     1     -12.287   7.959  71.792  1.00  0.00    -0.352 C  
ENDROOT
BRANCH   2   4
HETATM    4  N   UNL     1     -11.841   6.871  69.669  1.00  0.00    -0.610 NA 
HETATM    5  H   UNL     1     -12.415   7.669  69.394  1.00  0.00     0.000 HD 
BRANCH   4   6
HETATM    6  C   UNL     1     -10.463   7.050  69.192  1.00  0.00    -0.207 C  
BRANCH   6   7
HETATM    7  C   UNL     1     -10.288   7.708  67.810  1.00  0.00    -0.219 C  
HETATM    8  O   UNL     1      -8.923   7.541  67.396  1.00  0.00    -0.126 OA 
HETATM    9  H   UNL     1      -8.814   7.947  66.544  1.00  0.00     0.000 HD 
BRANCH   7  10
HETATM   10  C   UNL     1     -10.628   9.201  67.838  1.00  0.00    -0.214 C  
BRANCH  10  11
HETATM   11  O   UNL     1     -10.719   9.614  69.213  1.00  0.00    -0.220 OA 
BRANCH  11  12
HETATM   12  C   UNL     1     -11.111  10.909  69.424  1.00  0.00    -0.260 A  
HETATM   13  C   UNL     1     -11.944  11.342  70.455  1.00  0.00    -0.465 A  
HETATM   14  C   UNL     1     -12.313  12.687  70.545  1.00  0.00    -0.350 A  
HETATM   15  C   UNL     1     -11.837  13.628  69.624  1.00  0.00    -0.396 A  
HETATM   16  C   UNL     1     -10.979  13.192  68.606  1.00  0.00    -0.296 A  
HETATM   17  C   UNL     1     -10.619  11.843  68.511  1.00  0.00    -0.245 A  
BRANCH  15  18
HETATM   18  C   UNL     1     -12.271  15.072  69.709  1.00  0.00    -0.324 C  
BRANCH  18  19
HETATM   19  C   UNL     1     -11.117  16.052  69.499  1.00  0.00    -0.333 C  
BRANCH  19  20
HETATM   20  O   UNL     1     -11.122  16.521  68.148  1.00  0.00    -0.354 OA 
BRANCH  20  21
HETATM   21  C   UNL     1     -10.118  17.519  67.960  1.00  0.00    -0.332 C  
BRANCH  21  22
HETATM   22  C   UNL     1     -10.777  18.838  67.722  1.00  0.00    -0.406 C  
HETATM   23  C   UNL     1     -10.264  20.062  68.441  1.00  0.00    -0.510 C  
HETATM   24  C   UNL     1     -10.074  19.931  66.956  1.00  0.00    -0.578 C  
ENDBRANCH  21  22
ENDBRANCH  20  21
ENDBRANCH  19  20
ENDBRANCH  18  19
ENDBRANCH  15  18
ENDBRANCH  11  12
ENDBRANCH  10  11
ENDBRANCH   7  10
ENDBRANCH   6   7
ENDBRANCH   4   6
ENDBRANCH   2   4
TORSDOF 11
ENDMDL
MODEL      112
REMARK 921   NORMALIZED FREE ENERGY PREDICTED BY IDOCK:   -4.24 KCAL/MOL
REMARK 922        TOTAL FREE ENERGY PREDICTED BY IDOCK:   -8.30 KCAL/MOL
REMARK 923 INTER-LIGAND FREE ENERGY PREDICTED BY IDOCK:   -7.82 KCAL/MOL
REMARK 924 INTRA-LIGAND FREE ENERGY PREDICTED BY IDOCK:   -0.48 KCAL/MOL
REMARK 927      BINDING AFFINITY PREDICTED BY RF-SCORE:    0.00 PKD
ROOT
HETATM    1  C   UNL     1     -10.211   5.100  72.985  1.00  0.00    -0.217 C  
HETATM    2  C   UNL     1     -10.635   6.421  73.627  1.00  0.00    -0.269 C  
HETATM    3  C   UNL     1      -9.409   7.322  73.809  1.00  0.00    -0.296 C  
ENDROOT
BRANCH   2   4
HETATM    4  N   UNL     1     -11.626   7.160  72.833  1.00  0.00    -0.545 NA 
HETATM    5  H   UNL     1     -12.409   7.444  73.422  1.00  0.00     0.000 HD 
BRANCH   4   6
HETATM    6  C   UNL     1     -11.097   8.318  72.100  1.00  0.00    -0.328 C  
BRANCH   6   7
HETATM    7  C   UNL     1     -12.124   9.197  71.361  1.00  0.00    -0.337 C  
HETATM    8  O   UNL     1     -13.230   8.370  70.964  1.00  0.00    -0.512 OA 
HETATM    9  H   UNL     1     -13.864   8.912  70.508  1.00  0.00     0.000 HD 
BRANCH   7  10
HETATM   10  C   UNL     1     -11.522   9.863  70.120  1.00  0.00    -0.248 C  
BRANCH  10  11
HETATM   11  O   UNL     1     -12.465  10.833  69.630  1.00  0.00    -0.289 OA 
BRANCH  11  12
HETATM   12  C   UNL     1     -12.139  12.146  69.847  1.00  0.00    -0.253 A  
HETATM   13  C   UNL     1     -12.519  12.899  70.957  1.00  0.00    -0.374 A  
HETATM   14  C   UNL     1     -12.163  14.248  71.049  1.00  0.00    -0.428 A  
HETATM   15  C   UNL     1     -11.400  14.861  70.048  1.00  0.00    -0.310 A  
HETATM   16  C   UNL     1     -10.998  14.093  68.948  1.00  0.00    -0.280 A  
HETATM   17  C   UNL     1     -11.364  12.745  68.852  1.00  0.00    -0.344 A  
BRANCH  15  18
HETATM   18  C   UNL     1     -11.052  16.328  70.140  1.00  0.00    -0.346 C  
BRANCH  18  19
HETATM   19  C   UNL     1     -10.345  16.849  68.888  1.00  0.00    -0.333 C  
BRANCH  19  20
HETATM   20  O   UNL     1     -10.210  18.271  68.968  1.00  0.00    -0.376 OA 
BRANCH  20  21
HETATM   21  C   UNL     1      -8.941  18.682  68.457  1.00  0.00    -0.334 C  
BRANCH  21  22
HETATM   22  C   UNL     1      -9.134  19.861  67.559  1.00  0.00    -0.432 C  
HETATM   23  C   UNL     1      -8.623  19.801  66.141  1.00  0.00    -0.367 C  
HETATM   24  C   UNL     1     -10.103  19.808  66.404  1.00  0.00    -0.600 C  
ENDBRANCH  21  22
ENDBRANCH  20  21
ENDBRANCH  19  20
ENDBRANCH  18  19
ENDBRANCH  15  18
ENDBRANCH  11  12
ENDBRANCH  10  11
ENDBRANCH   7  10
ENDBRANCH   6   7
ENDBRANCH   4   6
ENDBRANCH   2   4
TORSDOF 11
ENDMDL
MODEL      113
REMARK 921   NORMALIZED FREE ENERGY PREDICTED BY IDOCK:   -4.23 KCAL/MOL
REMARK 922        TOTAL FREE ENERGY PREDICTED BY IDOCK:   -8.28 KCAL/MOL
REMARK 923 INTER-LIGAND FREE ENERGY PREDICTED BY IDOCK:   -6.80 KCAL/MOL
REMARK 924 INTRA-LIGAND FREE ENERGY PREDICTED BY IDOCK:   -1.49 KCAL/MOL
REMARK 927      BINDING AFFINITY PREDICTED BY RF-SCORE:    0.00 PKD
ROOT
HETATM    1  C   UNL     1     -12.336   8.798  71.779  1.00  0.00    -0.412 C  
HETATM    2  C   UNL     1     -11.384   7.758  71.186  1.00  0.00    -0.269 C  
HETATM    3  C   UNL     1     -11.147   6.638  72.205  1.00  0.00    -0.292 C  
ENDROOT
BRANCH   2   4
HETATM    4  N   UNL     1     -11.892   7.145  69.951  1.00  0.00    -0.563 NA 
HETATM    5  H   UNL     1     -12.264   7.864  69.329  1.00  0.00     0.000 HD 
BRANCH   4   6
HETATM    6  C   UNL     1     -10.927   6.303  69.232  1.00  0.00    -0.369 C  
BRANCH   6   7
HETATM    7  C   UNL     1     -10.931   6.405  67.694  1.00  0.00    -0.349 C  
HETATM    8  O   UNL     1     -10.695   5.096  67.151  1.00  0.00    -0.210 OA 
HETATM    9  H   UNL     1     -10.696   5.158  66.203  1.00  0.00     0.000 HD 
BRANCH   7  10
HETATM   10  C   UNL     1      -9.854   7.365  67.180  1.00  0.00    -0.193 C  
BRANCH  10  11
HETATM   11  O   UNL     1      -9.854   8.530  68.024  1.00  0.00    -0.157 OA 
BRANCH  11  12
HETATM   12  C   UNL     1     -10.366   9.672  67.467  1.00  0.00    -0.241 A  
HETATM   13  C   UNL     1     -11.211  10.575  68.112  1.00  0.00    -0.357 A  
HETATM   14  C   UNL     1     -11.708  11.687  67.426  1.00  0.00    -0.278 A  
HETATM   15  C   UNL     1     -11.350  11.932  66.095  1.00  0.00    -0.383 A  
HETATM   16  C   UNL     1     -10.481  11.036  65.461  1.00  0.00    -0.302 A  
HETATM   17  C   UNL     1      -9.992   9.917  66.145  1.00  0.00    -0.331 A  
BRANCH  15  18
HETATM   18  C   UNL     1     -11.922  13.116  65.353  1.00  0.00    -0.448 C  
BRANCH  18  19
HETATM   19  C   UNL     1     -12.080  14.353  66.239  1.00  0.00    -0.366 C  
BRANCH  19  20
HETATM   20  O   UNL     1     -11.265  15.414  65.736  1.00  0.00    -0.298 OA 
BRANCH  20  21
HETATM   21  C   UNL     1      -9.903  14.996  65.636  1.00  0.00    -0.345 C  
BRANCH  21  22
HETATM   22  C   UNL     1      -9.253  15.121  66.976  1.00  0.00    -0.239 C  
HETATM   23  C   UNL     1      -8.636  13.902  67.616  1.00  0.00    -0.190 C  
HETATM   24  C   UNL     1      -7.756  15.018  67.126  1.00  0.00    -0.202 C  
ENDBRANCH  21  22
ENDBRANCH  20  21
ENDBRANCH  19  20
ENDBRANCH  18  19
ENDBRANCH  15  18
ENDBRANCH  11  12
ENDBRANCH  10  11
ENDBRANCH   7  10
ENDBRANCH   6   7
ENDBRANCH   4   6
ENDBRANCH   2   4
TORSDOF 11
ENDMDL
MODEL      114
REMARK 921   NORMALIZED FREE ENERGY PREDICTED BY IDOCK:   -4.22 KCAL/MOL
REMARK 922        TOTAL FREE ENERGY PREDICTED BY IDOCK:   -8.27 KCAL/MOL
REMARK 923 INTER-LIGAND FREE ENERGY PREDICTED BY IDOCK:   -7.28 KCAL/MOL
REMARK 924 INTRA-LIGAND FREE ENERGY PREDICTED BY IDOCK:   -0.98 KCAL/MOL
REMARK 927      BINDING AFFINITY PREDICTED BY RF-SCORE:    0.00 PKD
ROOT
HETATM    1  C   UNL     1      -8.581   3.437  72.188  1.00  0.00    -0.102 C  
HETATM    2  C   UNL     1     -10.065   3.806  72.178  1.00  0.00    -0.150 C  
HETATM    3  C   UNL     1     -10.742   3.251  73.436  1.00  0.00    -0.299 C  
ENDROOT
BRANCH   2   4
HETATM    4  N   UNL     1     -10.302   5.255  72.138  1.00  0.00    -0.206 NA 
HETATM    5  H   UNL     1     -10.069   5.625  71.216  1.00  0.00     0.000 HD 
BRANCH   4   6
HETATM    6  C   UNL     1     -11.654   5.676  72.526  1.00  0.00    -0.246 C  
BRANCH   6   7
HETATM    7  C   UNL     1     -12.220   6.924  71.822  1.00  0.00    -0.356 C  
HETATM    8  O   UNL     1     -13.655   6.845  71.839  1.00  0.00    -0.498 OA 
HETATM    9  H   UNL     1     -14.004   7.615  71.404  1.00  0.00     0.000 HD 
BRANCH   7  10
HETATM   10  C   UNL     1     -11.739   7.032  70.372  1.00  0.00    -0.279 C  
BRANCH  10  11
HETATM   11  O   UNL     1     -10.641   7.961  70.333  1.00  0.00    -0.218 OA 
BRANCH  11  12
HETATM   12  C   UNL     1     -10.898   9.166  69.733  1.00  0.00    -0.211 A  
HETATM   13  C   UNL     1     -11.408  10.294  70.375  1.00  0.00    -0.410 A  
HETATM   14  C   UNL     1     -11.671  11.459  69.648  1.00  0.00    -0.415 A  
HETATM   15  C   UNL     1     -11.405  11.527  68.276  1.00  0.00    -0.352 A  
HETATM   16  C   UNL     1     -10.868  10.400  67.642  1.00  0.00    -0.361 A  
HETATM   17  C   UNL     1     -10.615   9.230  68.368  1.00  0.00    -0.234 A  
BRANCH  15  18
HETATM   18  C   UNL     1     -11.728  12.778  67.494  1.00  0.00    -0.422 C  
BRANCH  18  19
HETATM   19  C   UNL     1     -10.488  13.428  66.877  1.00  0.00    -0.273 C  
BRANCH  19  20
HETATM   20  O   UNL     1     -10.825  14.002  65.611  1.00  0.00    -0.284 OA 
BRANCH  20  21
HETATM   21  C   UNL     1     -12.152  13.636  65.232  1.00  0.00    -0.406 C  
BRANCH  21  22
HETATM   22  C   UNL     1     -12.143  13.160  63.816  1.00  0.00    -0.563 C  
HETATM   23  C   UNL     1     -11.076  12.191  63.368  1.00  0.00    -0.495 C  
HETATM   24  C   UNL     1     -12.506  11.737  63.472  1.00  0.00    -0.504 C  
ENDBRANCH  21  22
ENDBRANCH  20  21
ENDBRANCH  19  20
ENDBRANCH  18  19
ENDBRANCH  15  18
ENDBRANCH  11  12
ENDBRANCH  10  11
ENDBRANCH   7  10
ENDBRANCH   6   7
ENDBRANCH   4   6
ENDBRANCH   2   4
TORSDOF 11
ENDMDL
MODEL      115
REMARK 921   NORMALIZED FREE ENERGY PREDICTED BY IDOCK:   -4.22 KCAL/MOL
REMARK 922        TOTAL FREE ENERGY PREDICTED BY IDOCK:   -8.26 KCAL/MOL
REMARK 923 INTER-LIGAND FREE ENERGY PREDICTED BY IDOCK:   -7.41 KCAL/MOL
REMARK 924 INTRA-LIGAND FREE ENERGY PREDICTED BY IDOCK:   -0.85 KCAL/MOL
REMARK 927      BINDING AFFINITY PREDICTED BY RF-SCORE:    0.00 PKD
ROOT
HETATM    1  C   UNL     1      -9.678   6.971  66.749  1.00  0.00    -0.241 C  
HETATM    2  C   UNL     1     -10.722   5.994  67.292  1.00  0.00    -0.318 C  
HETATM    3  C   UNL     1     -10.027   4.723  67.791  1.00  0.00    -0.169 C  
ENDROOT
BRANCH   2   4
HETATM    4  N   UNL     1     -11.508   6.546  68.403  1.00  0.00    -0.527 NA 
HETATM    5  H   UNL     1     -12.398   6.053  68.483  1.00  0.00     0.000 HD 
BRANCH   4   6
HETATM    6  C   UNL     1     -10.822   6.566  69.702  1.00  0.00    -0.304 C  
BRANCH   6   7
HETATM    7  C   UNL     1     -11.237   7.676  70.687  1.00  0.00    -0.266 C  
HETATM    8  O   UNL     1     -12.671   7.765  70.696  1.00  0.00    -0.513 OA 
HETATM    9  H   UNL     1     -12.926   8.450  71.303  1.00  0.00     0.000 HD 
BRANCH   7  10
HETATM   10  C   UNL     1     -10.649   9.036  70.299  1.00  0.00    -0.217 C  
BRANCH  10  11
HETATM   11  O   UNL     1     -10.721   9.163  68.868  1.00  0.00    -0.212 OA 
BRANCH  11  12
HETATM   12  C   UNL     1     -11.030  10.410  68.392  1.00  0.00    -0.264 A  
HETATM   13  C   UNL     1     -10.740  10.880  67.112  1.00  0.00    -0.320 A  
HETATM   14  C   UNL     1     -11.066  12.191  66.752  1.00  0.00    -0.349 A  
HETATM   15  C   UNL     1     -11.710  13.046  67.654  1.00  0.00    -0.415 A  
HETATM   16  C   UNL     1     -12.023  12.560  68.930  1.00  0.00    -0.282 A  
HETATM   17  C   UNL     1     -11.687  11.251  69.292  1.00  0.00    -0.403 A  
BRANCH  15  18
HETATM   18  C   UNL     1     -12.024  14.472  67.267  1.00  0.00    -0.375 C  
BRANCH  18  19
HETATM   19  C   UNL     1     -11.480  15.492  68.268  1.00  0.00    -0.353 C  
BRANCH  19  20
HETATM   20  O   UNL     1     -10.253  16.040  67.779  1.00  0.00    -0.249 OA 
BRANCH  20  21
HETATM   21  C   UNL     1      -9.819  17.117  68.610  1.00  0.00    -0.300 C  
BRANCH  21  22
HETATM   22  C   UNL     1     -10.502  18.374  68.180  1.00  0.00    -0.355 C  
HETATM   23  C   UNL     1      -9.686  19.627  67.975  1.00  0.00    -0.501 C  
HETATM   24  C   UNL     1     -10.302  18.932  66.793  1.00  0.00    -0.477 C  
ENDBRANCH  21  22
ENDBRANCH  20  21
ENDBRANCH  19  20
ENDBRANCH  18  19
ENDBRANCH  15  18
ENDBRANCH  11  12
ENDBRANCH  10  11
ENDBRANCH   7  10
ENDBRANCH   6   7
ENDBRANCH   4   6
ENDBRANCH   2   4
TORSDOF 11
ENDMDL
MODEL      116
REMARK 921   NORMALIZED FREE ENERGY PREDICTED BY IDOCK:   -4.20 KCAL/MOL
REMARK 922        TOTAL FREE ENERGY PREDICTED BY IDOCK:   -8.24 KCAL/MOL
REMARK 923 INTER-LIGAND FREE ENERGY PREDICTED BY IDOCK:   -6.60 KCAL/MOL
REMARK 924 INTRA-LIGAND FREE ENERGY PREDICTED BY IDOCK:   -1.64 KCAL/MOL
REMARK 927      BINDING AFFINITY PREDICTED BY RF-SCORE:    0.00 PKD
ROOT
HETATM    1  C   UNL     1      -9.629  12.641  67.466  1.00  0.00    -0.184 C  
HETATM    2  C   UNL     1     -10.486  13.749  68.079  1.00  0.00    -0.244 C  
HETATM    3  C   UNL     1     -11.811  13.857  67.317  1.00  0.00    -0.442 C  
ENDROOT
BRANCH   2   4
HETATM    4  N   UNL     1     -10.797  13.523  69.497  1.00  0.00    -0.447 NA 
HETATM    5  H   UNL     1     -10.827  14.412  69.997  1.00  0.00     0.000 HD 
BRANCH   4   6
HETATM    6  C   UNL     1     -12.025  12.759  69.750  1.00  0.00    -0.292 C  
BRANCH   6   7
HETATM    7  C   UNL     1     -11.888  11.225  69.803  1.00  0.00    -0.364 C  
HETATM    8  O   UNL     1     -12.387  10.680  68.571  1.00  0.00    -0.814 OA 
HETATM    9  H   UNL     1     -12.302   9.734  68.604  1.00  0.00     0.000 HD 
BRANCH   7  10
HETATM   10  C   UNL     1     -12.667  10.618  70.975  1.00  0.00    -0.415 C  
BRANCH  10  11
HETATM   11  O   UNL     1     -11.731   9.937  71.829  1.00  0.00    -0.336 OA 
BRANCH  11  12
HETATM   12  C   UNL     1     -11.269   8.732  71.370  1.00  0.00    -0.292 A  
HETATM   13  C   UNL     1      -9.933   8.335  71.349  1.00  0.00    -0.250 A  
HETATM   14  C   UNL     1      -9.575   7.094  70.815  1.00  0.00    -0.168 A  
HETATM   15  C   UNL     1     -10.546   6.217  70.317  1.00  0.00    -0.305 A  
HETATM   16  C   UNL     1     -11.889   6.610  70.365  1.00  0.00    -0.407 A  
HETATM   17  C   UNL     1     -12.246   7.857  70.891  1.00  0.00    -0.138 A  
BRANCH  15  18
HETATM   18  C   UNL     1     -10.145   4.894  69.709  1.00  0.00    -0.319 C  
BRANCH  18  19
HETATM   19  C   UNL     1     -10.193   4.905  68.180  1.00  0.00    -0.034 C  
BRANCH  19  20
HETATM   20  O   UNL     1      -9.110   5.687  67.669  1.00  0.00    -0.109 OA 
BRANCH  20  21
HETATM   21  C   UNL     1      -9.556   6.521  66.600  1.00  0.00    -0.160 C  
BRANCH  21  22
HETATM   22  C   UNL     1     -10.245   7.719  67.168  1.00  0.00    -0.365 C  
HETATM   23  C   UNL     1      -9.423   8.812  67.805  1.00  0.00    -0.164 C  
HETATM   24  C   UNL     1     -10.132   9.069  66.504  1.00  0.00    -0.354 C  
ENDBRANCH  21  22
ENDBRANCH  20  21
ENDBRANCH  19  20
ENDBRANCH  18  19
ENDBRANCH  15  18
ENDBRANCH  11  12
ENDBRANCH  10  11
ENDBRANCH   7  10
ENDBRANCH   6   7
ENDBRANCH   4   6
ENDBRANCH   2   4
TORSDOF 11
ENDMDL
MODEL      117
REMARK 921   NORMALIZED FREE ENERGY PREDICTED BY IDOCK:   -4.16 KCAL/MOL
REMARK 922        TOTAL FREE ENERGY PREDICTED BY IDOCK:   -8.17 KCAL/MOL
REMARK 923 INTER-LIGAND FREE ENERGY PREDICTED BY IDOCK:   -6.73 KCAL/MOL
REMARK 924 INTRA-LIGAND FREE ENERGY PREDICTED BY IDOCK:   -1.44 KCAL/MOL
REMARK 927      BINDING AFFINITY PREDICTED BY RF-SCORE:    0.00 PKD
ROOT
HETATM    1  C   UNL     1     -12.611   7.031  71.117  1.00  0.00    -0.387 C  
HETATM    2  C   UNL     1     -11.536   6.025  70.703  1.00  0.00    -0.158 C  
HETATM    3  C   UNL     1     -10.844   6.509  69.423  1.00  0.00    -0.363 C  
ENDROOT
BRANCH   2   4
HETATM    4  N   UNL     1     -10.503   5.827  71.728  1.00  0.00    -0.221 NA 
HETATM    5  H   UNL     1      -9.616   5.574  71.290  1.00  0.00     0.000 HD 
BRANCH   4   6
HETATM    6  C   UNL     1     -10.310   6.958  72.645  1.00  0.00    -0.203 C  
BRANCH   6   7
HETATM    7  C   UNL     1      -8.971   7.714  72.540  1.00  0.00    -0.142 C  
HETATM    8  O   UNL     1      -8.654   8.261  73.830  1.00  0.00    -0.244 OA 
HETATM    9  H   UNL     1      -7.829   8.727  73.765  1.00  0.00     0.000 HD 
BRANCH   7  10
HETATM   10  C   UNL     1      -9.033   8.850  71.513  1.00  0.00    -0.205 C  
BRANCH  10  11
HETATM   11  O   UNL     1     -10.372   9.377  71.509  1.00  0.00    -0.327 OA 
BRANCH  11  12
HETATM   12  C   UNL     1     -10.701  10.165  70.438  1.00  0.00    -0.266 A  
HETATM   13  C   UNL     1     -11.841  10.963  70.344  1.00  0.00    -0.449 A  
HETATM   14  C   UNL     1     -12.094  11.694  69.180  1.00  0.00    -0.315 A  
HETATM   15  C   UNL     1     -11.203  11.661  68.100  1.00  0.00    -0.325 A  
HETATM   16  C   UNL     1     -10.047  10.879  68.211  1.00  0.00    -0.189 A  
HETATM   17  C   UNL     1      -9.799  10.139  69.373  1.00  0.00    -0.247 A  
BRANCH  15  18
HETATM   18  C   UNL     1     -11.506  12.426  66.833  1.00  0.00    -0.423 C  
BRANCH  18  19
HETATM   19  C   UNL     1     -12.126  13.798  67.102  1.00  0.00    -0.378 C  
BRANCH  19  20
HETATM   20  O   UNL     1     -11.100  14.732  67.444  1.00  0.00    -0.303 OA 
BRANCH  20  21
HETATM   21  C   UNL     1     -11.592  15.699  68.372  1.00  0.00    -0.350 C  
BRANCH  21  22
HETATM   22  C   UNL     1     -11.564  15.117  69.747  1.00  0.00    -0.338 C  
HETATM   23  C   UNL     1     -11.637  16.037  70.941  1.00  0.00    -0.453 C  
HETATM   24  C   UNL     1     -12.793  15.130  70.622  1.00  0.00    -0.440 C  
ENDBRANCH  21  22
ENDBRANCH  20  21
ENDBRANCH  19  20
ENDBRANCH  18  19
ENDBRANCH  15  18
ENDBRANCH  11  12
ENDBRANCH  10  11
ENDBRANCH   7  10
ENDBRANCH   6   7
ENDBRANCH   4   6
ENDBRANCH   2   4
TORSDOF 11
ENDMDL
MODEL      118
REMARK 921   NORMALIZED FREE ENERGY PREDICTED BY IDOCK:   -4.16 KCAL/MOL
REMARK 922        TOTAL FREE ENERGY PREDICTED BY IDOCK:   -8.17 KCAL/MOL
REMARK 923 INTER-LIGAND FREE ENERGY PREDICTED BY IDOCK:   -6.93 KCAL/MOL
REMARK 924 INTRA-LIGAND FREE ENERGY PREDICTED BY IDOCK:   -1.23 KCAL/MOL
REMARK 927      BINDING AFFINITY PREDICTED BY RF-SCORE:    0.00 PKD
ROOT
HETATM    1  C   UNL     1     -11.250  15.842  64.604  1.00  0.00    -0.373 C  
HETATM    2  C   UNL     1     -10.159  15.337  65.549  1.00  0.00    -0.375 C  
HETATM    3  C   UNL     1     -10.690  15.322  66.987  1.00  0.00    -0.313 C  
ENDROOT
BRANCH   2   4
HETATM    4  N   UNL     1      -9.693  13.982  65.225  1.00  0.00    -0.573 NA 
HETATM    5  H   UNL     1      -9.510  13.458  66.081  1.00  0.00     0.000 HD 
BRANCH   4   6
HETATM    6  C   UNL     1     -10.580  13.213  64.342  1.00  0.00    -0.421 C  
BRANCH   6   7
HETATM    7  C   UNL     1     -11.497  12.175  65.015  1.00  0.00    -0.323 C  
HETATM    8  O   UNL     1     -12.786  12.775  65.228  1.00  0.00    -0.625 OA 
HETATM    9  H   UNL     1     -13.351  12.134  65.643  1.00  0.00     0.000 HD 
BRANCH   7  10
HETATM   10  C   UNL     1     -10.936  11.698  66.358  1.00  0.00    -0.295 C  
BRANCH  10  11
HETATM   11  O   UNL     1     -11.934  11.928  67.368  1.00  0.00    -0.603 OA 
BRANCH  11  12
HETATM   12  C   UNL     1     -11.792  11.209  68.525  1.00  0.00    -0.260 A  
HETATM   13  C   UNL     1     -12.405  11.508  69.741  1.00  0.00    -0.220 A  
HETATM   14  C   UNL     1     -12.150  10.724  70.870  1.00  0.00    -0.475 A  
HETATM   15  C   UNL     1     -11.300   9.614  70.799  1.00  0.00    -0.409 A  
HETATM   16  C   UNL     1     -10.708   9.303  69.568  1.00  0.00    -0.236 A  
HETATM   17  C   UNL     1     -10.956  10.095  68.441  1.00  0.00    -0.293 A  
BRANCH  15  18
HETATM   18  C   UNL     1     -11.003   8.796  72.033  1.00  0.00    -0.438 C  
BRANCH  18  19
HETATM   19  C   UNL     1     -10.117   7.584  71.743  1.00  0.00    -0.176 C  
BRANCH  19  20
HETATM   20  O   UNL     1      -9.230   7.361  72.842  1.00  0.00    -0.135 OA 
BRANCH  20  21
HETATM   21  C   UNL     1      -8.036   8.128  72.686  1.00  0.00    -0.146 C  
BRANCH  21  22
HETATM   22  C   UNL     1      -7.636   8.124  71.247  1.00  0.00    -0.084 C  
HETATM   23  C   UNL     1      -7.140   9.400  70.612  1.00  0.00    -0.127 C  
HETATM   24  C   UNL     1      -6.189   8.259  70.842  1.00  0.00    -0.033 C  
ENDBRANCH  21  22
ENDBRANCH  20  21
ENDBRANCH  19  20
ENDBRANCH  18  19
ENDBRANCH  15  18
ENDBRANCH  11  12
ENDBRANCH  10  11
ENDBRANCH   7  10
ENDBRANCH   6   7
ENDBRANCH   4   6
ENDBRANCH   2   4
TORSDOF 11
ENDMDL
MODEL      119
REMARK 921   NORMALIZED FREE ENERGY PREDICTED BY IDOCK:   -4.15 KCAL/MOL
REMARK 922        TOTAL FREE ENERGY PREDICTED BY IDOCK:   -8.14 KCAL/MOL
REMARK 923 INTER-LIGAND FREE ENERGY PREDICTED BY IDOCK:   -7.10 KCAL/MOL
REMARK 924 INTRA-LIGAND FREE ENERGY PREDICTED BY IDOCK:   -1.04 KCAL/MOL
REMARK 927      BINDING AFFINITY PREDICTED BY RF-SCORE:    0.00 PKD
ROOT
HETATM    1  C   UNL     1      -8.798  17.395  68.309  1.00  0.00    -0.264 C  
HETATM    2  C   UNL     1     -10.178  17.922  68.703  1.00  0.00    -0.385 C  
HETATM    3  C   UNL     1     -10.669  18.920  67.648  1.00  0.00    -0.469 C  
ENDROOT
BRANCH   2   4
HETATM    4  N   UNL     1     -11.189  16.863  68.829  1.00  0.00    -0.190 NA 
HETATM    5  H   UNL     1     -11.251  16.331  67.961  1.00  0.00     0.000 HD 
BRANCH   4   6
HETATM    6  C   UNL     1     -11.000  15.955  69.967  1.00  0.00    -0.358 C  
BRANCH   6   7
HETATM    7  C   UNL     1     -12.113  15.939  71.033  1.00  0.00    -0.395 C  
HETATM    8  O   UNL     1     -11.736  16.825  72.099  1.00  0.00    -0.591 OA 
HETATM    9  H   UNL     1     -12.422  16.816  72.756  1.00  0.00     0.000 HD 
BRANCH   7  10
HETATM   10  C   UNL     1     -12.343  14.536  71.602  1.00  0.00    -0.350 C  
BRANCH  10  11
HETATM   11  O   UNL     1     -12.766  13.680  70.526  1.00  0.00    -0.277 OA 
BRANCH  11  12
HETATM   12  C   UNL     1     -12.482  12.348  70.673  1.00  0.00    -0.234 A  
HETATM   13  C   UNL     1     -11.635  11.607  69.848  1.00  0.00    -0.366 A  
HETATM   14  C   UNL     1     -11.455  10.239  70.071  1.00  0.00    -0.367 A  
HETATM   15  C   UNL     1     -12.096   9.592  71.135  1.00  0.00    -0.448 A  
HETATM   16  C   UNL     1     -12.924  10.346  71.975  1.00  0.00    -0.499 A  
HETATM   17  C   UNL     1     -13.112  11.714  71.745  1.00  0.00    -0.487 A  
BRANCH  15  18
HETATM   18  C   UNL     1     -11.922   8.106  71.343  1.00  0.00    -0.330 C  
BRANCH  18  19
HETATM   19  C   UNL     1     -10.580   7.750  71.984  1.00  0.00    -0.228 C  
BRANCH  19  20
HETATM   20  O   UNL     1      -9.878   6.825  71.149  1.00  0.00    -0.178 OA 
BRANCH  20  21
HETATM   21  C   UNL     1      -8.921   7.509  70.339  1.00  0.00    -0.152 C  
BRANCH  21  22
HETATM   22  C   UNL     1      -9.075   7.067  68.921  1.00  0.00    -0.134 C  
HETATM   23  C   UNL     1     -10.452   7.021  68.305  1.00  0.00    -0.237 C  
HETATM   24  C   UNL     1      -9.456   8.045  67.838  1.00  0.00    -0.161 C  
ENDBRANCH  21  22
ENDBRANCH  20  21
ENDBRANCH  19  20
ENDBRANCH  18  19
ENDBRANCH  15  18
ENDBRANCH  11  12
ENDBRANCH  10  11
ENDBRANCH   7  10
ENDBRANCH   6   7
ENDBRANCH   4   6
ENDBRANCH   2   4
TORSDOF 11
ENDMDL
MODEL      120
REMARK 921   NORMALIZED FREE ENERGY PREDICTED BY IDOCK:   -4.14 KCAL/MOL
REMARK 922        TOTAL FREE ENERGY PREDICTED BY IDOCK:   -8.14 KCAL/MOL
REMARK 923 INTER-LIGAND FREE ENERGY PREDICTED BY IDOCK:   -7.13 KCAL/MOL
REMARK 924 INTRA-LIGAND FREE ENERGY PREDICTED BY IDOCK:   -1.01 KCAL/MOL
REMARK 927      BINDING AFFINITY PREDICTED BY RF-SCORE:    0.00 PKD
ROOT
HETATM    1  C   UNL     1     -10.370   6.032  67.965  1.00  0.00    -0.250 C  
HETATM    2  C   UNL     1     -11.167   6.189  69.260  1.00  0.00    -0.367 C  
HETATM    3  C   UNL     1     -10.410   5.523  70.414  1.00  0.00    -0.346 C  
ENDROOT
BRANCH   2   4
HETATM    4  N   UNL     1     -11.406   7.592  69.626  1.00  0.00    -0.461 NA 
HETATM    5  H   UNL     1     -11.385   7.699  70.641  1.00  0.00     0.000 HD 
BRANCH   4   6
HETATM    6  C   UNL     1     -10.503   8.563  68.995  1.00  0.00    -0.200 C  
BRANCH   6   7
HETATM    7  C   UNL     1     -10.935  10.041  69.041  1.00  0.00    -0.212 C  
HETATM    8  O   UNL     1     -12.235  10.118  69.648  1.00  0.00    -0.501 OA 
HETATM    9  H   UNL     1     -12.501  11.030  69.677  1.00  0.00     0.000 HD 
BRANCH   7  10
HETATM   10  C   UNL     1     -10.993  10.666  67.644  1.00  0.00    -0.310 C  
BRANCH  10  11
HETATM   11  O   UNL     1     -12.104  11.580  67.609  1.00  0.00    -0.623 OA 
BRANCH  11  12
HETATM   12  C   UNL     1     -11.784  12.909  67.536  1.00  0.00    -0.367 A  
HETATM   13  C   UNL     1     -11.298  13.561  66.402  1.00  0.00    -0.335 A  
HETATM   14  C   UNL     1     -10.963  14.917  66.459  1.00  0.00    -0.327 A  
HETATM   15  C   UNL     1     -11.131  15.652  67.639  1.00  0.00    -0.305 A  
HETATM   16  C   UNL     1     -11.643  14.998  68.766  1.00  0.00    -0.357 A  
HETATM   17  C   UNL     1     -11.969  13.638  68.712  1.00  0.00    -0.394 A  
BRANCH  15  18
HETATM   18  C   UNL     1     -10.730  17.107  67.699  1.00  0.00    -0.302 C  
BRANCH  18  19
HETATM   19  C   UNL     1     -10.147  17.617  66.380  1.00  0.00    -0.356 C  
BRANCH  19  20
HETATM   20  O   UNL     1      -8.799  18.049  66.585  1.00  0.00    -0.253 OA 
BRANCH  20  21
HETATM   21  C   UNL     1      -7.884  16.994  66.286  1.00  0.00    -0.311 C  
BRANCH  21  22
HETATM   22  C   UNL     1      -6.818  16.960  67.332  1.00  0.00    -0.181 C  
HETATM   23  C   UNL     1      -7.136  17.437  68.728  1.00  0.00    -0.246 C  
HETATM   24  C   UNL     1      -6.881  15.977  68.475  1.00  0.00    -0.129 C  
ENDBRANCH  21  22
ENDBRANCH  20  21
ENDBRANCH  19  20
ENDBRANCH  18  19
ENDBRANCH  15  18
ENDBRANCH  11  12
ENDBRANCH  10  11
ENDBRANCH   7  10
ENDBRANCH   6   7
ENDBRANCH   4   6
ENDBRANCH   2   4
TORSDOF 11
ENDMDL
MODEL      121
REMARK 921   NORMALIZED FREE ENERGY PREDICTED BY IDOCK:   -4.14 KCAL/MOL
REMARK 922        TOTAL FREE ENERGY PREDICTED BY IDOCK:   -8.14 KCAL/MOL
REMARK 923 INTER-LIGAND FREE ENERGY PREDICTED BY IDOCK:   -6.86 KCAL/MOL
REMARK 924 INTRA-LIGAND FREE ENERGY PREDICTED BY IDOCK:   -1.28 KCAL/MOL
REMARK 927      BINDING AFFINITY PREDICTED BY RF-SCORE:    0.00 PKD
ROOT
HETATM    1  C   UNL     1      -8.931  14.700  66.764  1.00  0.00    -0.283 C  
HETATM    2  C   UNL     1      -9.571  16.017  66.325  1.00  0.00    -0.307 C  
HETATM    3  C   UNL     1      -8.481  17.070  66.099  1.00  0.00    -0.262 C  
ENDROOT
BRANCH   2   4
HETATM    4  N   UNL     1     -10.349  15.898  65.084  1.00  0.00    -0.518 NA 
HETATM    5  H   UNL     1      -9.749  15.581  64.322  1.00  0.00     0.000 HD 
BRANCH   4   6
HETATM    6  C   UNL     1     -11.542  15.046  65.177  1.00  0.00    -0.294 C  
BRANCH   6   7
HETATM    7  C   UNL     1     -11.559  13.780  64.298  1.00  0.00    -0.369 C  
HETATM    8  O   UNL     1     -12.594  13.925  63.312  1.00  0.00    -1.049 OA 
HETATM    9  H   UNL     1     -12.605  13.144  62.770  1.00  0.00     0.000 HD 
BRANCH   7  10
HETATM   10  C   UNL     1     -11.820  12.514  65.120  1.00  0.00    -0.405 C  
BRANCH  10  11
HETATM   11  O   UNL     1     -11.678  12.848  66.512  1.00  0.00    -0.354 OA 
BRANCH  11  12
HETATM   12  C   UNL     1     -11.421  11.799  67.356  1.00  0.00    -0.305 A  
HETATM   13  C   UNL     1     -10.825  10.594  66.986  1.00  0.00    -0.298 A  
HETATM   14  C   UNL     1     -10.653   9.575  67.928  1.00  0.00    -0.299 A  
HETATM   15  C   UNL     1     -11.049   9.751  69.259  1.00  0.00    -0.184 A  
HETATM   16  C   UNL     1     -11.623  10.973  69.630  1.00  0.00    -0.390 A  
HETATM   17  C   UNL     1     -11.805  11.988  68.684  1.00  0.00    -0.366 A  
BRANCH  15  18
HETATM   18  C   UNL     1     -10.892   8.630  70.259  1.00  0.00    -0.250 C  
BRANCH  18  19
HETATM   19  C   UNL     1     -10.337   9.107  71.602  1.00  0.00    -0.318 C  
BRANCH  19  20
HETATM   20  O   UNL     1      -8.928   9.325  71.491  1.00  0.00    -0.316 OA 
BRANCH  20  21
HETATM   21  C   UNL     1      -8.276   8.152  71.003  1.00  0.00    -0.108 C  
BRANCH  21  22
HETATM   22  C   UNL     1      -7.358   8.530  69.887  1.00  0.00    -0.055 C  
HETATM   23  C   UNL     1      -7.309   9.966  69.424  1.00  0.00    -0.091 C  
HETATM   24  C   UNL     1      -6.130   9.369  70.141  1.00  0.00    -0.042 C  
ENDBRANCH  21  22
ENDBRANCH  20  21
ENDBRANCH  19  20
ENDBRANCH  18  19
ENDBRANCH  15  18
ENDBRANCH  11  12
ENDBRANCH  10  11
ENDBRANCH   7  10
ENDBRANCH   6   7
ENDBRANCH   4   6
ENDBRANCH   2   4
TORSDOF 11
ENDMDL
MODEL      122
REMARK 921   NORMALIZED FREE ENERGY PREDICTED BY IDOCK:   -4.14 KCAL/MOL
REMARK 922        TOTAL FREE ENERGY PREDICTED BY IDOCK:   -8.13 KCAL/MOL
REMARK 923 INTER-LIGAND FREE ENERGY PREDICTED BY IDOCK:   -7.56 KCAL/MOL
REMARK 924 INTRA-LIGAND FREE ENERGY PREDICTED BY IDOCK:   -0.57 KCAL/MOL
REMARK 927      BINDING AFFINITY PREDICTED BY RF-SCORE:    0.00 PKD
ROOT
HETATM    1  C   UNL     1     -10.019   6.403  71.612  1.00  0.00    -0.195 C  
HETATM    2  C   UNL     1     -10.336   7.451  72.680  1.00  0.00    -0.244 C  
HETATM    3  C   UNL     1      -9.066   7.779  73.472  1.00  0.00    -0.342 C  
ENDROOT
BRANCH   2   4
HETATM    4  N   UNL     1     -10.858   8.706  72.122  1.00  0.00    -0.354 NA 
HETATM    5  H   UNL     1     -10.494   8.851  71.180  1.00  0.00     0.000 HD 
BRANCH   4   6
HETATM    6  C   UNL     1     -12.322   8.826  72.124  1.00  0.00    -0.389 C  
BRANCH   6   7
HETATM    7  C   UNL     1     -12.918  10.046  71.394  1.00  0.00    -0.418 C  
HETATM    8  O   UNL     1     -13.997   9.595  70.559  1.00  0.00    -0.442 OA 
HETATM    9  H   UNL     1     -14.364  10.346  70.109  1.00  0.00     0.000 HD 
BRANCH   7  10
HETATM   10  C   UNL     1     -11.876  10.762  70.528  1.00  0.00    -0.356 C  
BRANCH  10  11
HETATM   11  O   UNL     1     -12.397  10.859  69.191  1.00  0.00    -0.435 OA 
BRANCH  11  12
HETATM   12  C   UNL     1     -11.854  11.843  68.408  1.00  0.00    -0.289 A  
HETATM   13  C   UNL     1     -11.449  11.688  67.082  1.00  0.00    -0.344 A  
HETATM   14  C   UNL     1     -10.866  12.756  66.395  1.00  0.00    -0.294 A  
HETATM   15  C   UNL     1     -10.701  14.004  67.008  1.00  0.00    -0.284 A  
HETATM   16  C   UNL     1     -11.134  14.161  68.330  1.00  0.00    -0.273 A  
HETATM   17  C   UNL     1     -11.708  13.088  69.022  1.00  0.00    -0.376 A  
BRANCH  15  18
HETATM   18  C   UNL     1     -10.037  15.140  66.267  1.00  0.00    -0.299 C  
BRANCH  18  19
HETATM   19  C   UNL     1      -9.131  15.984  67.165  1.00  0.00    -0.208 C  
BRANCH  19  20
HETATM   20  O   UNL     1      -9.048  17.316  66.651  1.00  0.00    -0.245 OA 
BRANCH  20  21
HETATM   21  C   UNL     1      -8.398  18.175  67.588  1.00  0.00    -0.243 C  
BRANCH  21  22
HETATM   22  C   UNL     1      -9.271  19.357  67.858  1.00  0.00    -0.383 C  
HETATM   23  C   UNL     1      -9.599  20.306  66.731  1.00  0.00    -0.548 C  
HETATM   24  C   UNL     1     -10.674  19.427  67.308  1.00  0.00    -0.603 C  
ENDBRANCH  21  22
ENDBRANCH  20  21
ENDBRANCH  19  20
ENDBRANCH  18  19
ENDBRANCH  15  18
ENDBRANCH  11  12
ENDBRANCH  10  11
ENDBRANCH   7  10
ENDBRANCH   6   7
ENDBRANCH   4   6
ENDBRANCH   2   4
TORSDOF 11
ENDMDL
MODEL      123
REMARK 921   NORMALIZED FREE ENERGY PREDICTED BY IDOCK:   -4.13 KCAL/MOL
REMARK 922        TOTAL FREE ENERGY PREDICTED BY IDOCK:   -8.12 KCAL/MOL
REMARK 923 INTER-LIGAND FREE ENERGY PREDICTED BY IDOCK:   -7.35 KCAL/MOL
REMARK 924 INTRA-LIGAND FREE ENERGY PREDICTED BY IDOCK:   -0.77 KCAL/MOL
REMARK 927      BINDING AFFINITY PREDICTED BY RF-SCORE:    0.00 PKD
ROOT
HETATM    1  C   UNL     1      -9.421   4.553  68.559  1.00  0.00    -0.213 C  
HETATM    2  C   UNL     1      -9.727   6.047  68.673  1.00  0.00    -0.127 C  
HETATM    3  C   UNL     1     -11.152   6.320  68.179  1.00  0.00    -0.364 C  
ENDROOT
BRANCH   2   4
HETATM    4  N   UNL     1      -9.619   6.557  70.046  1.00  0.00    -0.159 NA 
HETATM    5  H   UNL     1      -9.003   7.370  70.072  1.00  0.00     0.000 HD 
BRANCH   4   6
HETATM    6  C   UNL     1     -10.898   6.870  70.697  1.00  0.00    -0.245 C  
BRANCH   6   7
HETATM    7  C   UNL     1     -10.839   7.779  71.939  1.00  0.00    -0.235 C  
HETATM    8  O   UNL     1     -12.104   7.707  72.617  1.00  0.00    -0.548 OA 
HETATM    9  H   UNL     1     -12.068   8.268  73.383  1.00  0.00     0.000 HD 
BRANCH   7  10
HETATM   10  C   UNL     1     -10.547   9.237  71.570  1.00  0.00    -0.335 C  
BRANCH  10  11
HETATM   11  O   UNL     1     -11.804   9.914  71.394  1.00  0.00    -0.369 OA 
BRANCH  11  12
HETATM   12  C   UNL     1     -11.832  10.881  70.424  1.00  0.00    -0.357 A  
HETATM   13  C   UNL     1     -11.545  10.677  69.074  1.00  0.00    -0.332 A  
HETATM   14  C   UNL     1     -11.564  11.752  68.180  1.00  0.00    -0.391 A  
HETATM   15  C   UNL     1     -11.894  13.042  68.612  1.00  0.00    -0.353 A  
HETATM   16  C   UNL     1     -12.207  13.235  69.964  1.00  0.00    -0.345 A  
HETATM   17  C   UNL     1     -12.178  12.161  70.860  1.00  0.00    -0.310 A  
BRANCH  15  18
HETATM   18  C   UNL     1     -11.875  14.202  67.645  1.00  0.00    -0.427 C  
BRANCH  18  19
HETATM   19  C   UNL     1     -10.463  14.718  67.365  1.00  0.00    -0.256 C  
BRANCH  19  20
HETATM   20  O   UNL     1      -9.777  13.804  66.506  1.00  0.00    -0.277 OA 
BRANCH  20  21
HETATM   21  C   UNL     1     -10.365  13.802  65.205  1.00  0.00    -0.361 C  
BRANCH  21  22
HETATM   22  C   UNL     1     -10.712  12.398  64.827  1.00  0.00    -0.332 C  
HETATM   23  C   UNL     1     -11.940  12.140  63.989  1.00  0.00    -0.533 C  
HETATM   24  C   UNL     1     -10.573  11.921  63.403  1.00  0.00    -0.485 C  
ENDBRANCH  21  22
ENDBRANCH  20  21
ENDBRANCH  19  20
ENDBRANCH  18  19
ENDBRANCH  15  18
ENDBRANCH  11  12
ENDBRANCH  10  11
ENDBRANCH   7  10
ENDBRANCH   6   7
ENDBRANCH   4   6
ENDBRANCH   2   4
TORSDOF 11
ENDMDL
MODEL      124
REMARK 921   NORMALIZED FREE ENERGY PREDICTED BY IDOCK:   -4.12 KCAL/MOL
REMARK 922        TOTAL FREE ENERGY PREDICTED BY IDOCK:   -8.11 KCAL/MOL
REMARK 923 INTER-LIGAND FREE ENERGY PREDICTED BY IDOCK:   -7.08 KCAL/MOL
REMARK 924 INTRA-LIGAND FREE ENERGY PREDICTED BY IDOCK:   -1.03 KCAL/MOL
REMARK 927      BINDING AFFINITY PREDICTED BY RF-SCORE:    0.00 PKD
ROOT
HETATM    1  C   UNL     1     -11.968   7.292  72.429  1.00  0.00    -0.202 C  
HETATM    2  C   UNL     1     -13.004   8.217  71.789  1.00  0.00    -0.344 C  
HETATM    3  C   UNL     1     -14.362   7.508  71.734  1.00  0.00    -0.588 C  
ENDROOT
BRANCH   2   4
HETATM    4  N   UNL     1     -13.183   9.479  72.520  1.00  0.00    -0.562 NA 
HETATM    5  H   UNL     1     -12.435   9.599  73.203  1.00  0.00     0.000 HD 
BRANCH   4   6
HETATM    6  C   UNL     1     -13.295  10.676  71.676  1.00  0.00    -0.307 C  
BRANCH   6   7
HETATM    7  C   UNL     1     -12.001  11.169  70.998  1.00  0.00    -0.163 C  
HETATM    8  O   UNL     1     -12.044  12.603  70.925  1.00  0.00    -0.456 OA 
HETATM    9  H   UNL     1     -11.247  12.907  70.507  1.00  0.00     0.000 HD 
BRANCH   7  10
HETATM   10  C   UNL     1     -11.839  10.597  69.587  1.00  0.00    -0.286 C  
BRANCH  10  11
HETATM   11  O   UNL     1     -10.444  10.313  69.377  1.00  0.00    -0.206 OA 
BRANCH  11  12
HETATM   12  C   UNL     1      -9.997  10.431  68.088  1.00  0.00    -0.149 A  
HETATM   13  C   UNL     1      -9.202  11.468  67.601  1.00  0.00    -0.171 A  
HETATM   14  C   UNL     1      -8.842  11.505  66.251  1.00  0.00    -0.186 A  
HETATM   15  C   UNL     1      -9.247  10.496  65.369  1.00  0.00    -0.229 A  
HETATM   16  C   UNL     1     -10.023   9.443  65.869  1.00  0.00    -0.327 A  
HETATM   17  C   UNL     1     -10.392   9.412  67.219  1.00  0.00    -0.325 A  
BRANCH  15  18
HETATM   18  C   UNL     1      -8.883  10.566  63.905  1.00  0.00    -0.203 C  
BRANCH  18  19
HETATM   19  C   UNL     1      -9.765  11.539  63.120  1.00  0.00    -0.390 C  
BRANCH  19  20
HETATM   20  O   UNL     1     -11.130  11.376  63.513  1.00  0.00    -0.399 OA 
BRANCH  20  21
HETATM   21  C   UNL     1     -11.787  12.642  63.577  1.00  0.00    -0.541 C  
BRANCH  21  22
HETATM   22  C   UNL     1     -12.355  12.830  64.946  1.00  0.00    -0.551 C  
HETATM   23  C   UNL     1     -11.696  13.803  65.892  1.00  0.00    -0.370 C  
HETATM   24  C   UNL     1     -13.055  14.111  65.328  1.00  0.00    -0.123 C  
ENDBRANCH  21  22
ENDBRANCH  20  21
ENDBRANCH  19  20
ENDBRANCH  18  19
ENDBRANCH  15  18
ENDBRANCH  11  12
ENDBRANCH  10  11
ENDBRANCH   7  10
ENDBRANCH   6   7
ENDBRANCH   4   6
ENDBRANCH   2   4
TORSDOF 11
ENDMDL
MODEL      125
REMARK 921   NORMALIZED FREE ENERGY PREDICTED BY IDOCK:   -4.12 KCAL/MOL
REMARK 922        TOTAL FREE ENERGY PREDICTED BY IDOCK:   -8.10 KCAL/MOL
REMARK 923 INTER-LIGAND FREE ENERGY PREDICTED BY IDOCK:   -7.16 KCAL/MOL
REMARK 924 INTRA-LIGAND FREE ENERGY PREDICTED BY IDOCK:   -0.94 KCAL/MOL
REMARK 927      BINDING AFFINITY PREDICTED BY RF-SCORE:    0.00 PKD
ROOT
HETATM    1  C   UNL     1     -10.303  15.706  69.838  1.00  0.00    -0.322 C  
HETATM    2  C   UNL     1     -11.509  15.292  68.994  1.00  0.00    -0.324 C  
HETATM    3  C   UNL     1     -11.151  14.060  68.155  1.00  0.00    -0.280 C  
ENDROOT
BRANCH   2   4
HETATM    4  N   UNL     1     -12.694  14.964  69.798  1.00  0.00    -0.598 NA 
HETATM    5  H   UNL     1     -12.746  13.957  69.952  1.00  0.00     0.000 HD 
BRANCH   4   6
HETATM    6  C   UNL     1     -12.795  15.678  71.077  1.00  0.00    -0.463 C  
BRANCH   6   7
HETATM    7  C   UNL     1     -13.715  15.057  72.146  1.00  0.00    -0.453 C  
HETATM    8  O   UNL     1     -13.824  15.978  73.244  1.00  0.00    -0.723 OA 
HETATM    9  H   UNL     1     -14.391  15.595  73.903  1.00  0.00     0.000 HD 
BRANCH   7  10
HETATM   10  C   UNL     1     -13.175  13.720  72.662  1.00  0.00    -0.470 C  
BRANCH  10  11
HETATM   11  O   UNL     1     -13.909  12.663  72.018  1.00  0.00    -0.294 OA 
BRANCH  11  12
HETATM   12  C   UNL     1     -13.178  11.563  71.654  1.00  0.00    -0.286 A  
HETATM   13  C   UNL     1     -12.163  11.549  70.697  1.00  0.00    -0.473 A  
HETATM   14  C   UNL     1     -11.513  10.353  70.376  1.00  0.00    -0.420 A  
HETATM   15  C   UNL     1     -11.847   9.157  71.022  1.00  0.00    -0.354 A  
HETATM   16  C   UNL     1     -12.849   9.182  72.001  1.00  0.00    -0.483 A  
HETATM   17  C   UNL     1     -13.505  10.378  72.314  1.00  0.00    -0.195 A  
BRANCH  15  18
HETATM   18  C   UNL     1     -11.164   7.864  70.642  1.00  0.00    -0.269 C  
BRANCH  18  19
HETATM   19  C   UNL     1     -10.312   7.993  69.379  1.00  0.00    -0.217 C  
BRANCH  19  20
HETATM   20  O   UNL     1      -9.051   7.351  69.581  1.00  0.00    -0.141 OA 
BRANCH  20  21
HETATM   21  C   UNL     1      -9.126   6.430  70.670  1.00  0.00    -0.148 C  
BRANCH  21  22
HETATM   22  C   UNL     1      -7.755   5.925  70.980  1.00  0.00    -0.101 C  
HETATM   23  C   UNL     1      -7.498   5.246  72.303  1.00  0.00    -0.095 C  
HETATM   24  C   UNL     1      -7.464   4.446  71.031  1.00  0.00    -0.051 C  
ENDBRANCH  21  22
ENDBRANCH  20  21
ENDBRANCH  19  20
ENDBRANCH  18  19
ENDBRANCH  15  18
ENDBRANCH  11  12
ENDBRANCH  10  11
ENDBRANCH   7  10
ENDBRANCH   6   7
ENDBRANCH   4   6
ENDBRANCH   2   4
TORSDOF 11
ENDMDL
MODEL      126
REMARK 921   NORMALIZED FREE ENERGY PREDICTED BY IDOCK:   -4.11 KCAL/MOL
REMARK 922        TOTAL FREE ENERGY PREDICTED BY IDOCK:   -8.09 KCAL/MOL
REMARK 923 INTER-LIGAND FREE ENERGY PREDICTED BY IDOCK:   -7.55 KCAL/MOL
REMARK 924 INTRA-LIGAND FREE ENERGY PREDICTED BY IDOCK:   -0.55 KCAL/MOL
REMARK 927      BINDING AFFINITY PREDICTED BY RF-SCORE:    0.00 PKD
ROOT
HETATM    1  C   UNL     1      -5.507  18.770  69.814  1.00  0.00    -0.225 C  
HETATM    2  C   UNL     1      -6.533  19.812  69.367  1.00  0.00    -0.346 C  
HETATM    3  C   UNL     1      -5.944  20.661  68.235  1.00  0.00    -0.356 C  
ENDROOT
BRANCH   2   4
HETATM    4  N   UNL     1      -7.787  19.220  68.883  1.00  0.00    -0.352 NA 
HETATM    5  H   UNL     1      -8.562  19.867  69.031  1.00  0.00     0.000 HD 
BRANCH   4   6
HETATM    6  C   UNL     1      -7.764  18.770  67.485  1.00  0.00    -0.229 C  
BRANCH   6   7
HETATM    7  C   UNL     1      -8.783  17.682  67.091  1.00  0.00    -0.243 C  
HETATM    8  O   UNL     1      -9.489  18.123  65.920  1.00  0.00    -0.518 OA 
HETATM    9  H   UNL     1     -10.117  17.452  65.677  1.00  0.00     0.000 HD 
BRANCH   7  10
HETATM   10  C   UNL     1      -9.789  17.405  68.212  1.00  0.00    -0.310 C  
BRANCH  10  11
HETATM   11  O   UNL     1     -10.956  16.801  67.626  1.00  0.00    -0.290 OA 
BRANCH  11  12
HETATM   12  C   UNL     1     -11.237  15.524  68.033  1.00  0.00    -0.332 A  
HETATM   13  C   UNL     1     -11.422  15.120  69.355  1.00  0.00    -0.322 A  
HETATM   14  C   UNL     1     -11.662  13.776  69.654  1.00  0.00    -0.379 A  
HETATM   15  C   UNL     1     -11.746  12.816  68.639  1.00  0.00    -0.360 A  
HETATM   16  C   UNL     1     -11.586  13.232  67.311  1.00  0.00    -0.404 A  
HETATM   17  C   UNL     1     -11.336  14.576  67.013  1.00  0.00    -0.359 A  
BRANCH  15  18
HETATM   18  C   UNL     1     -11.969  11.361  68.976  1.00  0.00    -0.387 C  
BRANCH  18  19
HETATM   19  C   UNL     1     -12.228  11.130  70.466  1.00  0.00    -0.384 C  
BRANCH  19  20
HETATM   20  O   UNL     1     -12.456   9.739  70.705  1.00  0.00    -0.280 OA 
BRANCH  20  21
HETATM   21  C   UNL     1     -12.933   9.531  72.035  1.00  0.00    -0.426 C  
BRANCH  21  22
HETATM   22  C   UNL     1     -12.624   8.131  72.453  1.00  0.00    -0.268 C  
HETATM   23  C   UNL     1     -12.133   7.143  71.423  1.00  0.00    -0.381 C  
HETATM   24  C   UNL     1     -11.202   7.629  72.498  1.00  0.00    -0.399 C  
ENDBRANCH  21  22
ENDBRANCH  20  21
ENDBRANCH  19  20
ENDBRANCH  18  19
ENDBRANCH  15  18
ENDBRANCH  11  12
ENDBRANCH  10  11
ENDBRANCH   7  10
ENDBRANCH   6   7
ENDBRANCH   4   6
ENDBRANCH   2   4
TORSDOF 11
ENDMDL
MODEL      127
REMARK 921   NORMALIZED FREE ENERGY PREDICTED BY IDOCK:   -4.11 KCAL/MOL
REMARK 922        TOTAL FREE ENERGY PREDICTED BY IDOCK:   -8.09 KCAL/MOL
REMARK 923 INTER-LIGAND FREE ENERGY PREDICTED BY IDOCK:   -6.69 KCAL/MOL
REMARK 924 INTRA-LIGAND FREE ENERGY PREDICTED BY IDOCK:   -1.40 KCAL/MOL
REMARK 927      BINDING AFFINITY PREDICTED BY RF-SCORE:    0.00 PKD
ROOT
HETATM    1  C   UNL     1     -13.974   8.382  72.037  1.00  0.00    -0.468 C  
HETATM    2  C   UNL     1     -12.617   9.074  71.899  1.00  0.00    -0.382 C  
HETATM    3  C   UNL     1     -11.518   8.172  72.472  1.00  0.00    -0.470 C  
ENDROOT
BRANCH   2   4
HETATM    4  N   UNL     1     -12.266   9.387  70.507  1.00  0.00    -0.477 NA 
HETATM    5  H   UNL     1     -12.287  10.396  70.357  1.00  0.00     0.000 HD 
BRANCH   4   6
HETATM    6  C   UNL     1     -10.986   8.833  70.049  1.00  0.00    -0.209 C  
BRANCH   6   7
HETATM    7  C   UNL     1     -10.895   8.437  68.562  1.00  0.00     0.081 C  
HETATM    8  O   UNL     1      -9.880   7.430  68.420  1.00  0.00    -0.151 OA 
HETATM    9  H   UNL     1      -9.824   7.186  67.503  1.00  0.00     0.000 HD 
BRANCH   7  10
HETATM   10  C   UNL     1     -10.547   9.632  67.670  1.00  0.00    -0.275 C  
BRANCH  10  11
HETATM   11  O   UNL     1     -11.588  10.615  67.813  1.00  0.00    -0.501 OA 
BRANCH  11  12
HETATM   12  C   UNL     1     -11.182  11.863  68.207  1.00  0.00    -0.261 A  
HETATM   13  C   UNL     1     -11.972  12.793  68.882  1.00  0.00    -0.286 A  
HETATM   14  C   UNL     1     -11.461  14.056  69.195  1.00  0.00    -0.340 A  
HETATM   15  C   UNL     1     -10.146  14.403  68.864  1.00  0.00    -0.202 A  
HETATM   16  C   UNL     1      -9.349  13.456  68.210  1.00  0.00    -0.205 A  
HETATM   17  C   UNL     1      -9.864  12.195  67.887  1.00  0.00    -0.199 A  
BRANCH  15  18
HETATM   18  C   UNL     1      -9.617  15.784  69.174  1.00  0.00    -0.255 C  
BRANCH  18  19
HETATM   19  C   UNL     1      -9.348  16.612  67.917  1.00  0.00    -0.221 C  
BRANCH  19  20
HETATM   20  O   UNL     1     -10.550  16.734  67.153  1.00  0.00    -0.315 OA 
BRANCH  20  21
HETATM   21  C   UNL     1     -10.368  16.198  65.843  1.00  0.00    -0.367 C  
BRANCH  21  22
HETATM   22  C   UNL     1     -11.237  14.993  65.682  1.00  0.00    -0.327 C  
HETATM   23  C   UNL     1     -12.025  14.814  64.407  1.00  0.00    -0.433 C  
HETATM   24  C   UNL     1     -10.873  13.897  64.712  1.00  0.00    -0.430 C  
ENDBRANCH  21  22
ENDBRANCH  20  21
ENDBRANCH  19  20
ENDBRANCH  18  19
ENDBRANCH  15  18
ENDBRANCH  11  12
ENDBRANCH  10  11
ENDBRANCH   7  10
ENDBRANCH   6   7
ENDBRANCH   4   6
ENDBRANCH   2   4
TORSDOF 11
ENDMDL
MODEL      128
REMARK 921   NORMALIZED FREE ENERGY PREDICTED BY IDOCK:   -4.09 KCAL/MOL
REMARK 922        TOTAL FREE ENERGY PREDICTED BY IDOCK:   -8.05 KCAL/MOL
REMARK 923 INTER-LIGAND FREE ENERGY PREDICTED BY IDOCK:   -7.42 KCAL/MOL
REMARK 924 INTRA-LIGAND FREE ENERGY PREDICTED BY IDOCK:   -0.64 KCAL/MOL
REMARK 927      BINDING AFFINITY PREDICTED BY RF-SCORE:    0.00 PKD
ROOT
HETATM    1  C   UNL     1     -11.106   6.542  69.637  1.00  0.00    -0.435 C  
HETATM    2  C   UNL     1     -10.498   7.934  69.463  1.00  0.00    -0.226 C  
HETATM    3  C   UNL     1     -10.631   8.376  68.001  1.00  0.00    -0.191 C  
ENDROOT
BRANCH   2   4
HETATM    4  N   UNL     1     -11.137   8.955  70.304  1.00  0.00    -0.271 NA 
HETATM    5  H   UNL     1     -11.781   9.517  69.747  1.00  0.00     0.000 HD 
BRANCH   4   6
HETATM    6  C   UNL     1     -11.819   8.439  71.498  1.00  0.00    -0.297 C  
BRANCH   6   7
HETATM    7  C   UNL     1     -12.693   9.438  72.282  1.00  0.00    -0.341 C  
HETATM    8  O   UNL     1     -13.789   8.719  72.871  1.00  0.00    -0.821 OA 
HETATM    9  H   UNL     1     -14.328   9.334  73.354  1.00  0.00     0.000 HD 
BRANCH   7  10
HETATM   10  C   UNL     1     -13.244  10.548  71.382  1.00  0.00    -0.345 C  
BRANCH  10  11
HETATM   11  O   UNL     1     -13.197  11.784  72.117  1.00  0.00    -0.498 OA 
BRANCH  11  12
HETATM   12  C   UNL     1     -12.821  12.891  71.403  1.00  0.00    -0.283 A  
HETATM   13  C   UNL     1     -13.302  14.184  71.606  1.00  0.00    -0.440 A  
HETATM   14  C   UNL     1     -12.876  15.231  70.783  1.00  0.00    -0.494 A  
HETATM   15  C   UNL     1     -11.945  15.011  69.761  1.00  0.00    -0.366 A  
HETATM   16  C   UNL     1     -11.445  13.716  69.579  1.00  0.00    -0.324 A  
HETATM   17  C   UNL     1     -11.879  12.666  70.397  1.00  0.00    -0.238 A  
BRANCH  15  18
HETATM   18  C   UNL     1     -11.520  16.143  68.855  1.00  0.00    -0.331 C  
BRANCH  18  19
HETATM   19  C   UNL     1     -10.315  16.915  69.395  1.00  0.00    -0.250 C  
BRANCH  19  20
HETATM   20  O   UNL     1      -9.125  16.472  68.738  1.00  0.00    -0.237 OA 
BRANCH  20  21
HETATM   21  C   UNL     1      -8.852  17.283  67.595  1.00  0.00    -0.220 C  
BRANCH  21  22
HETATM   22  C   UNL     1      -8.283  18.589  68.046  1.00  0.00    -0.286 C  
HETATM   23  C   UNL     1      -7.093  18.597  68.973  1.00  0.00    -0.300 C  
HETATM   24  C   UNL     1      -6.939  19.063  67.552  1.00  0.00    -0.223 C  
ENDBRANCH  21  22
ENDBRANCH  20  21
ENDBRANCH  19  20
ENDBRANCH  18  19
ENDBRANCH  15  18
ENDBRANCH  11  12
ENDBRANCH  10  11
ENDBRANCH   7  10
ENDBRANCH   6   7
ENDBRANCH   4   6
ENDBRANCH   2   4
TORSDOF 11
ENDMDL
MODEL      129
REMARK 921   NORMALIZED FREE ENERGY PREDICTED BY IDOCK:   -4.07 KCAL/MOL
REMARK 922        TOTAL FREE ENERGY PREDICTED BY IDOCK:   -8.02 KCAL/MOL
REMARK 923 INTER-LIGAND FREE ENERGY PREDICTED BY IDOCK:   -6.76 KCAL/MOL
REMARK 924 INTRA-LIGAND FREE ENERGY PREDICTED BY IDOCK:   -1.26 KCAL/MOL
REMARK 927      BINDING AFFINITY PREDICTED BY RF-SCORE:    0.00 PKD
ROOT
HETATM    1  C   UNL     1      -8.067  12.805  67.776  1.00  0.00    -0.168 C  
HETATM    2  C   UNL     1      -7.267  11.520  67.998  1.00  0.00    -0.085 C  
HETATM    3  C   UNL     1      -7.859  10.742  69.178  1.00  0.00    -0.142 C  
ENDROOT
BRANCH   2   4
HETATM    4  N   UNL     1      -7.264  10.632  66.827  1.00  0.00    -0.112 NA 
HETATM    5  H   UNL     1      -7.293   9.657  67.125  1.00  0.00     0.000 HD 
BRANCH   4   6
HETATM    6  C   UNL     1      -8.324  10.893  65.845  1.00  0.00    -0.149 C  
BRANCH   6   7
HETATM    7  C   UNL     1      -9.537   9.942  65.865  1.00  0.00    -0.239 C  
HETATM    8  O   UNL     1      -9.390   8.994  64.796  1.00  0.00    -0.441 OA 
HETATM    9  H   UNL     1     -10.138   8.408  64.809  1.00  0.00     0.000 HD 
BRANCH   7  10
HETATM   10  C   UNL     1     -10.859  10.695  65.693  1.00  0.00     0.060 C  
BRANCH  10  11
HETATM   11  O   UNL     1     -11.525  10.727  66.968  1.00  0.00    -0.349 OA 
BRANCH  11  12
HETATM   12  C   UNL     1     -11.597  11.952  67.576  1.00  0.00    -0.304 A  
HETATM   13  C   UNL     1     -11.580  12.172  68.953  1.00  0.00    -0.377 A  
HETATM   14  C   UNL     1     -11.704  13.469  69.461  1.00  0.00    -0.382 A  
HETATM   15  C   UNL     1     -11.819  14.570  68.604  1.00  0.00    -0.355 A  
HETATM   16  C   UNL     1     -11.809  14.345  67.222  1.00  0.00    -0.434 A  
HETATM   17  C   UNL     1     -11.695  13.046  66.714  1.00  0.00    -0.440 A  
BRANCH  15  18
HETATM   18  C   UNL     1     -11.989  15.962  69.164  1.00  0.00    -0.268 C  
BRANCH  18  19
HETATM   19  C   UNL     1     -10.656  16.638  69.487  1.00  0.00    -0.308 C  
BRANCH  19  20
HETATM   20  O   UNL     1     -10.142  17.277  68.315  1.00  0.00    -0.284 OA 
BRANCH  20  21
HETATM   21  C   UNL     1      -9.791  18.632  68.597  1.00  0.00    -0.385 C  
BRANCH  21  22
HETATM   22  C   UNL     1     -10.408  19.521  67.567  1.00  0.00    -0.567 C  
HETATM   23  C   UNL     1      -9.552  20.060  66.447  1.00  0.00    -0.536 C  
HETATM   24  C   UNL     1     -10.618  19.042  66.152  1.00  0.00    -0.495 C  
ENDBRANCH  21  22
ENDBRANCH  20  21
ENDBRANCH  19  20
ENDBRANCH  18  19
ENDBRANCH  15  18
ENDBRANCH  11  12
ENDBRANCH  10  11
ENDBRANCH   7  10
ENDBRANCH   6   7
ENDBRANCH   4   6
ENDBRANCH   2   4
TORSDOF 11
ENDMDL
MODEL      130
REMARK 921   NORMALIZED FREE ENERGY PREDICTED BY IDOCK:   -4.04 KCAL/MOL
REMARK 922        TOTAL FREE ENERGY PREDICTED BY IDOCK:   -7.97 KCAL/MOL
REMARK 923 INTER-LIGAND FREE ENERGY PREDICTED BY IDOCK:   -6.72 KCAL/MOL
REMARK 924 INTRA-LIGAND FREE ENERGY PREDICTED BY IDOCK:   -1.26 KCAL/MOL
REMARK 927      BINDING AFFINITY PREDICTED BY RF-SCORE:    0.00 PKD
ROOT
HETATM    1  C   UNL     1     -14.357   7.442  71.804  1.00  0.00    -0.586 C  
HETATM    2  C   UNL     1     -12.980   7.775  71.229  1.00  0.00    -0.221 C  
HETATM    3  C   UNL     1     -12.286   8.810  72.120  1.00  0.00    -0.448 C  
ENDROOT
BRANCH   2   4
HETATM    4  N   UNL     1     -12.098   6.604  71.123  1.00  0.00    -0.363 NA 
HETATM    5  H   UNL     1     -12.617   5.752  71.337  1.00  0.00     0.000 HD 
BRANCH   4   6
HETATM    6  C   UNL     1     -11.402   6.464  69.838  1.00  0.00    -0.434 C  
BRANCH   6   7
HETATM    7  C   UNL     1      -9.912   6.856  69.811  1.00  0.00    -0.178 C  
HETATM    8  O   UNL     1      -9.344   6.577  71.101  1.00  0.00    -0.163 OA 
HETATM    9  H   UNL     1      -8.425   6.818  71.084  1.00  0.00     0.000 HD 
BRANCH   7  10
HETATM   10  C   UNL     1      -9.714   8.339  69.484  1.00  0.00    -0.174 C  
BRANCH  10  11
HETATM   11  O   UNL     1     -10.513   8.653  68.329  1.00  0.00    -0.218 OA 
BRANCH  11  12
HETATM   12  C   UNL     1     -10.865   9.969  68.185  1.00  0.00    -0.255 A  
HETATM   13  C   UNL     1     -11.362  10.787  69.199  1.00  0.00    -0.348 A  
HETATM   14  C   UNL     1     -11.729  12.107  68.923  1.00  0.00    -0.381 A  
HETATM   15  C   UNL     1     -11.583  12.641  67.637  1.00  0.00    -0.414 A  
HETATM   16  C   UNL     1     -11.059  11.823  66.629  1.00  0.00    -0.364 A  
HETATM   17  C   UNL     1     -10.701  10.498  66.904  1.00  0.00    -0.281 A  
BRANCH  15  18
HETATM   18  C   UNL     1     -12.018  14.057  67.341  1.00  0.00    -0.439 C  
BRANCH  18  19
HETATM   19  C   UNL     1     -11.977  14.960  68.575  1.00  0.00    -0.241 C  
BRANCH  19  20
HETATM   20  O   UNL     1     -11.191  16.122  68.296  1.00  0.00    -0.352 OA 
BRANCH  20  21
HETATM   21  C   UNL     1     -10.169  16.284  69.280  1.00  0.00    -0.269 C  
BRANCH  21  22
HETATM   22  C   UNL     1      -9.188  15.164  69.156  1.00  0.00    -0.215 C  
HETATM   23  C   UNL     1      -8.326  15.069  67.921  1.00  0.00    -0.151 C  
HETATM   24  C   UNL     1      -7.704  15.418  69.244  1.00  0.00    -0.221 C  
ENDBRANCH  21  22
ENDBRANCH  20  21
ENDBRANCH  19  20
ENDBRANCH  18  19
ENDBRANCH  15  18
ENDBRANCH  11  12
ENDBRANCH  10  11
ENDBRANCH   7  10
ENDBRANCH   6   7
ENDBRANCH   4   6
ENDBRANCH   2   4
TORSDOF 11
ENDMDL
MODEL      131
REMARK 921   NORMALIZED FREE ENERGY PREDICTED BY IDOCK:   -4.04 KCAL/MOL
REMARK 922        TOTAL FREE ENERGY PREDICTED BY IDOCK:   -7.97 KCAL/MOL
REMARK 923 INTER-LIGAND FREE ENERGY PREDICTED BY IDOCK:   -6.69 KCAL/MOL
REMARK 924 INTRA-LIGAND FREE ENERGY PREDICTED BY IDOCK:   -1.28 KCAL/MOL
REMARK 927      BINDING AFFINITY PREDICTED BY RF-SCORE:    0.00 PKD
ROOT
HETATM    1  C   UNL     1      -7.427  13.073  67.839  1.00  0.00    -0.137 C  
HETATM    2  C   UNL     1      -8.265  14.196  68.451  1.00  0.00    -0.149 C  
HETATM    3  C   UNL     1      -8.515  15.283  67.401  1.00  0.00    -0.197 C  
ENDROOT
BRANCH   2   4
HETATM    4  N   UNL     1      -9.571  13.738  68.948  1.00  0.00    -0.412 NA 
HETATM    5  H   UNL     1      -9.466  13.307  69.866  1.00  0.00     0.000 HD 
BRANCH   4   6
HETATM    6  C   UNL     1     -10.617  14.768  68.987  1.00  0.00    -0.248 C  
BRANCH   6   7
HETATM    7  C   UNL     1     -12.045  14.293  69.319  1.00  0.00    -0.313 C  
HETATM    8  O   UNL     1     -12.798  15.416  69.803  1.00  0.00    -0.628 OA 
HETATM    9  H   UNL     1     -13.678  15.123  70.008  1.00  0.00     0.000 HD 
BRANCH   7  10
HETATM   10  C   UNL     1     -12.050  13.187  70.379  1.00  0.00    -0.317 C  
BRANCH  10  11
HETATM   11  O   UNL     1     -12.219  11.926  69.709  1.00  0.00    -0.251 OA 
BRANCH  11  12
HETATM   12  C   UNL     1     -12.011  10.809  70.475  1.00  0.00    -0.361 A  
HETATM   13  C   UNL     1     -12.940  10.247  71.351  1.00  0.00    -0.540 A  
HETATM   14  C   UNL     1     -12.598   9.128  72.116  1.00  0.00    -0.451 A  
HETATM   15  C   UNL     1     -11.335   8.535  72.001  1.00  0.00    -0.425 A  
HETATM   16  C   UNL     1     -10.417   9.088  71.101  1.00  0.00    -0.363 A  
HETATM   17  C   UNL     1     -10.755  10.215  70.343  1.00  0.00    -0.329 A  
BRANCH  15  18
HETATM   18  C   UNL     1     -10.965   7.349  72.860  1.00  0.00    -0.408 C  
BRANCH  18  19
HETATM   19  C   UNL     1     -11.551   6.035  72.341  1.00  0.00    -0.300 C  
BRANCH  19  20
HETATM   20  O   UNL     1     -10.493   5.154  71.954  1.00  0.00    -0.211 OA 
BRANCH  20  21
HETATM   21  C   UNL     1     -10.386   5.095  70.531  1.00  0.00    -0.243 C  
BRANCH  21  22
HETATM   22  C   UNL     1      -8.952   5.254  70.141  1.00  0.00    -0.156 C  
HETATM   23  C   UNL     1      -8.497   6.546  69.508  1.00  0.00    -0.131 C  
HETATM   24  C   UNL     1      -8.041   6.190  70.896  1.00  0.00    -0.121 C  
ENDBRANCH  21  22
ENDBRANCH  20  21
ENDBRANCH  19  20
ENDBRANCH  18  19
ENDBRANCH  15  18
ENDBRANCH  11  12
ENDBRANCH  10  11
ENDBRANCH   7  10
ENDBRANCH   6   7
ENDBRANCH   4   6
ENDBRANCH   2   4
TORSDOF 11
ENDMDL
MODEL      132
REMARK 921   NORMALIZED FREE ENERGY PREDICTED BY IDOCK:   -4.03 KCAL/MOL
REMARK 922        TOTAL FREE ENERGY PREDICTED BY IDOCK:   -7.95 KCAL/MOL
REMARK 923 INTER-LIGAND FREE ENERGY PREDICTED BY IDOCK:   -6.72 KCAL/MOL
REMARK 924 INTRA-LIGAND FREE ENERGY PREDICTED BY IDOCK:   -1.23 KCAL/MOL
REMARK 927      BINDING AFFINITY PREDICTED BY RF-SCORE:    0.00 PKD
ROOT
HETATM    1  C   UNL     1     -12.695   7.146  71.332  1.00  0.00    -0.433 C  
HETATM    2  C   UNL     1     -11.469   6.307  70.971  1.00  0.00    -0.306 C  
HETATM    3  C   UNL     1     -11.325   6.235  69.447  1.00  0.00    -0.448 C  
ENDROOT
BRANCH   2   4
HETATM    4  N   UNL     1     -10.217   6.845  71.519  1.00  0.00    -0.196 NA 
HETATM    5  H   UNL     1      -9.425   6.282  71.206  1.00  0.00     0.000 HD 
BRANCH   4   6
HETATM    6  C   UNL     1      -9.972   8.265  71.234  1.00  0.00    -0.192 C  
BRANCH   6   7
HETATM    7  C   UNL     1      -8.727   8.598  70.389  1.00  0.00    -0.155 C  
HETATM    8  O   UNL     1      -7.916   9.531  71.122  1.00  0.00    -0.315 OA 
HETATM    9  H   UNL     1      -7.148   9.736  70.602  1.00  0.00     0.000 HD 
BRANCH   7  10
HETATM   10  C   UNL     1      -9.098   9.208  69.034  1.00  0.00    -0.143 C  
BRANCH  10  11
HETATM   11  O   UNL     1      -9.353  10.610  69.230  1.00  0.00    -0.187 OA 
BRANCH  11  12
HETATM   12  C   UNL     1     -10.120  11.218  68.271  1.00  0.00    -0.188 A  
HETATM   13  C   UNL     1     -11.122  12.156  68.515  1.00  0.00    -0.295 A  
HETATM   14  C   UNL     1     -11.872  12.678  67.457  1.00  0.00    -0.396 A  
HETATM   15  C   UNL     1     -11.617  12.292  66.135  1.00  0.00    -0.450 A  
HETATM   16  C   UNL     1     -10.592  11.369  65.894  1.00  0.00    -0.317 A  
HETATM   17  C   UNL     1      -9.849  10.839  66.955  1.00  0.00    -0.221 A  
BRANCH  15  18
HETATM   18  C   UNL     1     -12.457  12.834  65.003  1.00  0.00    -0.572 C  
BRANCH  18  19
HETATM   19  C   UNL     1     -12.551  14.360  65.012  1.00  0.00    -0.301 C  
BRANCH  19  20
HETATM   20  O   UNL     1     -11.456  14.914  64.278  1.00  0.00    -0.256 OA 
BRANCH  20  21
HETATM   21  C   UNL     1     -10.831  15.960  65.023  1.00  0.00    -0.426 C  
BRANCH  21  22
HETATM   22  C   UNL     1      -9.587  15.432  65.659  1.00  0.00    -0.323 C  
HETATM   23  C   UNL     1      -8.576  16.401  66.222  1.00  0.00    -0.375 C  
HETATM   24  C   UNL     1      -9.375  15.529  67.150  1.00  0.00    -0.227 C  
ENDBRANCH  21  22
ENDBRANCH  20  21
ENDBRANCH  19  20
ENDBRANCH  18  19
ENDBRANCH  15  18
ENDBRANCH  11  12
ENDBRANCH  10  11
ENDBRANCH   7  10
ENDBRANCH   6   7
ENDBRANCH   4   6
ENDBRANCH   2   4
TORSDOF 11
ENDMDL
MODEL      133
REMARK 921   NORMALIZED FREE ENERGY PREDICTED BY IDOCK:   -4.03 KCAL/MOL
REMARK 922        TOTAL FREE ENERGY PREDICTED BY IDOCK:   -7.95 KCAL/MOL
REMARK 923 INTER-LIGAND FREE ENERGY PREDICTED BY IDOCK:   -6.94 KCAL/MOL
REMARK 924 INTRA-LIGAND FREE ENERGY PREDICTED BY IDOCK:   -1.01 KCAL/MOL
REMARK 927      BINDING AFFINITY PREDICTED BY RF-SCORE:    0.00 PKD
ROOT
HETATM    1  C   UNL     1      -9.052  18.139  66.385  1.00  0.00    -0.255 C  
HETATM    2  C   UNL     1      -9.688  18.628  67.686  1.00  0.00    -0.303 C  
HETATM    3  C   UNL     1     -10.175  20.071  67.511  1.00  0.00    -0.551 C  
ENDROOT
BRANCH   2   4
HETATM    4  N   UNL     1     -10.834  17.813  68.113  1.00  0.00    -0.274 NA 
HETATM    5  H   UNL     1     -11.428  17.595  67.313  1.00  0.00     0.000 HD 
BRANCH   4   6
HETATM    6  C   UNL     1     -10.487  16.582  68.835  1.00  0.00    -0.304 C  
BRANCH   6   7
HETATM    7  C   UNL     1     -11.560  15.477  68.875  1.00  0.00    -0.373 C  
HETATM    8  O   UNL     1     -11.764  15.089  70.243  1.00  0.00    -0.258 OA 
HETATM    9  H   UNL     1     -12.426  14.408  70.268  1.00  0.00     0.000 HD 
BRANCH   7  10
HETATM   10  C   UNL     1     -11.148  14.247  68.059  1.00  0.00    -0.269 C  
BRANCH  10  11
HETATM   11  O   UNL     1     -12.082  13.190  68.341  1.00  0.00    -0.318 OA 
BRANCH  11  12
HETATM   12  C   UNL     1     -11.549  11.932  68.439  1.00  0.00    -0.317 A  
HETATM   13  C   UNL     1     -11.130  11.147  67.364  1.00  0.00    -0.370 A  
HETATM   14  C   UNL     1     -10.641   9.856  67.583  1.00  0.00    -0.325 A  
HETATM   15  C   UNL     1     -10.536   9.336  68.879  1.00  0.00    -0.222 A  
HETATM   16  C   UNL     1     -10.933  10.138  69.956  1.00  0.00    -0.364 A  
HETATM   17  C   UNL     1     -11.432  11.427  69.735  1.00  0.00    -0.376 A  
BRANCH  15  18
HETATM   18  C   UNL     1     -10.041   7.926  69.101  1.00  0.00    -0.197 C  
BRANCH  18  19
HETATM   19  C   UNL     1     -11.027   6.866  68.609  1.00  0.00    -0.145 C  
BRANCH  19  20
HETATM   20  O   UNL     1     -11.422   6.032  69.701  1.00  0.00    -0.394 OA 
BRANCH  20  21
HETATM   21  C   UNL     1     -10.864   6.511  70.925  1.00  0.00    -0.253 C  
BRANCH  21  22
HETATM   22  C   UNL     1     -11.960   6.699  71.922  1.00  0.00    -0.386 C  
HETATM   23  C   UNL     1     -12.106   8.030  72.619  1.00  0.00    -0.283 C  
HETATM   24  C   UNL     1     -13.141   7.589  71.621  1.00  0.00    -0.401 C  
ENDBRANCH  21  22
ENDBRANCH  20  21
ENDBRANCH  19  20
ENDBRANCH  18  19
ENDBRANCH  15  18
ENDBRANCH  11  12
ENDBRANCH  10  11
ENDBRANCH   7  10
ENDBRANCH   6   7
ENDBRANCH   4   6
ENDBRANCH   2   4
TORSDOF 11
ENDMDL
MODEL      134
REMARK 921   NORMALIZED FREE ENERGY PREDICTED BY IDOCK:   -4.02 KCAL/MOL
REMARK 922        TOTAL FREE ENERGY PREDICTED BY IDOCK:   -7.94 KCAL/MOL
REMARK 923 INTER-LIGAND FREE ENERGY PREDICTED BY IDOCK:   -6.64 KCAL/MOL
REMARK 924 INTRA-LIGAND FREE ENERGY PREDICTED BY IDOCK:   -1.30 KCAL/MOL
REMARK 927      BINDING AFFINITY PREDICTED BY RF-SCORE:    0.00 PKD
ROOT
HETATM    1  C   UNL     1     -12.668  13.892  65.408  1.00  0.00    -0.525 C  
HETATM    2  C   UNL     1     -11.442  13.029  65.712  1.00  0.00    -0.332 C  
HETATM    3  C   UNL     1     -11.527  12.503  67.149  1.00  0.00    -0.414 C  
ENDROOT
BRANCH   2   4
HETATM    4  N   UNL     1     -11.311  11.873  64.815  1.00  0.00    -0.307 NA 
HETATM    5  H   UNL     1     -12.230  11.479  64.613  1.00  0.00     0.000 HD 
BRANCH   4   6
HETATM    6  C   UNL     1     -10.587  12.136  63.564  1.00  0.00    -0.458 C  
BRANCH   6   7
HETATM    7  C   UNL     1      -9.439  11.169  63.213  1.00  0.00    -0.332 C  
HETATM    8  O   UNL     1      -9.958  10.140  62.354  1.00  0.00    -0.687 OA 
HETATM    9  H   UNL     1      -9.251   9.543  62.137  1.00  0.00     0.000 HD 
BRANCH   7  10
HETATM   10  C   UNL     1      -8.830  10.523  64.461  1.00  0.00    -0.200 C  
BRANCH  10  11
HETATM   11  O   UNL     1      -9.735   9.507  64.927  1.00  0.00    -0.214 OA 
BRANCH  11  12
HETATM   12  C   UNL     1      -9.740   9.285  66.279  1.00  0.00    -0.271 A  
HETATM   13  C   UNL     1     -10.561   8.375  66.944  1.00  0.00    -0.285 A  
HETATM   14  C   UNL     1     -10.508   8.265  68.336  1.00  0.00    -0.206 A  
HETATM   15  C   UNL     1      -9.617   9.042  69.086  1.00  0.00    -0.161 A  
HETATM   16  C   UNL     1      -8.776   9.935  68.411  1.00  0.00    -0.120 A  
HETATM   17  C   UNL     1      -8.837  10.051  67.018  1.00  0.00    -0.147 A  
BRANCH  15  18
HETATM   18  C   UNL     1      -9.594   8.941  70.593  1.00  0.00    -0.262 C  
BRANCH  18  19
HETATM   19  C   UNL     1      -9.561   7.496  71.091  1.00  0.00    -0.158 C  
BRANCH  19  20
HETATM   20  O   UNL     1     -10.543   7.316  72.115  1.00  0.00    -0.204 OA 
BRANCH  20  21
HETATM   21  C   UNL     1     -11.156   8.563  72.445  1.00  0.00    -0.327 C  
BRANCH  21  22
HETATM   22  C   UNL     1     -12.560   8.569  71.935  1.00  0.00    -0.400 C  
HETATM   23  C   UNL     1     -13.459   9.737  72.258  1.00  0.00    -0.443 C  
HETATM   24  C   UNL     1     -12.987   9.523  70.847  1.00  0.00    -0.187 C  
ENDBRANCH  21  22
ENDBRANCH  20  21
ENDBRANCH  19  20
ENDBRANCH  18  19
ENDBRANCH  15  18
ENDBRANCH  11  12
ENDBRANCH  10  11
ENDBRANCH   7  10
ENDBRANCH   6   7
ENDBRANCH   4   6
ENDBRANCH   2   4
TORSDOF 11
ENDMDL
MODEL      135
REMARK 921   NORMALIZED FREE ENERGY PREDICTED BY IDOCK:   -4.01 KCAL/MOL
REMARK 922        TOTAL FREE ENERGY PREDICTED BY IDOCK:   -7.92 KCAL/MOL
REMARK 923 INTER-LIGAND FREE ENERGY PREDICTED BY IDOCK:   -7.06 KCAL/MOL
REMARK 924 INTRA-LIGAND FREE ENERGY PREDICTED BY IDOCK:   -0.87 KCAL/MOL
REMARK 927      BINDING AFFINITY PREDICTED BY RF-SCORE:    0.00 PKD
ROOT
HETATM    1  C   UNL     1     -10.053  19.411  68.498  1.00  0.00    -0.527 C  
HETATM    2  C   UNL     1     -10.858  19.064  67.246  1.00  0.00    -0.408 C  
HETATM    3  C   UNL     1     -10.169  19.654  66.010  1.00  0.00    -0.587 C  
ENDROOT
BRANCH   2   4
HETATM    4  N   UNL     1     -11.005  17.618  67.034  1.00  0.00    -0.050 NA 
HETATM    5  H   UNL     1     -11.960  17.399  66.747  1.00  0.00     0.000 HD 
BRANCH   4   6
HETATM    6  C   UNL     1     -10.045  17.025  66.094  1.00  0.00    -0.319 C  
BRANCH   6   7
HETATM    7  C   UNL     1     -10.597  15.974  65.111  1.00  0.00    -0.370 C  
HETATM    8  O   UNL     1     -11.422  16.643  64.144  1.00  0.00    -1.375 OA 
HETATM    9  H   UNL     1     -11.762  15.995  63.538  1.00  0.00     0.000 HD 
BRANCH   7  10
HETATM   10  C   UNL     1     -11.426  14.901  65.824  1.00  0.00    -0.281 C  
BRANCH  10  11
HETATM   11  O   UNL     1     -11.247  13.658  65.122  1.00  0.00    -0.298 OA 
BRANCH  11  12
HETATM   12  C   UNL     1     -11.158  12.537  65.904  1.00  0.00    -0.299 A  
HETATM   13  C   UNL     1     -11.603  12.435  67.222  1.00  0.00    -0.435 A  
HETATM   14  C   UNL     1     -11.418  11.249  67.938  1.00  0.00    -0.360 A  
HETATM   15  C   UNL     1     -10.811  10.136  67.344  1.00  0.00    -0.323 A  
HETATM   16  C   UNL     1     -10.390  10.236  66.012  1.00  0.00    -0.248 A  
HETATM   17  C   UNL     1     -10.566  11.427  65.299  1.00  0.00    -0.336 A  
BRANCH  15  18
HETATM   18  C   UNL     1     -10.583   8.872  68.138  1.00  0.00    -0.211 C  
BRANCH  18  19
HETATM   19  C   UNL     1     -10.012   7.734  67.291  1.00  0.00    -0.212 C  
BRANCH  19  20
HETATM   20  O   UNL     1      -8.948   7.093  67.999  1.00  0.00    -0.128 OA 
BRANCH  20  21
HETATM   21  C   UNL     1      -7.696   7.352  67.364  1.00  0.00    -0.114 C  
BRANCH  21  22
HETATM   22  C   UNL     1      -6.700   7.769  68.397  1.00  0.00    -0.062 C  
HETATM   23  C   UNL     1      -6.938   9.032  69.187  1.00  0.00    -0.058 C  
HETATM   24  C   UNL     1      -7.028   7.695  69.868  1.00  0.00    -0.054 C  
ENDBRANCH  21  22
ENDBRANCH  20  21
ENDBRANCH  19  20
ENDBRANCH  18  19
ENDBRANCH  15  18
ENDBRANCH  11  12
ENDBRANCH  10  11
ENDBRANCH   7  10
ENDBRANCH   6   7
ENDBRANCH   4   6
ENDBRANCH   2   4
TORSDOF 11
ENDMDL
MODEL      136
REMARK 921   NORMALIZED FREE ENERGY PREDICTED BY IDOCK:   -4.00 KCAL/MOL
REMARK 922        TOTAL FREE ENERGY PREDICTED BY IDOCK:   -7.90 KCAL/MOL
REMARK 923 INTER-LIGAND FREE ENERGY PREDICTED BY IDOCK:   -6.46 KCAL/MOL
REMARK 924 INTRA-LIGAND FREE ENERGY PREDICTED BY IDOCK:   -1.44 KCAL/MOL
REMARK 927      BINDING AFFINITY PREDICTED BY RF-SCORE:    0.00 PKD
ROOT
HETATM    1  C   UNL     1      -7.830  12.227  68.174  1.00  0.00    -0.148 C  
HETATM    2  C   UNL     1      -6.667  13.098  67.697  1.00  0.00    -0.160 C  
HETATM    3  C   UNL     1      -5.869  13.599  68.906  1.00  0.00    -0.083 C  
ENDROOT
BRANCH   2   4
HETATM    4  N   UNL     1      -5.739  12.388  66.806  1.00  0.00    -0.480 NA 
HETATM    5  H   UNL     1      -4.784  12.709  66.965  1.00  0.00     0.000 HD 
BRANCH   4   6
HETATM    6  C   UNL     1      -5.800  10.923  66.884  1.00  0.00    -0.072 C  
BRANCH   6   7
HETATM    7  C   UNL     1      -5.868  10.160  65.547  1.00  0.00    -0.094 C  
HETATM    8  O   UNL     1      -5.633  11.093  64.479  1.00  0.00    -0.455 OA 
HETATM    9  H   UNL     1      -5.675  10.623  63.654  1.00  0.00     0.000 HD 
BRANCH   7  10
HETATM   10  C   UNL     1      -7.227   9.486  65.338  1.00  0.00    -0.095 C  
BRANCH  10  11
HETATM   11  O   UNL     1      -7.773   9.955  64.092  1.00  0.00    -0.129 OA 
BRANCH  11  12
HETATM   12  C   UNL     1      -8.988  10.583  64.170  1.00  0.00    -0.218 A  
HETATM   13  C   UNL     1      -9.680  11.137  63.093  1.00  0.00    -0.401 A  
HETATM   14  C   UNL     1     -10.896  11.794  63.300  1.00  0.00    -0.400 A  
HETATM   15  C   UNL     1     -11.455  11.887  64.581  1.00  0.00    -0.345 A  
HETATM   16  C   UNL     1     -10.768  11.306  65.654  1.00  0.00    -0.279 A  
HETATM   17  C   UNL     1      -9.546  10.658  65.447  1.00  0.00    -0.282 A  
BRANCH  15  18
HETATM   18  C   UNL     1     -12.751  12.631  64.799  1.00  0.00    -0.460 C  
BRANCH  18  19
HETATM   19  C   UNL     1     -12.541  14.036  65.364  1.00  0.00    -0.505 C  
BRANCH  19  20
HETATM   20  O   UNL     1     -12.115  14.917  64.321  1.00  0.00    -0.465 OA 
BRANCH  20  21
HETATM   21  C   UNL     1     -11.066  15.769  64.782  1.00  0.00    -0.400 C  
BRANCH  21  22
HETATM   22  C   UNL     1     -10.231  15.025  65.773  1.00  0.00    -0.361 C  
HETATM   23  C   UNL     1      -8.979  15.668  66.316  1.00  0.00    -0.377 C  
HETATM   24  C   UNL     1     -10.165  15.459  67.216  1.00  0.00    -0.254 C  
ENDBRANCH  21  22
ENDBRANCH  20  21
ENDBRANCH  19  20
ENDBRANCH  18  19
ENDBRANCH  15  18
ENDBRANCH  11  12
ENDBRANCH  10  11
ENDBRANCH   7  10
ENDBRANCH   6   7
ENDBRANCH   4   6
ENDBRANCH   2   4
TORSDOF 11
ENDMDL
MODEL      137
REMARK 921   NORMALIZED FREE ENERGY PREDICTED BY IDOCK:   -3.99 KCAL/MOL
REMARK 922        TOTAL FREE ENERGY PREDICTED BY IDOCK:   -7.89 KCAL/MOL
REMARK 923 INTER-LIGAND FREE ENERGY PREDICTED BY IDOCK:   -6.90 KCAL/MOL
REMARK 924 INTRA-LIGAND FREE ENERGY PREDICTED BY IDOCK:   -0.99 KCAL/MOL
REMARK 927      BINDING AFFINITY PREDICTED BY RF-SCORE:    0.00 PKD
ROOT
HETATM    1  C   UNL     1     -12.037   9.807  71.153  1.00  0.00    -0.460 C  
HETATM    2  C   UNL     1     -13.143   9.107  71.944  1.00  0.00    -0.411 C  
HETATM    3  C   UNL     1     -13.969   8.223  71.004  1.00  0.00     0.005 C  
ENDROOT
BRANCH   2   4
HETATM    4  N   UNL     1     -12.631   8.259  73.029  1.00  0.00    -0.592 NA 
HETATM    5  H   UNL     1     -13.238   7.449  73.158  1.00  0.00     0.000 HD 
BRANCH   4   6
HETATM    6  C   UNL     1     -11.236   7.827  72.876  1.00  0.00    -0.376 C  
BRANCH   6   7
HETATM    7  C   UNL     1     -11.004   6.342  72.536  1.00  0.00    -0.251 C  
HETATM    8  O   UNL     1     -10.806   5.620  73.763  1.00  0.00    -0.347 OA 
HETATM    9  H   UNL     1     -10.663   4.704  73.554  1.00  0.00     0.000 HD 
BRANCH   7  10
HETATM   10  C   UNL     1      -9.783   6.143  71.633  1.00  0.00    -0.158 C  
BRANCH  10  11
HETATM   11  O   UNL     1     -10.235   5.590  70.384  1.00  0.00    -0.212 OA 
BRANCH  11  12
HETATM   12  C   UNL     1     -10.222   6.443  69.312  1.00  0.00    -0.192 A  
HETATM   13  C   UNL     1     -10.949   6.271  68.135  1.00  0.00    -0.412 A  
HETATM   14  C   UNL     1     -10.822   7.188  67.087  1.00  0.00    -0.403 A  
HETATM   15  C   UNL     1      -9.987   8.305  67.206  1.00  0.00    -0.289 A  
HETATM   16  C   UNL     1      -9.280   8.487  68.401  1.00  0.00    -0.135 A  
HETATM   17  C   UNL     1      -9.400   7.563  69.445  1.00  0.00    -0.152 A  
BRANCH  15  18
HETATM   18  C   UNL     1      -9.829   9.269  66.055  1.00  0.00    -0.363 C  
BRANCH  18  19
HETATM   19  C   UNL     1      -9.415  10.671  66.506  1.00  0.00    -0.169 C  
BRANCH  19  20
HETATM   20  O   UNL     1      -9.315  11.534  65.371  1.00  0.00    -0.217 OA 
BRANCH  20  21
HETATM   21  C   UNL     1     -10.416  11.324  64.485  1.00  0.00    -0.334 C  
BRANCH  21  22
HETATM   22  C   UNL     1     -11.087  12.632  64.221  1.00  0.00    -0.405 C  
HETATM   23  C   UNL     1     -12.278  12.678  63.295  1.00  0.00    -0.512 C  
HETATM   24  C   UNL     1     -12.463  12.924  64.767  1.00  0.00    -0.517 C  
ENDBRANCH  21  22
ENDBRANCH  20  21
ENDBRANCH  19  20
ENDBRANCH  18  19
ENDBRANCH  15  18
ENDBRANCH  11  12
ENDBRANCH  10  11
ENDBRANCH   7  10
ENDBRANCH   6   7
ENDBRANCH   4   6
ENDBRANCH   2   4
TORSDOF 11
ENDMDL
MODEL      138
REMARK 921   NORMALIZED FREE ENERGY PREDICTED BY IDOCK:   -3.97 KCAL/MOL
REMARK 922        TOTAL FREE ENERGY PREDICTED BY IDOCK:   -7.85 KCAL/MOL
REMARK 923 INTER-LIGAND FREE ENERGY PREDICTED BY IDOCK:   -6.92 KCAL/MOL
REMARK 924 INTRA-LIGAND FREE ENERGY PREDICTED BY IDOCK:   -0.93 KCAL/MOL
REMARK 927      BINDING AFFINITY PREDICTED BY RF-SCORE:    0.00 PKD
ROOT
HETATM    1  C   UNL     1     -10.439   4.988  66.316  1.00  0.00    -0.352 C  
HETATM    2  C   UNL     1     -11.034   5.985  67.311  1.00  0.00    -0.261 C  
HETATM    3  C   UNL     1     -10.428   5.751  68.699  1.00  0.00    -0.298 C  
ENDROOT
BRANCH   2   4
HETATM    4  N   UNL     1     -10.792   7.386  66.942  1.00  0.00    -0.557 NA 
HETATM    5  H   UNL     1     -11.036   8.002  67.718  1.00  0.00     0.000 HD 
BRANCH   4   6
HETATM    6  C   UNL     1      -9.432   7.680  66.472  1.00  0.00    -0.190 C  
BRANCH   6   7
HETATM    7  C   UNL     1      -9.012   9.162  66.447  1.00  0.00    -0.149 C  
HETATM    8  O   UNL     1      -8.608   9.544  67.772  1.00  0.00    -0.116 OA 
HETATM    9  H   UNL     1      -8.349  10.458  67.757  1.00  0.00     0.000 HD 
BRANCH   7  10
HETATM   10  C   UNL     1     -10.153  10.074  65.986  1.00  0.00    -0.248 C  
BRANCH  10  11
HETATM   11  O   UNL     1     -10.927  10.441  67.142  1.00  0.00    -0.267 OA 
BRANCH  11  12
HETATM   12  C   UNL     1     -11.091  11.785  67.350  1.00  0.00    -0.282 A  
HETATM   13  C   UNL     1     -10.647  12.794  66.496  1.00  0.00    -0.270 A  
HETATM   14  C   UNL     1     -10.834  14.137  66.835  1.00  0.00    -0.296 A  
HETATM   15  C   UNL     1     -11.489  14.496  68.019  1.00  0.00    -0.345 A  
HETATM   16  C   UNL     1     -11.957  13.479  68.860  1.00  0.00    -0.378 A  
HETATM   17  C   UNL     1     -11.760  12.134  68.525  1.00  0.00    -0.382 A  
BRANCH  15  18
HETATM   18  C   UNL     1     -11.653  15.950  68.394  1.00  0.00    -0.317 C  
BRANCH  18  19
HETATM   19  C   UNL     1     -10.850  16.337  69.636  1.00  0.00    -0.345 C  
BRANCH  19  20
HETATM   20  O   UNL     1     -10.262  17.627  69.448  1.00  0.00    -0.249 OA 
BRANCH  20  21
HETATM   21  C   UNL     1      -9.499  17.658  68.241  1.00  0.00    -0.295 C  
BRANCH  21  22
HETATM   22  C   UNL     1      -9.466  19.058  67.719  1.00  0.00    -0.353 C  
HETATM   23  C   UNL     1      -9.904  19.328  66.300  1.00  0.00    -0.456 C  
HETATM   24  C   UNL     1     -10.742  19.817  67.449  1.00  0.00    -0.515 C  
ENDBRANCH  21  22
ENDBRANCH  20  21
ENDBRANCH  19  20
ENDBRANCH  18  19
ENDBRANCH  15  18
ENDBRANCH  11  12
ENDBRANCH  10  11
ENDBRANCH   7  10
ENDBRANCH   6   7
ENDBRANCH   4   6
ENDBRANCH   2   4
TORSDOF 11
ENDMDL
MODEL      139
REMARK 921   NORMALIZED FREE ENERGY PREDICTED BY IDOCK:   -3.97 KCAL/MOL
REMARK 922        TOTAL FREE ENERGY PREDICTED BY IDOCK:   -7.85 KCAL/MOL
REMARK 923 INTER-LIGAND FREE ENERGY PREDICTED BY IDOCK:   -6.79 KCAL/MOL
REMARK 924 INTRA-LIGAND FREE ENERGY PREDICTED BY IDOCK:   -1.07 KCAL/MOL
REMARK 927      BINDING AFFINITY PREDICTED BY RF-SCORE:    0.00 PKD
ROOT
HETATM    1  C   UNL     1     -13.114  10.000  71.516  1.00  0.00    -0.531 C  
HETATM    2  C   UNL     1     -12.100   8.944  71.959  1.00  0.00    -0.371 C  
HETATM    3  C   UNL     1     -12.586   7.554  71.536  1.00  0.00    -0.385 C  
ENDROOT
BRANCH   2   4
HETATM    4  N   UNL     1     -10.762   9.149  71.387  1.00  0.00    -0.318 NA 
HETATM    5  H   UNL     1     -10.318   8.250  71.199  1.00  0.00     0.000 HD 
BRANCH   4   6
HETATM    6  C   UNL     1     -10.722   9.995  70.187  1.00  0.00    -0.307 C  
BRANCH   6   7
HETATM    7  C   UNL     1     -10.722   9.268  68.827  1.00  0.00    -0.154 C  
HETATM    8  O   UNL     1      -9.643   8.319  68.818  1.00  0.00    -0.148 OA 
HETATM    9  H   UNL     1      -9.643   7.872  67.980  1.00  0.00     0.000 HD 
BRANCH   7  10
HETATM   10  C   UNL     1     -10.548  10.241  67.657  1.00  0.00    -0.263 C  
BRANCH  10  11
HETATM   11  O   UNL     1     -11.703  11.097  67.611  1.00  0.00    -0.573 OA 
BRANCH  11  12
HETATM   12  C   UNL     1     -11.456  12.422  67.365  1.00  0.00    -0.352 A  
HETATM   13  C   UNL     1     -12.247  13.258  66.578  1.00  0.00    -0.389 A  
HETATM   14  C   UNL     1     -11.870  14.587  66.363  1.00  0.00    -0.361 A  
HETATM   15  C   UNL     1     -10.713  15.111  66.950  1.00  0.00    -0.308 A  
HETATM   16  C   UNL     1      -9.936  14.275  67.761  1.00  0.00    -0.227 A  
HETATM   17  C   UNL     1     -10.308  12.941  67.968  1.00  0.00    -0.230 A  
BRANCH  15  18
HETATM   18  C   UNL     1     -10.296  16.538  66.681  1.00  0.00    -0.298 C  
BRANCH  18  19
HETATM   19  C   UNL     1     -10.851  17.523  67.711  1.00  0.00    -0.249 C  
BRANCH  19  20
HETATM   20  O   UNL     1      -9.828  17.869  68.648  1.00  0.00    -0.340 OA 
BRANCH  20  21
HETATM   21  C   UNL     1      -8.877  18.749  68.048  1.00  0.00    -0.300 C  
BRANCH  21  22
HETATM   22  C   UNL     1      -7.499  18.319  68.437  1.00  0.00    -0.292 C  
HETATM   23  C   UNL     1      -7.241  16.868  68.760  1.00  0.00    -0.220 C  
HETATM   24  C   UNL     1      -6.660  17.473  67.513  1.00  0.00    -0.172 C  
ENDBRANCH  21  22
ENDBRANCH  20  21
ENDBRANCH  19  20
ENDBRANCH  18  19
ENDBRANCH  15  18
ENDBRANCH  11  12
ENDBRANCH  10  11
ENDBRANCH   7  10
ENDBRANCH   6   7
ENDBRANCH   4   6
ENDBRANCH   2   4
TORSDOF 11
ENDMDL
MODEL      140
REMARK 921   NORMALIZED FREE ENERGY PREDICTED BY IDOCK:   -3.97 KCAL/MOL
REMARK 922        TOTAL FREE ENERGY PREDICTED BY IDOCK:   -7.85 KCAL/MOL
REMARK 923 INTER-LIGAND FREE ENERGY PREDICTED BY IDOCK:   -6.99 KCAL/MOL
REMARK 924 INTRA-LIGAND FREE ENERGY PREDICTED BY IDOCK:   -0.86 KCAL/MOL
REMARK 927      BINDING AFFINITY PREDICTED BY RF-SCORE:    0.00 PKD
ROOT
HETATM    1  C   UNL     1     -12.263  14.399  64.107  1.00  0.00    -0.393 C  
HETATM    2  C   UNL     1     -12.444  13.013  64.726  1.00  0.00    -0.427 C  
HETATM    3  C   UNL     1     -11.836  11.953  63.802  1.00  0.00    -0.558 C  
ENDROOT
BRANCH   2   4
HETATM    4  N   UNL     1     -11.811  12.880  66.045  1.00  0.00    -0.409 NA 
HETATM    5  H   UNL     1     -10.815  12.688  65.940  1.00  0.00     0.000 HD 
BRANCH   4   6
HETATM    6  C   UNL     1     -12.014  14.019  66.950  1.00  0.00    -0.447 C  
BRANCH   6   7
HETATM    7  C   UNL     1     -11.685  13.789  68.438  1.00  0.00    -0.358 C  
HETATM    8  O   UNL     1     -10.838  14.858  68.888  1.00  0.00    -0.233 OA 
HETATM    9  H   UNL     1     -10.634  14.716  69.805  1.00  0.00     0.000 HD 
BRANCH   7  10
HETATM   10  C   UNL     1     -10.973  12.452  68.668  1.00  0.00    -0.247 C  
BRANCH  10  11
HETATM   11  O   UNL     1     -11.969  11.414  68.697  1.00  0.00    -0.452 OA 
BRANCH  11  12
HETATM   12  C   UNL     1     -11.840  10.488  69.698  1.00  0.00    -0.234 A  
HETATM   13  C   UNL     1     -12.541  10.499  70.904  1.00  0.00    -0.493 A  
HETATM   14  C   UNL     1     -12.293   9.522  71.872  1.00  0.00    -0.450 A  
HETATM   15  C   UNL     1     -11.359   8.504  71.645  1.00  0.00    -0.362 A  
HETATM   16  C   UNL     1     -10.677   8.483  70.422  1.00  0.00    -0.246 A  
HETATM   17  C   UNL     1     -10.919   9.467  69.457  1.00  0.00    -0.217 A  
BRANCH  15  18
HETATM   18  C   UNL     1     -11.072   7.475  72.713  1.00  0.00    -0.416 C  
BRANCH  18  19
HETATM   19  C   UNL     1      -9.744   6.749  72.496  1.00  0.00    -0.153 C  
BRANCH  19  20
HETATM   20  O   UNL     1      -9.750   5.509  73.208  1.00  0.00    -0.149 OA 
BRANCH  20  21
HETATM   21  C   UNL     1     -10.301   4.470  72.398  1.00  0.00    -0.191 C  
BRANCH  21  22
HETATM   22  C   UNL     1      -9.612   4.465  71.072  1.00  0.00    -0.249 C  
HETATM   23  C   UNL     1      -8.248   3.831  70.949  1.00  0.00    -0.078 C  
HETATM   24  C   UNL     1      -9.436   3.186  70.292  1.00  0.00    -0.224 C  
ENDBRANCH  21  22
ENDBRANCH  20  21
ENDBRANCH  19  20
ENDBRANCH  18  19
ENDBRANCH  15  18
ENDBRANCH  11  12
ENDBRANCH  10  11
ENDBRANCH   7  10
ENDBRANCH   6   7
ENDBRANCH   4   6
ENDBRANCH   2   4
TORSDOF 11
ENDMDL
MODEL      141
REMARK 921   NORMALIZED FREE ENERGY PREDICTED BY IDOCK:   -3.96 KCAL/MOL
REMARK 922        TOTAL FREE ENERGY PREDICTED BY IDOCK:   -7.85 KCAL/MOL
REMARK 923 INTER-LIGAND FREE ENERGY PREDICTED BY IDOCK:   -6.55 KCAL/MOL
REMARK 924 INTRA-LIGAND FREE ENERGY PREDICTED BY IDOCK:   -1.29 KCAL/MOL
REMARK 927      BINDING AFFINITY PREDICTED BY RF-SCORE:    0.00 PKD
ROOT
HETATM    1  C   UNL     1     -11.775  12.280  68.685  1.00  0.00    -0.377 C  
HETATM    2  C   UNL     1     -11.579  12.763  67.247  1.00  0.00    -0.360 C  
HETATM    3  C   UNL     1     -11.825  14.274  67.173  1.00  0.00    -0.454 C  
ENDROOT
BRANCH   2   4
HETATM    4  N   UNL     1     -10.231  12.498  66.726  1.00  0.00    -0.229 NA 
HETATM    5  H   UNL     1      -9.719  11.891  67.366  1.00  0.00     0.000 HD 
BRANCH   4   6
HETATM    6  C   UNL     1     -10.186  11.951  65.364  1.00  0.00    -0.263 C  
BRANCH   6   7
HETATM    7  C   UNL     1      -9.723  10.488  65.221  1.00  0.00    -0.270 C  
HETATM    8  O   UNL     1     -10.178   9.988  63.953  1.00  0.00    -0.439 OA 
HETATM    9  H   UNL     1      -9.893   9.086  63.864  1.00  0.00     0.000 HD 
BRANCH   7  10
HETATM   10  C   UNL     1     -10.275   9.599  66.340  1.00  0.00    -0.217 C  
BRANCH  10  11
HETATM   11  O   UNL     1      -9.356   8.510  66.540  1.00  0.00    -0.172 OA 
BRANCH  11  12
HETATM   12  C   UNL     1      -9.641   7.672  67.585  1.00  0.00    -0.145 A  
HETATM   13  C   UNL     1     -10.796   6.900  67.710  1.00  0.00    -0.312 A  
HETATM   14  C   UNL     1     -10.998   6.112  68.846  1.00  0.00    -0.424 A  
HETATM   15  C   UNL     1     -10.039   6.060  69.866  1.00  0.00    -0.240 A  
HETATM   16  C   UNL     1      -8.869   6.816  69.723  1.00  0.00    -0.141 A  
HETATM   17  C   UNL     1      -8.673   7.613  68.589  1.00  0.00    -0.128 A  
BRANCH  15  18
HETATM   18  C   UNL     1     -10.285   5.234  71.106  1.00  0.00    -0.294 C  
BRANCH  18  19
HETATM   19  C   UNL     1     -11.397   5.803  71.988  1.00  0.00    -0.228 C  
BRANCH  19  20
HETATM   20  O   UNL     1     -10.824   6.523  73.083  1.00  0.00    -0.257 OA 
BRANCH  20  21
HETATM   21  C   UNL     1     -10.964   7.930  72.885  1.00  0.00    -0.388 C  
BRANCH  21  22
HETATM   22  C   UNL     1     -12.145   8.185  72.006  1.00  0.00    -0.388 C  
HETATM   23  C   UNL     1     -12.974   9.428  72.223  1.00  0.00    -0.479 C  
HETATM   24  C   UNL     1     -12.129   9.296  70.986  1.00  0.00    -0.349 C  
ENDBRANCH  21  22
ENDBRANCH  20  21
ENDBRANCH  19  20
ENDBRANCH  18  19
ENDBRANCH  15  18
ENDBRANCH  11  12
ENDBRANCH  10  11
ENDBRANCH   7  10
ENDBRANCH   6   7
ENDBRANCH   4   6
ENDBRANCH   2   4
TORSDOF 11
ENDMDL
MODEL      142
REMARK 921   NORMALIZED FREE ENERGY PREDICTED BY IDOCK:   -3.95 KCAL/MOL
REMARK 922        TOTAL FREE ENERGY PREDICTED BY IDOCK:   -7.83 KCAL/MOL
REMARK 923 INTER-LIGAND FREE ENERGY PREDICTED BY IDOCK:   -7.04 KCAL/MOL
REMARK 924 INTRA-LIGAND FREE ENERGY PREDICTED BY IDOCK:   -0.79 KCAL/MOL
REMARK 927      BINDING AFFINITY PREDICTED BY RF-SCORE:    0.00 PKD
ROOT
HETATM    1  C   UNL     1     -10.235   5.469  70.782  1.00  0.00    -0.302 C  
HETATM    2  C   UNL     1     -11.559   6.222  70.644  1.00  0.00    -0.281 C  
HETATM    3  C   UNL     1     -11.726   7.189  71.821  1.00  0.00    -0.324 C  
ENDROOT
BRANCH   2   4
HETATM    4  N   UNL     1     -11.656   7.000  69.402  1.00  0.00    -0.546 NA 
HETATM    5  H   UNL     1     -11.608   7.998  69.607  1.00  0.00     0.000 HD 
BRANCH   4   6
HETATM    6  C   UNL     1     -10.674   6.648  68.368  1.00  0.00    -0.258 C  
BRANCH   6   7
HETATM    7  C   UNL     1     -10.771   7.409  67.032  1.00  0.00    -0.319 C  
HETATM    8  O   UNL     1     -10.196   6.592  65.999  1.00  0.00    -0.369 OA 
HETATM    9  H   UNL     1     -10.256   7.062  65.176  1.00  0.00     0.000 HD 
BRANCH   7  10
HETATM   10  C   UNL     1     -10.035   8.751  67.082  1.00  0.00    -0.230 C  
BRANCH  10  11
HETATM   11  O   UNL     1     -10.154   9.375  65.791  1.00  0.00    -0.288 OA 
BRANCH  11  12
HETATM   12  C   UNL     1     -10.412  10.721  65.799  1.00  0.00    -0.188 A  
HETATM   13  C   UNL     1     -10.140  11.600  64.751  1.00  0.00    -0.304 A  
HETATM   14  C   UNL     1     -10.407  12.965  64.890  1.00  0.00    -0.329 A  
HETATM   15  C   UNL     1     -10.974  13.472  66.066  1.00  0.00    -0.281 A  
HETATM   16  C   UNL     1     -11.270  12.580  67.104  1.00  0.00    -0.352 A  
HETATM   17  C   UNL     1     -10.992  11.215  66.968  1.00  0.00    -0.348 A  
BRANCH  15  18
HETATM   18  C   UNL     1     -11.225  14.954  66.219  1.00  0.00    -0.331 C  
BRANCH  18  19
HETATM   19  C   UNL     1     -10.919  15.742  64.945  1.00  0.00    -0.427 C  
BRANCH  19  20
HETATM   20  O   UNL     1     -10.348  17.007  65.286  1.00  0.00    -0.626 OA 
BRANCH  20  21
HETATM   21  C   UNL     1     -10.174  17.114  66.700  1.00  0.00    -0.319 C  
BRANCH  21  22
HETATM   22  C   UNL     1      -8.718  17.246  67.006  1.00  0.00    -0.248 C  
HETATM   23  C   UNL     1      -8.085  16.310  68.006  1.00  0.00    -0.150 C  
HETATM   24  C   UNL     1      -7.730  16.202  66.549  1.00  0.00    -0.219 C  
ENDBRANCH  21  22
ENDBRANCH  20  21
ENDBRANCH  19  20
ENDBRANCH  18  19
ENDBRANCH  15  18
ENDBRANCH  11  12
ENDBRANCH  10  11
ENDBRANCH   7  10
ENDBRANCH   6   7
ENDBRANCH   4   6
ENDBRANCH   2   4
TORSDOF 11
ENDMDL
MODEL      143
REMARK 921   NORMALIZED FREE ENERGY PREDICTED BY IDOCK:   -3.95 KCAL/MOL
REMARK 922        TOTAL FREE ENERGY PREDICTED BY IDOCK:   -7.82 KCAL/MOL
REMARK 923 INTER-LIGAND FREE ENERGY PREDICTED BY IDOCK:   -7.05 KCAL/MOL
REMARK 924 INTRA-LIGAND FREE ENERGY PREDICTED BY IDOCK:   -0.77 KCAL/MOL
REMARK 927      BINDING AFFINITY PREDICTED BY RF-SCORE:    0.00 PKD
ROOT
HETATM    1  C   UNL     1      -8.840   3.445  68.064  1.00  0.00    -0.155 C  
HETATM    2  C   UNL     1      -8.718   4.615  67.087  1.00  0.00    -0.104 C  
HETATM    3  C   UNL     1      -9.959   4.668  66.189  1.00  0.00    -0.266 C  
ENDROOT
BRANCH   2   4
HETATM    4  N   UNL     1      -8.587   5.917  67.755  1.00  0.00    -0.106 NA 
HETATM    5  H   UNL     1      -7.812   6.444  67.351  1.00  0.00     0.000 HD 
BRANCH   4   6
HETATM    6  C   UNL     1      -9.805   6.736  67.767  1.00  0.00    -0.126 C  
BRANCH   6   7
HETATM    7  C   UNL     1     -10.458   6.988  69.140  1.00  0.00    -0.207 C  
HETATM    8  O   UNL     1     -11.782   6.431  69.123  1.00  0.00    -0.583 OA 
HETATM    9  H   UNL     1     -12.185   6.586  69.970  1.00  0.00     0.000 HD 
BRANCH   7  10
HETATM   10  C   UNL     1     -10.544   8.481  69.470  1.00  0.00    -0.211 C  
BRANCH  10  11
HETATM   11  O   UNL     1     -11.373   8.635  70.635  1.00  0.00    -0.261 OA 
BRANCH  11  12
HETATM   12  C   UNL     1     -11.888   9.887  70.841  1.00  0.00    -0.356 A  
HETATM   13  C   UNL     1     -11.543  11.031  70.122  1.00  0.00    -0.421 A  
HETATM   14  C   UNL     1     -12.104  12.268  70.452  1.00  0.00    -0.385 A  
HETATM   15  C   UNL     1     -13.039  12.380  71.488  1.00  0.00    -0.362 A  
HETATM   16  C   UNL     1     -13.403  11.224  72.190  1.00  0.00    -0.263 A  
HETATM   17  C   UNL     1     -12.832   9.988  71.865  1.00  0.00    -0.524 A  
BRANCH  15  18
HETATM   18  C   UNL     1     -13.612  13.727  71.860  1.00  0.00    -0.514 C  
BRANCH  18  19
HETATM   19  C   UNL     1     -12.809  14.432  72.954  1.00  0.00    -0.420 C  
BRANCH  19  20
HETATM   20  O   UNL     1     -11.612  14.981  72.396  1.00  0.00    -0.374 OA 
BRANCH  20  21
HETATM   21  C   UNL     1     -11.913  16.118  71.587  1.00  0.00    -0.462 C  
BRANCH  21  22
HETATM   22  C   UNL     1     -11.528  15.829  70.173  1.00  0.00    -0.366 C  
HETATM   23  C   UNL     1     -10.650  16.806  69.430  1.00  0.00    -0.318 C  
HETATM   24  C   UNL     1     -10.112  15.455  69.813  1.00  0.00    -0.266 C  
ENDBRANCH  21  22
ENDBRANCH  20  21
ENDBRANCH  19  20
ENDBRANCH  18  19
ENDBRANCH  15  18
ENDBRANCH  11  12
ENDBRANCH  10  11
ENDBRANCH   7  10
ENDBRANCH   6   7
ENDBRANCH   4   6
ENDBRANCH   2   4
TORSDOF 11
ENDMDL
MODEL      144
REMARK 921   NORMALIZED FREE ENERGY PREDICTED BY IDOCK:   -3.94 KCAL/MOL
REMARK 922        TOTAL FREE ENERGY PREDICTED BY IDOCK:   -7.80 KCAL/MOL
REMARK 923 INTER-LIGAND FREE ENERGY PREDICTED BY IDOCK:   -6.65 KCAL/MOL
REMARK 924 INTRA-LIGAND FREE ENERGY PREDICTED BY IDOCK:   -1.15 KCAL/MOL
REMARK 927      BINDING AFFINITY PREDICTED BY RF-SCORE:    0.00 PKD
ROOT
HETATM    1  C   UNL     1      -7.968  12.387  68.245  1.00  0.00    -0.160 C  
HETATM    2  C   UNL     1      -6.649  12.147  67.509  1.00  0.00    -0.132 C  
HETATM    3  C   UNL     1      -5.702  11.335  68.399  1.00  0.00    -0.042 C  
ENDROOT
BRANCH   2   4
HETATM    4  N   UNL     1      -6.817  11.419  66.244  1.00  0.00    -0.361 NA 
HETATM    5  H   UNL     1      -5.906  11.159  65.864  1.00  0.00     0.000 HD 
BRANCH   4   6
HETATM    6  C   UNL     1      -7.691  10.241  66.315  1.00  0.00    -0.116 C  
BRANCH   6   7
HETATM    7  C   UNL     1      -8.380   9.810  65.006  1.00  0.00    -0.145 C  
HETATM    8  O   UNL     1      -8.017  10.739  63.972  1.00  0.00    -0.354 OA 
HETATM    9  H   UNL     1      -8.442  10.473  63.165  1.00  0.00     0.000 HD 
BRANCH   7  10
HETATM   10  C   UNL     1      -9.906   9.780  65.143  1.00  0.00    -0.224 C  
BRANCH  10  11
HETATM   11  O   UNL     1     -10.434  10.963  64.518  1.00  0.00    -0.346 OA 
BRANCH  11  12
HETATM   12  C   UNL     1     -10.734  12.001  65.360  1.00  0.00    -0.287 A  
HETATM   13  C   UNL     1     -10.521  13.351  65.084  1.00  0.00    -0.358 A  
HETATM   14  C   UNL     1     -10.827  14.323  66.042  1.00  0.00    -0.303 A  
HETATM   15  C   UNL     1     -11.375  13.966  67.280  1.00  0.00    -0.344 A  
HETATM   16  C   UNL     1     -11.611  12.611  67.541  1.00  0.00    -0.418 A  
HETATM   17  C   UNL     1     -11.295  11.638  66.586  1.00  0.00    -0.338 A  
BRANCH  15  18
HETATM   18  C   UNL     1     -11.667  15.021  68.321  1.00  0.00    -0.338 C  
BRANCH  18  19
HETATM   19  C   UNL     1     -10.499  15.247  69.281  1.00  0.00    -0.258 C  
BRANCH  19  20
HETATM   20  O   UNL     1     -10.051  16.601  69.186  1.00  0.00    -0.268 OA 
BRANCH  20  21
HETATM   21  C   UNL     1     -10.786  17.302  68.182  1.00  0.00    -0.363 C  
BRANCH  21  22
HETATM   22  C   UNL     1     -10.032  18.532  67.792  1.00  0.00    -0.369 C  
HETATM   23  C   UNL     1     -10.784  19.712  67.227  1.00  0.00    -0.583 C  
HETATM   24  C   UNL     1     -10.157  19.806  68.590  1.00  0.00    -0.546 C  
ENDBRANCH  21  22
ENDBRANCH  20  21
ENDBRANCH  19  20
ENDBRANCH  18  19
ENDBRANCH  15  18
ENDBRANCH  11  12
ENDBRANCH  10  11
ENDBRANCH   7  10
ENDBRANCH   6   7
ENDBRANCH   4   6
ENDBRANCH   2   4
TORSDOF 11
ENDMDL
MODEL      145
REMARK 921   NORMALIZED FREE ENERGY PREDICTED BY IDOCK:   -3.94 KCAL/MOL
REMARK 922        TOTAL FREE ENERGY PREDICTED BY IDOCK:   -7.80 KCAL/MOL
REMARK 923 INTER-LIGAND FREE ENERGY PREDICTED BY IDOCK:   -6.56 KCAL/MOL
REMARK 924 INTRA-LIGAND FREE ENERGY PREDICTED BY IDOCK:   -1.24 KCAL/MOL
REMARK 927      BINDING AFFINITY PREDICTED BY RF-SCORE:    0.00 PKD
ROOT
HETATM    1  C   UNL     1     -10.974   6.445  67.004  1.00  0.00    -0.463 C  
HETATM    2  C   UNL     1     -10.469   6.916  68.368  1.00  0.00    -0.204 C  
HETATM    3  C   UNL     1     -11.168   6.124  69.478  1.00  0.00    -0.482 C  
ENDROOT
BRANCH   2   4
HETATM    4  N   UNL     1      -9.019   6.750  68.538  1.00  0.00    -0.122 NA 
HETATM    5  H   UNL     1      -8.689   5.958  67.986  1.00  0.00     0.000 HD 
BRANCH   4   6
HETATM    6  C   UNL     1      -8.217   7.944  68.242  1.00  0.00    -0.124 C  
BRANCH   6   7
HETATM    7  C   UNL     1      -7.472   7.960  66.893  1.00  0.00    -0.091 C  
HETATM    8  O   UNL     1      -6.059   7.914  67.152  1.00  0.00    -0.050 OA 
HETATM    9  H   UNL     1      -5.599   7.924  66.321  1.00  0.00     0.000 HD 
BRANCH   7  10
HETATM   10  C   UNL     1      -7.793   9.214  66.074  1.00  0.00    -0.102 C  
BRANCH  10  11
HETATM   11  O   UNL     1      -9.117   9.067  65.531  1.00  0.00    -0.207 OA 
BRANCH  11  12
HETATM   12  C   UNL     1      -9.917  10.177  65.596  1.00  0.00    -0.279 A  
HETATM   13  C   UNL     1     -10.412  10.749  66.768  1.00  0.00    -0.305 A  
HETATM   14  C   UNL     1     -11.258  11.860  66.707  1.00  0.00    -0.384 A  
HETATM   15  C   UNL     1     -11.604  12.435  65.479  1.00  0.00    -0.432 A  
HETATM   16  C   UNL     1     -11.083  11.873  64.307  1.00  0.00    -0.418 A  
HETATM   17  C   UNL     1     -10.244  10.755  64.368  1.00  0.00    -0.432 A  
BRANCH  15  18
HETATM   18  C   UNL     1     -12.548  13.613  65.423  1.00  0.00    -0.533 C  
BRANCH  18  19
HETATM   19  C   UNL     1     -12.130  14.660  64.390  1.00  0.00    -0.462 C  
BRANCH  19  20
HETATM   20  O   UNL     1     -10.813  15.131  64.688  1.00  0.00    -0.377 OA 
BRANCH  20  21
HETATM   21  C   UNL     1     -10.866  16.439  65.258  1.00  0.00    -0.258 C  
BRANCH  21  22
HETATM   22  C   UNL     1     -10.267  16.401  66.627  1.00  0.00    -0.296 C  
HETATM   23  C   UNL     1     -11.038  15.758  67.754  1.00  0.00    -0.313 C  
HETATM   24  C   UNL     1      -9.790  15.103  67.230  1.00  0.00    -0.228 C  
ENDBRANCH  21  22
ENDBRANCH  20  21
ENDBRANCH  19  20
ENDBRANCH  18  19
ENDBRANCH  15  18
ENDBRANCH  11  12
ENDBRANCH  10  11
ENDBRANCH   7  10
ENDBRANCH   6   7
ENDBRANCH   4   6
ENDBRANCH   2   4
TORSDOF 11
ENDMDL
MODEL      146
REMARK 921   NORMALIZED FREE ENERGY PREDICTED BY IDOCK:   -3.93 KCAL/MOL
REMARK 922        TOTAL FREE ENERGY PREDICTED BY IDOCK:   -7.79 KCAL/MOL
REMARK 923 INTER-LIGAND FREE ENERGY PREDICTED BY IDOCK:   -6.00 KCAL/MOL
REMARK 924 INTRA-LIGAND FREE ENERGY PREDICTED BY IDOCK:   -1.79 KCAL/MOL
REMARK 927      BINDING AFFINITY PREDICTED BY RF-SCORE:    0.00 PKD
ROOT
HETATM    1  C   UNL     1     -10.824  13.578  64.754  1.00  0.00    -0.392 C  
HETATM    2  C   UNL     1     -11.256  12.123  64.936  1.00  0.00    -0.323 C  
HETATM    3  C   UNL     1     -10.570  11.247  63.881  1.00  0.00    -0.455 C  
ENDROOT
BRANCH   2   4
HETATM    4  N   UNL     1     -10.922  11.580  66.260  1.00  0.00    -0.289 NA 
HETATM    5  H   UNL     1      -9.910  11.575  66.393  1.00  0.00     0.000 HD 
BRANCH   4   6
HETATM    6  C   UNL     1     -11.578  12.250  67.390  1.00  0.00    -0.355 C  
BRANCH   6   7
HETATM    7  C   UNL     1     -10.856  12.182  68.750  1.00  0.00    -0.228 C  
HETATM    8  O   UNL     1      -9.964  13.304  68.848  1.00  0.00    -0.420 OA 
HETATM    9  H   UNL     1      -9.519  13.263  69.686  1.00  0.00     0.000 HD 
BRANCH   7  10
HETATM   10  C   UNL     1     -10.056  10.886  68.911  1.00  0.00    -0.198 C  
BRANCH  10  11
HETATM   11  O   UNL     1     -10.964   9.779  68.771  1.00  0.00    -0.213 OA 
BRANCH  11  12
HETATM   12  C   UNL     1     -11.042   8.931  69.844  1.00  0.00    -0.136 A  
HETATM   13  C   UNL     1     -11.432   9.293  71.133  1.00  0.00    -0.403 A  
HETATM   14  C   UNL     1     -11.431   8.346  72.161  1.00  0.00    -0.442 A  
HETATM   15  C   UNL     1     -11.068   7.017  71.916  1.00  0.00    -0.274 A  
HETATM   16  C   UNL     1     -10.703   6.653  70.614  1.00  0.00    -0.286 A  
HETATM   17  C   UNL     1     -10.693   7.604  69.587  1.00  0.00    -0.230 A  
BRANCH  15  18
HETATM   18  C   UNL     1     -11.035   6.011  73.042  1.00  0.00    -0.289 C  
BRANCH  18  19
HETATM   19  C   UNL     1     -10.182   6.471  74.225  1.00  0.00    -0.350 C  
BRANCH  19  20
HETATM   20  O   UNL     1      -8.806   6.516  73.838  1.00  0.00    -0.126 OA 
BRANCH  20  21
HETATM   21  C   UNL     1      -8.267   7.820  74.057  1.00  0.00    -0.220 C  
BRANCH  21  22
HETATM   22  C   UNL     1      -7.285   8.132  72.975  1.00  0.00    -0.147 C  
HETATM   23  C   UNL     1      -7.175   7.207  71.787  1.00  0.00    -0.076 C  
HETATM   24  C   UNL     1      -7.747   8.587  71.613  1.00  0.00    -0.150 C  
ENDBRANCH  21  22
ENDBRANCH  20  21
ENDBRANCH  19  20
ENDBRANCH  18  19
ENDBRANCH  15  18
ENDBRANCH  11  12
ENDBRANCH  10  11
ENDBRANCH   7  10
ENDBRANCH   6   7
ENDBRANCH   4   6
ENDBRANCH   2   4
TORSDOF 11
ENDMDL
MODEL      147
REMARK 921   NORMALIZED FREE ENERGY PREDICTED BY IDOCK:   -3.92 KCAL/MOL
REMARK 922        TOTAL FREE ENERGY PREDICTED BY IDOCK:   -7.77 KCAL/MOL
REMARK 923 INTER-LIGAND FREE ENERGY PREDICTED BY IDOCK:   -7.29 KCAL/MOL
REMARK 924 INTRA-LIGAND FREE ENERGY PREDICTED BY IDOCK:   -0.49 KCAL/MOL
REMARK 927      BINDING AFFINITY PREDICTED BY RF-SCORE:    0.00 PKD
ROOT
HETATM    1  C   UNL     1     -10.157  16.725  66.026  1.00  0.00    -0.350 C  
HETATM    2  C   UNL     1     -10.188  17.607  67.275  1.00  0.00    -0.343 C  
HETATM    3  C   UNL     1     -10.602  19.031  66.889  1.00  0.00    -0.518 C  
ENDROOT
BRANCH   2   4
HETATM    4  N   UNL     1     -11.125  17.126  68.300  1.00  0.00    -0.231 NA 
HETATM    5  H   UNL     1     -12.053  16.997  67.896  1.00  0.00     0.000 HD 
BRANCH   4   6
HETATM    6  C   UNL     1     -10.705  15.907  69.003  1.00  0.00    -0.251 C  
BRANCH   6   7
HETATM    7  C   UNL     1     -11.733  14.761  69.078  1.00  0.00    -0.312 C  
HETATM    8  O   UNL     1     -12.718  15.096  70.069  1.00  0.00    -0.569 OA 
HETATM    9  H   UNL     1     -13.351  14.390  70.115  1.00  0.00     0.000 HD 
BRANCH   7  10
HETATM   10  C   UNL     1     -11.079  13.427  69.448  1.00  0.00    -0.103 C  
BRANCH  10  11
HETATM   11  O   UNL     1     -12.090  12.404  69.399  1.00  0.00    -0.265 OA 
BRANCH  11  12
HETATM   12  C   UNL     1     -11.847  11.286  70.152  1.00  0.00    -0.364 A  
HETATM   13  C   UNL     1     -10.831  10.359  69.915  1.00  0.00    -0.353 A  
HETATM   14  C   UNL     1     -10.706   9.229  70.727  1.00  0.00    -0.350 A  
HETATM   15  C   UNL     1     -11.575   9.016  71.805  1.00  0.00    -0.444 A  
HETATM   16  C   UNL     1     -12.576   9.963  72.053  1.00  0.00    -0.410 A  
HETATM   17  C   UNL     1     -12.707  11.090  71.233  1.00  0.00    -0.537 A  
BRANCH  15  18
HETATM   18  C   UNL     1     -11.454   7.772  72.653  1.00  0.00    -0.430 C  
BRANCH  18  19
HETATM   19  C   UNL     1     -10.096   7.658  73.347  1.00  0.00    -0.319 C  
BRANCH  19  20
HETATM   20  O   UNL     1      -9.670   6.293  73.350  1.00  0.00    -0.153 OA 
BRANCH  20  21
HETATM   21  C   UNL     1     -10.763   5.428  73.659  1.00  0.00    -0.293 C  
BRANCH  21  22
HETATM   22  C   UNL     1     -10.424   4.038  73.229  1.00  0.00    -0.253 C  
HETATM   23  C   UNL     1      -9.702   3.122  74.186  1.00  0.00    -0.139 C  
HETATM   24  C   UNL     1     -11.134   2.846  73.821  1.00  0.00    -0.302 C  
ENDBRANCH  21  22
ENDBRANCH  20  21
ENDBRANCH  19  20
ENDBRANCH  18  19
ENDBRANCH  15  18
ENDBRANCH  11  12
ENDBRANCH  10  11
ENDBRANCH   7  10
ENDBRANCH   6   7
ENDBRANCH   4   6
ENDBRANCH   2   4
TORSDOF 11
ENDMDL
MODEL      148
REMARK 921   NORMALIZED FREE ENERGY PREDICTED BY IDOCK:   -3.92 KCAL/MOL
REMARK 922        TOTAL FREE ENERGY PREDICTED BY IDOCK:   -7.77 KCAL/MOL
REMARK 923 INTER-LIGAND FREE ENERGY PREDICTED BY IDOCK:   -6.76 KCAL/MOL
REMARK 924 INTRA-LIGAND FREE ENERGY PREDICTED BY IDOCK:   -1.01 KCAL/MOL
REMARK 927      BINDING AFFINITY PREDICTED BY RF-SCORE:    0.00 PKD
ROOT
HETATM    1  C   UNL     1     -10.192  12.513  65.363  1.00  0.00    -0.303 C  
HETATM    2  C   UNL     1     -11.587  12.913  65.845  1.00  0.00    -0.377 C  
HETATM    3  C   UNL     1     -12.618  12.599  64.755  1.00  0.00    -0.530 C  
ENDROOT
BRANCH   2   4
HETATM    4  N   UNL     1     -11.999  12.215  67.071  1.00  0.00    -0.598 NA 
HETATM    5  H   UNL     1     -12.810  11.626  66.885  1.00  0.00     0.000 HD 
BRANCH   4   6
HETATM    6  C   UNL     1     -10.943  11.432  67.725  1.00  0.00    -0.247 C  
BRANCH   6   7
HETATM    7  C   UNL     1     -11.400  10.260  68.615  1.00  0.00    -0.166 C  
HETATM    8  O   UNL     1     -12.675  10.593  69.188  1.00  0.00    -0.685 OA 
HETATM    9  H   UNL     1     -12.957   9.870  69.736  1.00  0.00     0.000 HD 
BRANCH   7  10
HETATM   10  C   UNL     1     -10.403   9.970  69.740  1.00  0.00    -0.255 C  
BRANCH  10  11
HETATM   11  O   UNL     1     -11.134   9.885  70.976  1.00  0.00    -0.337 OA 
BRANCH  11  12
HETATM   12  C   UNL     1     -11.077   8.680  71.624  1.00  0.00    -0.305 A  
HETATM   13  C   UNL     1     -10.095   8.301  72.539  1.00  0.00    -0.376 A  
HETATM   14  C   UNL     1     -10.116   7.023  73.106  1.00  0.00    -0.260 A  
HETATM   15  C   UNL     1     -11.130   6.112  72.790  1.00  0.00    -0.294 A  
HETATM   16  C   UNL     1     -12.128   6.507  71.891  1.00  0.00    -0.388 A  
HETATM   17  C   UNL     1     -12.101   7.782  71.316  1.00  0.00    -0.328 A  
BRANCH  15  18
HETATM   18  C   UNL     1     -11.122   4.721  73.380  1.00  0.00    -0.422 C  
BRANCH  18  19
HETATM   19  C   UNL     1     -10.452   3.693  72.468  1.00  0.00    -0.079 C  
BRANCH  19  20
HETATM   20  O   UNL     1      -9.033   3.749  72.639  1.00  0.00    -0.099 OA 
BRANCH  20  21
HETATM   21  C   UNL     1      -8.382   3.899  71.377  1.00  0.00    -0.076 C  
BRANCH  21  22
HETATM   22  C   UNL     1      -9.415   4.014  70.304  1.00  0.00    -0.255 C  
HETATM   23  C   UNL     1      -9.084   4.763  69.037  1.00  0.00    -0.157 C  
HETATM   24  C   UNL     1      -9.266   3.271  68.999  1.00  0.00    -0.224 C  
ENDBRANCH  21  22
ENDBRANCH  20  21
ENDBRANCH  19  20
ENDBRANCH  18  19
ENDBRANCH  15  18
ENDBRANCH  11  12
ENDBRANCH  10  11
ENDBRANCH   7  10
ENDBRANCH   6   7
ENDBRANCH   4   6
ENDBRANCH   2   4
TORSDOF 11
ENDMDL
MODEL      149
REMARK 921   NORMALIZED FREE ENERGY PREDICTED BY IDOCK:   -3.90 KCAL/MOL
REMARK 922        TOTAL FREE ENERGY PREDICTED BY IDOCK:   -7.74 KCAL/MOL
REMARK 923 INTER-LIGAND FREE ENERGY PREDICTED BY IDOCK:   -6.69 KCAL/MOL
REMARK 924 INTRA-LIGAND FREE ENERGY PREDICTED BY IDOCK:   -1.05 KCAL/MOL
REMARK 927      BINDING AFFINITY PREDICTED BY RF-SCORE:    0.00 PKD
ROOT
HETATM    1  C   UNL     1     -11.116   6.359  67.509  1.00  0.00    -0.401 C  
HETATM    2  C   UNL     1     -10.529   6.870  68.825  1.00  0.00    -0.205 C  
HETATM    3  C   UNL     1     -11.141   6.096  69.997  1.00  0.00    -0.462 C  
ENDROOT
BRANCH   2   4
HETATM    4  N   UNL     1      -9.069   6.728  68.902  1.00  0.00    -0.134 NA 
HETATM    5  H   UNL     1      -8.759   5.953  68.314  1.00  0.00     0.000 HD 
BRANCH   4   6
HETATM    6  C   UNL     1      -8.307   7.942  68.582  1.00  0.00    -0.128 C  
BRANCH   6   7
HETATM    7  C   UNL     1      -7.848   8.107  67.120  1.00  0.00    -0.101 C  
HETATM    8  O   UNL     1      -6.413   8.053  67.084  1.00  0.00    -0.054 OA 
HETATM    9  H   UNL     1      -6.130   8.155  66.183  1.00  0.00     0.000 HD 
BRANCH   7  10
HETATM   10  C   UNL     1      -8.318   9.435  66.518  1.00  0.00    -0.119 C  
BRANCH  10  11
HETATM   11  O   UNL     1      -9.752   9.491  66.622  1.00  0.00    -0.181 OA 
BRANCH  11  12
HETATM   12  C   UNL     1     -10.275  10.687  67.036  1.00  0.00    -0.220 A  
HETATM   13  C   UNL     1      -9.944  11.937  66.513  1.00  0.00    -0.225 A  
HETATM   14  C   UNL     1     -10.513  13.097  67.047  1.00  0.00    -0.248 A  
HETATM   15  C   UNL     1     -11.440  13.029  68.093  1.00  0.00    -0.356 A  
HETATM   16  C   UNL     1     -11.789  11.769  68.596  1.00  0.00    -0.369 A  
HETATM   17  C   UNL     1     -11.211  10.609  68.068  1.00  0.00    -0.373 A  
BRANCH  15  18
HETATM   18  C   UNL     1     -12.021  14.291  68.686  1.00  0.00    -0.348 C  
BRANCH  18  19
HETATM   19  C   UNL     1     -11.058  14.992  69.646  1.00  0.00    -0.273 C  
BRANCH  19  20
HETATM   20  O   UNL     1     -11.782  15.498  70.771  1.00  0.00    -0.295 OA 
BRANCH  20  21
HETATM   21  C   UNL     1     -13.185  15.298  70.594  1.00  0.00    -0.323 C  
BRANCH  21  22
HETATM   22  C   UNL     1     -13.793  14.913  71.904  1.00  0.00    -0.557 C  
HETATM   23  C   UNL     1     -13.579  13.517  72.437  1.00  0.00    -0.709 C  
HETATM   24  C   UNL     1     -12.935  14.689  73.124  1.00  0.00    -0.605 C  
ENDBRANCH  21  22
ENDBRANCH  20  21
ENDBRANCH  19  20
ENDBRANCH  18  19
ENDBRANCH  15  18
ENDBRANCH  11  12
ENDBRANCH  10  11
ENDBRANCH   7  10
ENDBRANCH   6   7
ENDBRANCH   4   6
ENDBRANCH   2   4
TORSDOF 11
ENDMDL
MODEL      150
REMARK 921   NORMALIZED FREE ENERGY PREDICTED BY IDOCK:   -3.89 KCAL/MOL
REMARK 922        TOTAL FREE ENERGY PREDICTED BY IDOCK:   -7.72 KCAL/MOL
REMARK 923 INTER-LIGAND FREE ENERGY PREDICTED BY IDOCK:   -6.62 KCAL/MOL
REMARK 924 INTRA-LIGAND FREE ENERGY PREDICTED BY IDOCK:   -1.10 KCAL/MOL
REMARK 927      BINDING AFFINITY PREDICTED BY RF-SCORE:    0.00 PKD
ROOT
HETATM    1  C   UNL     1      -8.169  16.369  69.096  1.00  0.00    -0.189 C  
HETATM    2  C   UNL     1      -7.923  15.038  68.385  1.00  0.00    -0.131 C  
HETATM    3  C   UNL     1      -6.898  14.215  69.171  1.00  0.00    -0.113 C  
ENDROOT
BRANCH   2   4
HETATM    4  N   UNL     1      -9.139  14.227  68.239  1.00  0.00    -0.184 NA 
HETATM    5  H   UNL     1      -9.693  14.266  69.095  1.00  0.00     0.000 HD 
BRANCH   4   6
HETATM    6  C   UNL     1      -9.976  14.562  67.079  1.00  0.00    -0.255 C  
BRANCH   6   7
HETATM    7  C   UNL     1     -11.501  14.472  67.276  1.00  0.00    -0.365 C  
HETATM    8  O   UNL     1     -11.919  15.571  68.102  1.00  0.00    -0.448 OA 
HETATM    9  H   UNL     1     -12.860  15.516  68.223  1.00  0.00     0.000 HD 
BRANCH   7  10
HETATM   10  C   UNL     1     -11.918  13.156  67.940  1.00  0.00    -0.303 C  
BRANCH  10  11
HETATM   11  O   UNL     1     -11.827  13.326  69.366  1.00  0.00    -0.300 OA 
BRANCH  11  12
HETATM   12  C   UNL     1     -12.036  12.199  70.117  1.00  0.00    -0.314 A  
HETATM   13  C   UNL     1     -12.861  12.119  71.238  1.00  0.00    -0.349 A  
HETATM   14  C   UNL     1     -12.963  10.922  71.954  1.00  0.00    -0.502 A  
HETATM   15  C   UNL     1     -12.264   9.779  71.548  1.00  0.00    -0.493 A  
HETATM   16  C   UNL     1     -11.458   9.859  70.406  1.00  0.00    -0.372 A  
HETATM   17  C   UNL     1     -11.348  11.060  69.696  1.00  0.00    -0.363 A  
BRANCH  15  18
HETATM   18  C   UNL     1     -12.353   8.502  72.350  1.00  0.00    -0.424 C  
BRANCH  18  19
HETATM   19  C   UNL     1     -13.018   7.362  71.578  1.00  0.00    -0.375 C  
BRANCH  19  20
HETATM   20  O   UNL     1     -12.046   6.362  71.261  1.00  0.00    -0.310 OA 
BRANCH  20  21
HETATM   21  C   UNL     1     -11.604   5.700  72.446  1.00  0.00    -0.221 C  
BRANCH  21  22
HETATM   22  C   UNL     1     -10.143   5.412  72.330  1.00  0.00    -0.225 C  
HETATM   23  C   UNL     1      -9.593   4.886  71.027  1.00  0.00    -0.238 C  
HETATM   24  C   UNL     1      -9.245   6.276  71.480  1.00  0.00    -0.149 C  
ENDBRANCH  21  22
ENDBRANCH  20  21
ENDBRANCH  19  20
ENDBRANCH  18  19
ENDBRANCH  15  18
ENDBRANCH  11  12
ENDBRANCH  10  11
ENDBRANCH   7  10
ENDBRANCH   6   7
ENDBRANCH   4   6
ENDBRANCH   2   4
TORSDOF 11
ENDMDL
MODEL      151
REMARK 921   NORMALIZED FREE ENERGY PREDICTED BY IDOCK:   -3.89 KCAL/MOL
REMARK 922        TOTAL FREE ENERGY PREDICTED BY IDOCK:   -7.72 KCAL/MOL
REMARK 923 INTER-LIGAND FREE ENERGY PREDICTED BY IDOCK:   -6.42 KCAL/MOL
REMARK 924 INTRA-LIGAND FREE ENERGY PREDICTED BY IDOCK:   -1.30 KCAL/MOL
REMARK 927      BINDING AFFINITY PREDICTED BY RF-SCORE:    0.00 PKD
ROOT
HETATM    1  C   UNL     1     -12.383  14.468  71.689  1.00  0.00    -0.420 C  
HETATM    2  C   UNL     1     -11.822  14.392  70.268  1.00  0.00    -0.313 C  
HETATM    3  C   UNL     1     -12.007  12.975  69.716  1.00  0.00    -0.377 C  
ENDROOT
BRANCH   2   4
HETATM    4  N   UNL     1     -12.471  15.328  69.339  1.00  0.00    -0.601 NA 
HETATM    5  H   UNL     1     -12.988  16.038  69.858  1.00  0.00     0.000 HD 
BRANCH   4   6
HETATM    6  C   UNL     1     -11.571  15.966  68.369  1.00  0.00    -0.315 C  
BRANCH   6   7
HETATM    7  C   UNL     1     -10.094  16.110  68.785  1.00  0.00    -0.237 C  
HETATM    8  O   UNL     1      -9.775  17.509  68.856  1.00  0.00    -0.296 OA 
HETATM    9  H   UNL     1      -8.865  17.598  69.112  1.00  0.00     0.000 HD 
BRANCH   7  10
HETATM   10  C   UNL     1      -9.149  15.428  67.791  1.00  0.00    -0.178 C  
BRANCH  10  11
HETATM   11  O   UNL     1      -9.947  14.819  66.760  1.00  0.00    -0.241 OA 
BRANCH  11  12
HETATM   12  C   UNL     1      -9.855  13.456  66.660  1.00  0.00    -0.278 A  
HETATM   13  C   UNL     1      -8.724  12.698  66.964  1.00  0.00    -0.198 A  
HETATM   14  C   UNL     1      -8.735  11.312  66.781  1.00  0.00    -0.166 A  
HETATM   15  C   UNL     1      -9.881  10.656  66.316  1.00  0.00    -0.263 A  
HETATM   16  C   UNL     1     -11.022  11.418  66.038  1.00  0.00    -0.286 A  
HETATM   17  C   UNL     1     -11.007  12.807  66.212  1.00  0.00    -0.307 A  
BRANCH  15  18
HETATM   18  C   UNL     1      -9.869   9.163  66.087  1.00  0.00    -0.363 C  
BRANCH  18  19
HETATM   19  C   UNL     1     -10.657   8.393  67.148  1.00  0.00    -0.256 C  
BRANCH  19  20
HETATM   20  O   UNL     1     -10.132   8.686  68.445  1.00  0.00    -0.179 OA 
BRANCH  20  21
HETATM   21  C   UNL     1     -10.416   7.620  69.352  1.00  0.00    -0.220 C  
BRANCH  21  22
HETATM   22  C   UNL     1     -10.638   8.185  70.717  1.00  0.00    -0.234 C  
HETATM   23  C   UNL     1     -10.652   9.682  70.905  1.00  0.00    -0.386 C  
HETATM   24  C   UNL     1     -11.922   8.895  71.065  1.00  0.00    -0.307 C  
ENDBRANCH  21  22
ENDBRANCH  20  21
ENDBRANCH  19  20
ENDBRANCH  18  19
ENDBRANCH  15  18
ENDBRANCH  11  12
ENDBRANCH  10  11
ENDBRANCH   7  10
ENDBRANCH   6   7
ENDBRANCH   4   6
ENDBRANCH   2   4
TORSDOF 11
ENDMDL
MODEL      152
REMARK 921   NORMALIZED FREE ENERGY PREDICTED BY IDOCK:   -3.88 KCAL/MOL
REMARK 922        TOTAL FREE ENERGY PREDICTED BY IDOCK:   -7.71 KCAL/MOL
REMARK 923 INTER-LIGAND FREE ENERGY PREDICTED BY IDOCK:   -7.03 KCAL/MOL
REMARK 924 INTRA-LIGAND FREE ENERGY PREDICTED BY IDOCK:   -0.68 KCAL/MOL
REMARK 927      BINDING AFFINITY PREDICTED BY RF-SCORE:    0.00 PKD
ROOT
HETATM    1  C   UNL     1      -9.803   4.491  67.514  1.00  0.00    -0.191 C  
HETATM    2  C   UNL     1      -9.790   5.606  68.561  1.00  0.00    -0.143 C  
HETATM    3  C   UNL     1     -10.845   6.659  68.203  1.00  0.00    -0.334 C  
ENDROOT
BRANCH   2   4
HETATM    4  N   UNL     1     -10.072   5.127  69.921  1.00  0.00    -0.251 NA 
HETATM    5  H   UNL     1      -9.213   5.100  70.469  1.00  0.00     0.000 HD 
BRANCH   4   6
HETATM    6  C   UNL     1     -11.110   5.875  70.642  1.00  0.00    -0.265 C  
BRANCH   6   7
HETATM    7  C   UNL     1     -10.970   5.952  72.174  1.00  0.00    -0.266 C  
HETATM    8  O   UNL     1     -12.283   5.890  72.755  1.00  0.00    -0.542 OA 
HETATM    9  H   UNL     1     -12.196   5.937  73.700  1.00  0.00     0.000 HD 
BRANCH   7  10
HETATM   10  C   UNL     1     -10.281   7.244  72.623  1.00  0.00    -0.212 C  
BRANCH  10  11
HETATM   11  O   UNL     1     -11.288   8.260  72.772  1.00  0.00    -0.381 OA 
BRANCH  11  12
HETATM   12  C   UNL     1     -11.399   9.148  71.734  1.00  0.00    -0.381 A  
HETATM   13  C   UNL     1     -10.417   9.398  70.777  1.00  0.00    -0.372 A  
HETATM   14  C   UNL     1     -10.627  10.361  69.786  1.00  0.00    -0.302 A  
HETATM   15  C   UNL     1     -11.831  11.072  69.717  1.00  0.00    -0.421 A  
HETATM   16  C   UNL     1     -12.825  10.798  70.665  1.00  0.00    -0.377 A  
HETATM   17  C   UNL     1     -12.609   9.840  71.663  1.00  0.00    -0.509 A  
BRANCH  15  18
HETATM   18  C   UNL     1     -12.034  12.136  68.665  1.00  0.00    -0.290 C  
BRANCH  18  19
HETATM   19  C   UNL     1     -11.086  13.325  68.833  1.00  0.00    -0.261 C  
BRANCH  19  20
HETATM   20  O   UNL     1     -11.725  14.519  68.375  1.00  0.00    -0.308 OA 
BRANCH  20  21
HETATM   21  C   UNL     1     -10.785  15.591  68.297  1.00  0.00    -0.271 C  
BRANCH  21  22
HETATM   22  C   UNL     1     -10.497  15.887  66.861  1.00  0.00    -0.309 C  
HETATM   23  C   UNL     1      -9.147  16.438  66.475  1.00  0.00    -0.308 C  
HETATM   24  C   UNL     1      -9.529  15.041  66.072  1.00  0.00    -0.337 C  
ENDBRANCH  21  22
ENDBRANCH  20  21
ENDBRANCH  19  20
ENDBRANCH  18  19
ENDBRANCH  15  18
ENDBRANCH  11  12
ENDBRANCH  10  11
ENDBRANCH   7  10
ENDBRANCH   6   7
ENDBRANCH   4   6
ENDBRANCH   2   4
TORSDOF 11
ENDMDL
MODEL      153
REMARK 921   NORMALIZED FREE ENERGY PREDICTED BY IDOCK:   -3.88 KCAL/MOL
REMARK 922        TOTAL FREE ENERGY PREDICTED BY IDOCK:   -7.71 KCAL/MOL
REMARK 923 INTER-LIGAND FREE ENERGY PREDICTED BY IDOCK:   -6.97 KCAL/MOL
REMARK 924 INTRA-LIGAND FREE ENERGY PREDICTED BY IDOCK:   -0.74 KCAL/MOL
REMARK 927      BINDING AFFINITY PREDICTED BY RF-SCORE:    0.00 PKD
ROOT
HETATM    1  C   UNL     1     -11.563  10.014  71.054  1.00  0.00    -0.476 C  
HETATM    2  C   UNL     1     -12.981  10.584  71.121  1.00  0.00    -0.411 C  
HETATM    3  C   UNL     1     -13.751   9.915  72.265  1.00  0.00    -0.255 C  
ENDROOT
BRANCH   2   4
HETATM    4  N   UNL     1     -13.011  12.036  71.343  1.00  0.00    -0.335 NA 
HETATM    5  H   UNL     1     -12.590  12.263  72.244  1.00  0.00     0.000 HD 
BRANCH   4   6
HETATM    6  C   UNL     1     -12.397  12.841  70.280  1.00  0.00    -0.204 C  
BRANCH   6   7
HETATM    7  C   UNL     1     -12.190  14.339  70.577  1.00  0.00    -0.356 C  
HETATM    8  O   UNL     1     -13.426  15.027  70.330  1.00  0.00    -0.646 OA 
HETATM    9  H   UNL     1     -13.299  15.951  70.514  1.00  0.00     0.000 HD 
BRANCH   7  10
HETATM   10  C   UNL     1     -11.090  14.950  69.704  1.00  0.00    -0.276 C  
BRANCH  10  11
HETATM   11  O   UNL     1     -11.697  15.438  68.495  1.00  0.00    -0.352 OA 
BRANCH  11  12
HETATM   12  C   UNL     1     -11.432  14.718  67.360  1.00  0.00    -0.363 A  
HETATM   13  C   UNL     1     -12.187  13.643  66.891  1.00  0.00    -0.398 A  
HETATM   14  C   UNL     1     -11.793  12.955  65.740  1.00  0.00    -0.469 A  
HETATM   15  C   UNL     1     -10.655  13.343  65.023  1.00  0.00    -0.370 A  
HETATM   16  C   UNL     1      -9.916  14.439  65.483  1.00  0.00    -0.359 A  
HETATM   17  C   UNL     1     -10.305  15.122  66.642  1.00  0.00    -0.274 A  
BRANCH  15  18
HETATM   18  C   UNL     1     -10.219  12.569  63.801  1.00  0.00    -0.360 C  
BRANCH  18  19
HETATM   19  C   UNL     1     -10.337  11.055  63.984  1.00  0.00    -0.371 C  
BRANCH  19  20
HETATM   20  O   UNL     1      -9.389  10.612  64.959  1.00  0.00    -0.189 OA 
BRANCH  20  21
HETATM   21  C   UNL     1      -8.182  10.185  64.326  1.00  0.00    -0.165 C  
BRANCH  21  22
HETATM   22  C   UNL     1      -7.204   9.763  65.373  1.00  0.00    -0.114 C  
HETATM   23  C   UNL     1      -6.221  10.770  65.917  1.00  0.00    -0.121 C  
HETATM   24  C   UNL     1      -7.326  10.253  66.794  1.00  0.00    -0.106 C  
ENDBRANCH  21  22
ENDBRANCH  20  21
ENDBRANCH  19  20
ENDBRANCH  18  19
ENDBRANCH  15  18
ENDBRANCH  11  12
ENDBRANCH  10  11
ENDBRANCH   7  10
ENDBRANCH   6   7
ENDBRANCH   4   6
ENDBRANCH   2   4
TORSDOF 11
ENDMDL
MODEL      154
REMARK 921   NORMALIZED FREE ENERGY PREDICTED BY IDOCK:   -3.88 KCAL/MOL
REMARK 922        TOTAL FREE ENERGY PREDICTED BY IDOCK:   -7.71 KCAL/MOL
REMARK 923 INTER-LIGAND FREE ENERGY PREDICTED BY IDOCK:   -6.86 KCAL/MOL
REMARK 924 INTRA-LIGAND FREE ENERGY PREDICTED BY IDOCK:   -0.85 KCAL/MOL
REMARK 927      BINDING AFFINITY PREDICTED BY RF-SCORE:    0.00 PKD
ROOT
HETATM    1  C   UNL     1     -13.268  10.218  71.952  1.00  0.00    -0.550 C  
HETATM    2  C   UNL     1     -13.416   8.763  72.397  1.00  0.00    -0.401 C  
HETATM    3  C   UNL     1     -14.409   8.042  71.479  1.00  0.00    -0.546 C  
ENDROOT
BRANCH   2   4
HETATM    4  N   UNL     1     -12.151   8.017  72.369  1.00  0.00    -0.477 NA 
HETATM    5  H   UNL     1     -11.827   7.838  73.320  1.00  0.00     0.000 HD 
BRANCH   4   6
HETATM    6  C   UNL     1     -12.183   6.766  71.601  1.00  0.00    -0.365 C  
BRANCH   6   7
HETATM    7  C   UNL     1     -10.903   6.396  70.826  1.00  0.00    -0.267 C  
HETATM    8  O   UNL     1     -10.240   5.329  71.525  1.00  0.00    -0.197 OA 
HETATM    9  H   UNL     1      -9.451   5.101  71.047  1.00  0.00     0.000 HD 
BRANCH   7  10
HETATM   10  C   UNL     1      -9.947   7.585  70.696  1.00  0.00    -0.183 C  
BRANCH  10  11
HETATM   11  O   UNL     1      -9.690   7.802  69.298  1.00  0.00    -0.162 OA 
BRANCH  11  12
HETATM   12  C   UNL     1     -10.068   9.021  68.802  1.00  0.00    -0.199 A  
HETATM   13  C   UNL     1     -10.083  10.216  69.522  1.00  0.00    -0.258 A  
HETATM   14  C   UNL     1     -10.532  11.395  68.921  1.00  0.00    -0.219 A  
HETATM   15  C   UNL     1     -10.948  11.409  67.585  1.00  0.00    -0.303 A  
HETATM   16  C   UNL     1     -10.905  10.212  66.858  1.00  0.00    -0.176 A  
HETATM   17  C   UNL     1     -10.466   9.030  67.464  1.00  0.00    -0.338 A  
BRANCH  15  18
HETATM   18  C   UNL     1     -11.466  12.681  66.956  1.00  0.00    -0.406 C  
BRANCH  18  19
HETATM   19  C   UNL     1     -11.674  13.804  67.974  1.00  0.00    -0.355 C  
BRANCH  19  20
HETATM   20  O   UNL     1     -11.620  15.070  67.312  1.00  0.00    -0.343 OA 
BRANCH  20  21
HETATM   21  C   UNL     1     -10.428  15.179  66.534  1.00  0.00    -0.291 C  
BRANCH  21  22
HETATM   22  C   UNL     1      -9.595  16.299  67.067  1.00  0.00    -0.240 C  
HETATM   23  C   UNL     1      -9.493  17.583  66.282  1.00  0.00    -0.238 C  
HETATM   24  C   UNL     1     -10.234  17.561  67.590  1.00  0.00    -0.343 C  
ENDBRANCH  21  22
ENDBRANCH  20  21
ENDBRANCH  19  20
ENDBRANCH  18  19
ENDBRANCH  15  18
ENDBRANCH  11  12
ENDBRANCH  10  11
ENDBRANCH   7  10
ENDBRANCH   6   7
ENDBRANCH   4   6
ENDBRANCH   2   4
TORSDOF 11
ENDMDL
MODEL      155
REMARK 921   NORMALIZED FREE ENERGY PREDICTED BY IDOCK:   -3.88 KCAL/MOL
REMARK 922        TOTAL FREE ENERGY PREDICTED BY IDOCK:   -7.71 KCAL/MOL
REMARK 923 INTER-LIGAND FREE ENERGY PREDICTED BY IDOCK:   -5.93 KCAL/MOL
REMARK 924 INTRA-LIGAND FREE ENERGY PREDICTED BY IDOCK:   -1.77 KCAL/MOL
REMARK 927      BINDING AFFINITY PREDICTED BY RF-SCORE:    0.00 PKD
ROOT
HETATM    1  C   UNL     1     -12.645  13.810  65.385  1.00  0.00    -0.534 C  
HETATM    2  C   UNL     1     -11.425  12.942  65.697  1.00  0.00    -0.332 C  
HETATM    3  C   UNL     1     -11.501  12.450  67.146  1.00  0.00    -0.423 C  
ENDROOT
BRANCH   2   4
HETATM    4  N   UNL     1     -11.313  11.765  64.824  1.00  0.00    -0.284 NA 
HETATM    5  H   UNL     1     -12.239  11.387  64.624  1.00  0.00     0.000 HD 
BRANCH   4   6
HETATM    6  C   UNL     1     -10.575  11.985  63.574  1.00  0.00    -0.465 C  
BRANCH   6   7
HETATM    7  C   UNL     1      -9.374  11.057  63.306  1.00  0.00    -0.308 C  
HETATM    8  O   UNL     1      -9.857   9.860  62.674  1.00  0.00    -0.533 OA 
HETATM    9  H   UNL     1      -9.117   9.287  62.509  1.00  0.00     0.000 HD 
BRANCH   7  10
HETATM   10  C   UNL     1      -8.638  10.683  64.597  1.00  0.00    -0.120 C  
BRANCH  10  11
HETATM   11  O   UNL     1      -9.165   9.429  65.065  1.00  0.00    -0.241 OA 
BRANCH  11  12
HETATM   12  C   UNL     1      -9.370   9.334  66.417  1.00  0.00    -0.192 A  
HETATM   13  C   UNL     1     -10.544   8.892  67.026  1.00  0.00    -0.279 A  
HETATM   14  C   UNL     1     -10.653   8.878  68.419  1.00  0.00    -0.190 A  
HETATM   15  C   UNL     1      -9.584   9.281  69.229  1.00  0.00    -0.161 A  
HETATM   16  C   UNL     1      -8.398   9.698  68.612  1.00  0.00    -0.114 A  
HETATM   17  C   UNL     1      -8.294   9.721  67.216  1.00  0.00    -0.121 A  
BRANCH  15  18
HETATM   18  C   UNL     1      -9.725   9.297  70.733  1.00  0.00    -0.348 C  
BRANCH  18  19
HETATM   19  C   UNL     1      -8.618   8.514  71.441  1.00  0.00    -0.175 C  
BRANCH  19  20
HETATM   20  O   UNL     1      -9.053   7.173  71.678  1.00  0.00    -0.137 OA 
BRANCH  20  21
HETATM   21  C   UNL     1      -8.323   6.258  70.860  1.00  0.00    -0.127 C  
BRANCH  21  22
HETATM   22  C   UNL     1      -9.234   5.705  69.812  1.00  0.00    -0.165 C  
HETATM   23  C   UNL     1      -9.901   4.371  70.040  1.00  0.00    -0.294 C  
HETATM   24  C   UNL     1     -10.723   5.630  70.037  1.00  0.00    -0.390 C  
ENDBRANCH  21  22
ENDBRANCH  20  21
ENDBRANCH  19  20
ENDBRANCH  18  19
ENDBRANCH  15  18
ENDBRANCH  11  12
ENDBRANCH  10  11
ENDBRANCH   7  10
ENDBRANCH   6   7
ENDBRANCH   4   6
ENDBRANCH   2   4
TORSDOF 11
ENDMDL
MODEL      156
REMARK 921   NORMALIZED FREE ENERGY PREDICTED BY IDOCK:   -3.86 KCAL/MOL
REMARK 922        TOTAL FREE ENERGY PREDICTED BY IDOCK:   -7.68 KCAL/MOL
REMARK 923 INTER-LIGAND FREE ENERGY PREDICTED BY IDOCK:   -6.56 KCAL/MOL
REMARK 924 INTRA-LIGAND FREE ENERGY PREDICTED BY IDOCK:   -1.13 KCAL/MOL
REMARK 927      BINDING AFFINITY PREDICTED BY RF-SCORE:    0.00 PKD
ROOT
HETATM    1  C   UNL     1      -8.605   5.635  67.393  1.00  0.00    -0.109 C  
HETATM    2  C   UNL     1      -9.782   6.305  66.683  1.00  0.00    -0.155 C  
HETATM    3  C   UNL     1     -10.929   6.518  67.676  1.00  0.00    -0.426 C  
ENDROOT
BRANCH   2   4
HETATM    4  N   UNL     1      -9.439   7.610  66.100  1.00  0.00    -0.395 NA 
HETATM    5  H   UNL     1      -9.913   8.357  66.609  1.00  0.00     0.000 HD 
BRANCH   4   6
HETATM    6  C   UNL     1      -8.001   7.893  66.008  1.00  0.00    -0.103 C  
BRANCH   6   7
HETATM    7  C   UNL     1      -7.543   9.299  66.439  1.00  0.00    -0.093 C  
HETATM    8  O   UNL     1      -6.122   9.271  66.651  1.00  0.00    -0.061 OA 
HETATM    9  H   UNL     1      -5.839  10.138  66.916  1.00  0.00     0.000 HD 
BRANCH   7  10
HETATM   10  C   UNL     1      -8.234   9.759  67.726  1.00  0.00    -0.114 C  
BRANCH  10  11
HETATM   11  O   UNL     1      -9.546  10.238  67.383  1.00  0.00    -0.154 OA 
BRANCH  11  12
HETATM   12  C   UNL     1     -10.402  10.445  68.432  1.00  0.00    -0.174 A  
HETATM   13  C   UNL     1     -11.441  11.375  68.456  1.00  0.00    -0.361 A  
HETATM   14  C   UNL     1     -12.224  11.528  69.603  1.00  0.00    -0.296 A  
HETATM   15  C   UNL     1     -12.001  10.738  70.738  1.00  0.00    -0.464 A  
HETATM   16  C   UNL     1     -10.974   9.787  70.699  1.00  0.00    -0.398 A  
HETATM   17  C   UNL     1     -10.183   9.642  69.553  1.00  0.00    -0.233 A  
BRANCH  15  18
HETATM   18  C   UNL     1     -12.829  10.937  71.985  1.00  0.00    -0.322 C  
BRANCH  18  19
HETATM   19  C   UNL     1     -13.628  12.241  71.965  1.00  0.00    -0.208 C  
BRANCH  19  20
HETATM   20  O   UNL     1     -12.806  13.317  72.423  1.00  0.00    -0.232 OA 
BRANCH  20  21
HETATM   21  C   UNL     1     -13.210  14.547  71.820  1.00  0.00    -0.351 C  
BRANCH  21  22
HETATM   22  C   UNL     1     -13.307  15.601  72.875  1.00  0.00    -0.651 C  
HETATM   23  C   UNL     1     -12.597  15.397  74.191  1.00  0.00    -0.705 C  
HETATM   24  C   UNL     1     -12.116  16.453  73.235  1.00  0.00    -0.553 C  
ENDBRANCH  21  22
ENDBRANCH  20  21
ENDBRANCH  19  20
ENDBRANCH  18  19
ENDBRANCH  15  18
ENDBRANCH  11  12
ENDBRANCH  10  11
ENDBRANCH   7  10
ENDBRANCH   6   7
ENDBRANCH   4   6
ENDBRANCH   2   4
TORSDOF 11
ENDMDL
MODEL      157
REMARK 921   NORMALIZED FREE ENERGY PREDICTED BY IDOCK:   -3.86 KCAL/MOL
REMARK 922        TOTAL FREE ENERGY PREDICTED BY IDOCK:   -7.68 KCAL/MOL
REMARK 923 INTER-LIGAND FREE ENERGY PREDICTED BY IDOCK:   -6.77 KCAL/MOL
REMARK 924 INTRA-LIGAND FREE ENERGY PREDICTED BY IDOCK:   -0.90 KCAL/MOL
REMARK 927      BINDING AFFINITY PREDICTED BY RF-SCORE:    0.00 PKD
ROOT
HETATM    1  C   UNL     1     -10.345   4.787  66.094  1.00  0.00    -0.337 C  
HETATM    2  C   UNL     1     -10.818   6.059  66.799  1.00  0.00    -0.279 C  
HETATM    3  C   UNL     1     -10.721   5.873  68.317  1.00  0.00    -0.319 C  
ENDROOT
BRANCH   2   4
HETATM    4  N   UNL     1     -10.033   7.247  66.438  1.00  0.00    -0.445 NA 
HETATM    5  H   UNL     1      -9.847   7.811  67.267  1.00  0.00     0.000 HD 
BRANCH   4   6
HETATM    6  C   UNL     1      -8.781   6.972  65.721  1.00  0.00    -0.100 C  
BRANCH   6   7
HETATM    7  C   UNL     1      -7.604   7.931  65.989  1.00  0.00    -0.086 C  
HETATM    8  O   UNL     1      -7.714   8.422  67.335  1.00  0.00    -0.096 OA 
HETATM    9  H   UNL     1      -6.989   9.013  67.500  1.00  0.00     0.000 HD 
BRANCH   7  10
HETATM   10  C   UNL     1      -7.598   9.116  65.019  1.00  0.00    -0.106 C  
BRANCH  10  11
HETATM   11  O   UNL     1      -8.873   9.158  64.355  1.00  0.00    -0.191 OA 
BRANCH  11  12
HETATM   12  C   UNL     1      -9.663  10.239  64.644  1.00  0.00    -0.333 A  
HETATM   13  C   UNL     1      -9.978  10.689  65.926  1.00  0.00    -0.312 A  
HETATM   14  C   UNL     1     -10.832  11.782  66.099  1.00  0.00    -0.336 A  
HETATM   15  C   UNL     1     -11.366  12.460  64.997  1.00  0.00    -0.363 A  
HETATM   16  C   UNL     1     -11.025  12.021  63.712  1.00  0.00    -0.492 A  
HETATM   17  C   UNL     1     -10.178  10.920  63.539  1.00  0.00    -0.379 A  
BRANCH  15  18
HETATM   18  C   UNL     1     -12.317  13.617  65.196  1.00  0.00    -0.486 C  
BRANCH  18  19
HETATM   19  C   UNL     1     -12.400  14.073  66.653  1.00  0.00    -0.371 C  
BRANCH  19  20
HETATM   20  O   UNL     1     -11.397  15.060  66.906  1.00  0.00    -0.341 OA 
BRANCH  20  21
HETATM   21  C   UNL     1     -10.923  14.959  68.249  1.00  0.00    -0.264 C  
BRANCH  21  22
HETATM   22  C   UNL     1     -12.014  15.365  69.186  1.00  0.00    -0.324 C  
HETATM   23  C   UNL     1     -12.464  14.404  70.258  1.00  0.00    -0.413 C  
HETATM   24  C   UNL     1     -11.724  15.657  70.637  1.00  0.00    -0.398 C  
ENDBRANCH  21  22
ENDBRANCH  20  21
ENDBRANCH  19  20
ENDBRANCH  18  19
ENDBRANCH  15  18
ENDBRANCH  11  12
ENDBRANCH  10  11
ENDBRANCH   7  10
ENDBRANCH   6   7
ENDBRANCH   4   6
ENDBRANCH   2   4
TORSDOF 11
ENDMDL
MODEL      158
REMARK 921   NORMALIZED FREE ENERGY PREDICTED BY IDOCK:   -3.84 KCAL/MOL
REMARK 922        TOTAL FREE ENERGY PREDICTED BY IDOCK:   -7.65 KCAL/MOL
REMARK 923 INTER-LIGAND FREE ENERGY PREDICTED BY IDOCK:   -5.90 KCAL/MOL
REMARK 924 INTRA-LIGAND FREE ENERGY PREDICTED BY IDOCK:   -1.75 KCAL/MOL
REMARK 927      BINDING AFFINITY PREDICTED BY RF-SCORE:    0.00 PKD
ROOT
HETATM    1  C   UNL     1     -10.660  13.121  64.597  1.00  0.00    -0.410 C  
HETATM    2  C   UNL     1     -10.875  11.610  64.696  1.00  0.00    -0.314 C  
HETATM    3  C   UNL     1      -9.982  10.895  63.677  1.00  0.00    -0.415 C  
ENDROOT
BRANCH   2   4
HETATM    4  N   UNL     1     -10.567  11.067  66.027  1.00  0.00    -0.240 NA 
HETATM    5  H   UNL     1      -9.569  11.151  66.218  1.00  0.00     0.000 HD 
BRANCH   4   6
HETATM    6  C   UNL     1     -11.345  11.646  67.130  1.00  0.00    -0.306 C  
BRANCH   6   7
HETATM    7  C   UNL     1     -10.939  11.228  68.557  1.00  0.00    -0.220 C  
HETATM    8  O   UNL     1     -10.359  12.364  69.217  1.00  0.00    -0.419 OA 
HETATM    9  H   UNL     1     -10.109  12.106  70.097  1.00  0.00     0.000 HD 
BRANCH   7  10
HETATM   10  C   UNL     1      -9.929  10.077  68.552  1.00  0.00    -0.162 C  
BRANCH  10  11
HETATM   11  O   UNL     1     -10.602   8.892  68.091  1.00  0.00    -0.214 OA 
BRANCH  11  12
HETATM   12  C   UNL     1     -10.268   7.727  68.729  1.00  0.00    -0.201 A  
HETATM   13  C   UNL     1     -11.148   6.685  69.020  1.00  0.00    -0.318 A  
HETATM   14  C   UNL     1     -10.701   5.559  69.717  1.00  0.00    -0.355 A  
HETATM   15  C   UNL     1      -9.363   5.441  70.112  1.00  0.00    -0.193 A  
HETATM   16  C   UNL     1      -8.478   6.478  69.794  1.00  0.00    -0.131 A  
HETATM   17  C   UNL     1      -8.929   7.610  69.105  1.00  0.00    -0.135 A  
BRANCH  15  18
HETATM   18  C   UNL     1      -8.899   4.237  70.896  1.00  0.00    -0.142 C  
BRANCH  18  19
HETATM   19  C   UNL     1      -9.621   4.087  72.236  1.00  0.00    -0.144 C  
BRANCH  19  20
HETATM   20  O   UNL     1      -9.460   5.282  73.006  1.00  0.00    -0.139 OA 
BRANCH  20  21
HETATM   21  C   UNL     1     -10.732   5.799  73.399  1.00  0.00    -0.273 C  
BRANCH  21  22
HETATM   22  C   UNL     1     -10.635   7.284  73.535  1.00  0.00    -0.408 C  
HETATM   23  C   UNL     1      -9.576   8.030  72.762  1.00  0.00    -0.345 C  
HETATM   24  C   UNL     1     -11.026   8.196  72.399  1.00  0.00    -0.414 C  
ENDBRANCH  21  22
ENDBRANCH  20  21
ENDBRANCH  19  20
ENDBRANCH  18  19
ENDBRANCH  15  18
ENDBRANCH  11  12
ENDBRANCH  10  11
ENDBRANCH   7  10
ENDBRANCH   6   7
ENDBRANCH   4   6
ENDBRANCH   2   4
TORSDOF 11
ENDMDL
MODEL      159
REMARK 921   NORMALIZED FREE ENERGY PREDICTED BY IDOCK:   -3.84 KCAL/MOL
REMARK 922        TOTAL FREE ENERGY PREDICTED BY IDOCK:   -7.64 KCAL/MOL
REMARK 923 INTER-LIGAND FREE ENERGY PREDICTED BY IDOCK:   -6.16 KCAL/MOL
REMARK 924 INTRA-LIGAND FREE ENERGY PREDICTED BY IDOCK:   -1.48 KCAL/MOL
REMARK 927      BINDING AFFINITY PREDICTED BY RF-SCORE:    0.00 PKD
ROOT
HETATM    1  C   UNL     1     -11.267  11.986  63.498  1.00  0.00    -0.526 C  
HETATM    2  C   UNL     1     -10.175  11.350  64.359  1.00  0.00    -0.308 C  
HETATM    3  C   UNL     1     -10.680  11.194  65.797  1.00  0.00    -0.252 C  
ENDROOT
BRANCH   2   4
HETATM    4  N   UNL     1      -9.758  10.026  63.879  1.00  0.00    -0.452 NA 
HETATM    5  H   UNL     1     -10.036   9.900  62.906  1.00  0.00     0.000 HD 
BRANCH   4   6
HETATM    6  C   UNL     1      -8.329   9.727  64.041  1.00  0.00    -0.169 C  
BRANCH   6   7
HETATM    7  C   UNL     1      -7.952   8.251  64.272  1.00  0.00    -0.148 C  
HETATM    8  O   UNL     1      -8.635   7.448  63.295  1.00  0.00    -0.355 OA 
HETATM    9  H   UNL     1      -8.403   6.538  63.437  1.00  0.00     0.000 HD 
BRANCH   7  10
HETATM   10  C   UNL     1      -8.336   7.772  65.675  1.00  0.00    -0.139 C  
BRANCH  10  11
HETATM   11  O   UNL     1      -8.214   8.887  66.577  1.00  0.00    -0.111 OA 
BRANCH  11  12
HETATM   12  C   UNL     1      -8.634   8.666  67.861  1.00  0.00    -0.137 A  
HETATM   13  C   UNL     1      -9.140   7.461  68.349  1.00  0.00    -0.132 A  
HETATM   14  C   UNL     1      -9.580   7.366  69.672  1.00  0.00    -0.156 A  
HETATM   15  C   UNL     1      -9.500   8.462  70.539  1.00  0.00    -0.186 A  
HETATM   16  C   UNL     1      -8.967   9.662  70.051  1.00  0.00    -0.266 A  
HETATM   17  C   UNL     1      -8.536   9.759  68.723  1.00  0.00    -0.122 A  
BRANCH  15  18
HETATM   18  C   UNL     1     -10.013   8.359  71.956  1.00  0.00    -0.354 C  
BRANCH  18  19
HETATM   19  C   UNL     1     -11.086   7.282  72.121  1.00  0.00    -0.246 C  
BRANCH  19  20
HETATM   20  O   UNL     1     -12.348   7.787  71.676  1.00  0.00    -0.300 OA 
BRANCH  20  21
HETATM   21  C   UNL     1     -12.716   8.946  72.424  1.00  0.00    -0.368 C  
BRANCH  21  22
HETATM   22  C   UNL     1     -13.345   9.943  71.506  1.00  0.00    -0.462 C  
HETATM   23  C   UNL     1     -13.034  11.409  71.680  1.00  0.00    -0.523 C  
HETATM   24  C   UNL     1     -12.524  10.674  70.472  1.00  0.00    -0.445 C  
ENDBRANCH  21  22
ENDBRANCH  20  21
ENDBRANCH  19  20
ENDBRANCH  18  19
ENDBRANCH  15  18
ENDBRANCH  11  12
ENDBRANCH  10  11
ENDBRANCH   7  10
ENDBRANCH   6   7
ENDBRANCH   4   6
ENDBRANCH   2   4
TORSDOF 11
ENDMDL
MODEL      160
REMARK 921   NORMALIZED FREE ENERGY PREDICTED BY IDOCK:   -3.83 KCAL/MOL
REMARK 922        TOTAL FREE ENERGY PREDICTED BY IDOCK:   -7.63 KCAL/MOL
REMARK 923 INTER-LIGAND FREE ENERGY PREDICTED BY IDOCK:   -6.16 KCAL/MOL
REMARK 924 INTRA-LIGAND FREE ENERGY PREDICTED BY IDOCK:   -1.47 KCAL/MOL
REMARK 927      BINDING AFFINITY PREDICTED BY RF-SCORE:    0.00 PKD
ROOT
HETATM    1  C   UNL     1     -12.493  15.510  70.472  1.00  0.00    -0.472 C  
HETATM    2  C   UNL     1     -12.560  14.521  71.636  1.00  0.00    -0.348 C  
HETATM    3  C   UNL     1     -14.005  14.413  72.138  1.00  0.00    -0.607 C  
ENDROOT
BRANCH   2   4
HETATM    4  N   UNL     1     -12.104  13.171  71.277  1.00  0.00    -0.269 NA 
HETATM    5  H   UNL     1     -11.151  13.022  71.608  1.00  0.00     0.000 HD 
BRANCH   4   6
HETATM    6  C   UNL     1     -12.975  12.079  71.729  1.00  0.00    -0.340 C  
BRANCH   6   7
HETATM    7  C   UNL     1     -12.671  10.675  71.172  1.00  0.00    -0.422 C  
HETATM    8  O   UNL     1     -12.375   9.801  72.274  1.00  0.00    -0.248 OA 
HETATM    9  H   UNL     1     -12.188   8.936  71.931  1.00  0.00     0.000 HD 
BRANCH   7  10
HETATM   10  C   UNL     1     -11.483  10.686  70.205  1.00  0.00    -0.329 C  
BRANCH  10  11
HETATM   11  O   UNL     1     -11.975  11.026  68.897  1.00  0.00    -0.403 OA 
BRANCH  11  12
HETATM   12  C   UNL     1     -11.253  10.536  67.840  1.00  0.00    -0.289 A  
HETATM   13  C   UNL     1     -10.632   9.288  67.797  1.00  0.00    -0.307 A  
HETATM   14  C   UNL     1      -9.883   8.913  66.678  1.00  0.00    -0.332 A  
HETATM   15  C   UNL     1      -9.762   9.764  65.573  1.00  0.00    -0.382 A  
HETATM   16  C   UNL     1     -10.409  11.006  65.612  1.00  0.00    -0.311 A  
HETATM   17  C   UNL     1     -11.150  11.385  66.737  1.00  0.00    -0.343 A  
BRANCH  15  18
HETATM   18  C   UNL     1      -8.920   9.364  64.385  1.00  0.00    -0.215 C  
BRANCH  18  19
HETATM   19  C   UNL     1      -7.705  10.271  64.186  1.00  0.00    -0.097 C  
BRANCH  19  20
HETATM   20  O   UNL     1      -6.556   9.680  64.799  1.00  0.00    -0.090 OA 
BRANCH  20  21
HETATM   21  C   UNL     1      -5.953  10.592  65.718  1.00  0.00    -0.129 C  
BRANCH  21  22
HETATM   22  C   UNL     1      -6.652  10.493  67.035  1.00  0.00    -0.077 C  
HETATM   23  C   UNL     1      -6.033  11.138  68.250  1.00  0.00    -0.045 C  
HETATM   24  C   UNL     1      -7.298  11.701  67.665  1.00  0.00    -0.108 C  
ENDBRANCH  21  22
ENDBRANCH  20  21
ENDBRANCH  19  20
ENDBRANCH  18  19
ENDBRANCH  15  18
ENDBRANCH  11  12
ENDBRANCH  10  11
ENDBRANCH   7  10
ENDBRANCH   6   7
ENDBRANCH   4   6
ENDBRANCH   2   4
TORSDOF 11
ENDMDL
MODEL      161
REMARK 921   NORMALIZED FREE ENERGY PREDICTED BY IDOCK:   -3.83 KCAL/MOL
REMARK 922        TOTAL FREE ENERGY PREDICTED BY IDOCK:   -7.62 KCAL/MOL
REMARK 923 INTER-LIGAND FREE ENERGY PREDICTED BY IDOCK:   -6.43 KCAL/MOL
REMARK 924 INTRA-LIGAND FREE ENERGY PREDICTED BY IDOCK:   -1.20 KCAL/MOL
REMARK 927      BINDING AFFINITY PREDICTED BY RF-SCORE:    0.00 PKD
ROOT
HETATM    1  C   UNL     1     -12.194  12.188  63.883  1.00  0.00    -0.587 C  
HETATM    2  C   UNL     1     -11.740  13.195  64.940  1.00  0.00    -0.340 C  
HETATM    3  C   UNL     1     -12.215  14.599  64.551  1.00  0.00    -0.473 C  
ENDROOT
BRANCH   2   4
HETATM    4  N   UNL     1     -12.259  12.898  66.282  1.00  0.00    -0.494 NA 
HETATM    5  H   UNL     1     -12.783  12.023  66.272  1.00  0.00     0.000 HD 
BRANCH   4   6
HETATM    6  C   UNL     1     -11.249  12.871  67.348  1.00  0.00    -0.291 C  
BRANCH   6   7
HETATM    7  C   UNL     1     -11.607  13.594  68.661  1.00  0.00    -0.329 C  
HETATM    8  O   UNL     1     -10.394  14.076  69.262  1.00  0.00    -0.418 OA 
HETATM    9  H   UNL     1     -10.615  14.522  70.071  1.00  0.00     0.000 HD 
BRANCH   7  10
HETATM   10  C   UNL     1     -12.326  12.670  69.648  1.00  0.00     0.015 C  
BRANCH  10  11
HETATM   11  O   UNL     1     -12.374  11.352  69.073  1.00  0.00    -0.407 OA 
BRANCH  11  12
HETATM   12  C   UNL     1     -12.076  10.318  69.922  1.00  0.00    -0.108 A  
HETATM   13  C   UNL     1     -11.059   9.384  69.729  1.00  0.00    -0.193 A  
HETATM   14  C   UNL     1     -10.877   8.343  70.644  1.00  0.00    -0.256 A  
HETATM   15  C   UNL     1     -11.688   8.232  71.779  1.00  0.00    -0.357 A  
HETATM   16  C   UNL     1     -12.691   9.188  71.981  1.00  0.00    -0.473 A  
HETATM   17  C   UNL     1     -12.880  10.224  71.059  1.00  0.00    -0.490 A  
BRANCH  15  18
HETATM   18  C   UNL     1     -11.506   7.082  72.742  1.00  0.00    -0.207 C  
BRANCH  18  19
HETATM   19  C   UNL     1     -10.893   5.846  72.081  1.00  0.00    -0.241 C  
BRANCH  19  20
HETATM   20  O   UNL     1      -9.724   5.445  72.801  1.00  0.00    -0.148 OA 
BRANCH  20  21
HETATM   21  C   UNL     1      -9.550   6.254  73.964  1.00  0.00    -0.186 C  
BRANCH  21  22
HETATM   22  C   UNL     1      -8.158   6.798  73.977  1.00  0.00    -0.133 C  
HETATM   23  C   UNL     1      -7.379   6.868  72.687  1.00  0.00    -0.082 C  
HETATM   24  C   UNL     1      -7.840   8.134  73.353  1.00  0.00    -0.229 C  
ENDBRANCH  21  22
ENDBRANCH  20  21
ENDBRANCH  19  20
ENDBRANCH  18  19
ENDBRANCH  15  18
ENDBRANCH  11  12
ENDBRANCH  10  11
ENDBRANCH   7  10
ENDBRANCH   6   7
ENDBRANCH   4   6
ENDBRANCH   2   4
TORSDOF 11
ENDMDL
MODEL      162
REMARK 921   NORMALIZED FREE ENERGY PREDICTED BY IDOCK:   -3.82 KCAL/MOL
REMARK 922        TOTAL FREE ENERGY PREDICTED BY IDOCK:   -7.61 KCAL/MOL
REMARK 923 INTER-LIGAND FREE ENERGY PREDICTED BY IDOCK:   -6.95 KCAL/MOL
REMARK 924 INTRA-LIGAND FREE ENERGY PREDICTED BY IDOCK:   -0.66 KCAL/MOL
REMARK 927      BINDING AFFINITY PREDICTED BY RF-SCORE:    0.00 PKD
ROOT
HETATM    1  C   UNL     1     -10.801   8.296  70.251  1.00  0.00    -0.241 C  
HETATM    2  C   UNL     1     -12.120   8.192  71.018  1.00  0.00    -0.207 C  
HETATM    3  C   UNL     1     -11.838   8.144  72.524  1.00  0.00    -0.438 C  
ENDROOT
BRANCH   2   4
HETATM    4  N   UNL     1     -13.029   9.318  70.763  1.00  0.00    -0.519 NA 
HETATM    5  H   UNL     1     -13.680   9.428  71.541  1.00  0.00     0.000 HD 
BRANCH   4   6
HETATM    6  C   UNL     1     -12.369  10.596  70.470  1.00  0.00    -0.359 C  
BRANCH   6   7
HETATM    7  C   UNL     1     -12.448  11.682  71.561  1.00  0.00    -0.133 C  
HETATM    8  O   UNL     1     -13.590  11.413  72.390  1.00  0.00    -0.538 OA 
HETATM    9  H   UNL     1     -13.639  12.083  73.062  1.00  0.00     0.000 HD 
BRANCH   7  10
HETATM   10  C   UNL     1     -12.577  13.087  70.965  1.00  0.00    -0.299 C  
BRANCH  10  11
HETATM   11  O   UNL     1     -12.157  13.030  69.590  1.00  0.00    -0.297 OA 
BRANCH  11  12
HETATM   12  C   UNL     1     -11.724  14.211  69.047  1.00  0.00    -0.324 A  
HETATM   13  C   UNL     1     -11.635  14.487  67.683  1.00  0.00    -0.402 A  
HETATM   14  C   UNL     1     -11.136  15.716  67.244  1.00  0.00    -0.238 A  
HETATM   15  C   UNL     1     -10.742  16.701  68.158  1.00  0.00    -0.349 A  
HETATM   16  C   UNL     1     -10.859  16.428  69.527  1.00  0.00    -0.338 A  
HETATM   17  C   UNL     1     -11.349  15.193  69.965  1.00  0.00    -0.304 A  
BRANCH  15  18
HETATM   18  C   UNL     1     -10.170  18.012  67.673  1.00  0.00    -0.376 C  
BRANCH  18  19
HETATM   19  C   UNL     1      -9.222  17.842  66.485  1.00  0.00    -0.273 C  
BRANCH  19  20
HETATM   20  O   UNL     1      -8.322  18.952  66.424  1.00  0.00    -0.291 OA 
BRANCH  20  21
HETATM   21  C   UNL     1      -6.995  18.539  66.754  1.00  0.00    -0.194 C  
BRANCH  21  22
HETATM   22  C   UNL     1      -6.402  19.520  67.712  1.00  0.00    -0.236 C  
HETATM   23  C   UNL     1      -5.410  20.540  67.207  1.00  0.00    -0.196 C  
HETATM   24  C   UNL     1      -6.774  20.981  67.660  1.00  0.00    -0.399 C  
ENDBRANCH  21  22
ENDBRANCH  20  21
ENDBRANCH  19  20
ENDBRANCH  18  19
ENDBRANCH  15  18
ENDBRANCH  11  12
ENDBRANCH  10  11
ENDBRANCH   7  10
ENDBRANCH   6   7
ENDBRANCH   4   6
ENDBRANCH   2   4
TORSDOF 11
ENDMDL
MODEL      163
REMARK 921   NORMALIZED FREE ENERGY PREDICTED BY IDOCK:   -3.80 KCAL/MOL
REMARK 922        TOTAL FREE ENERGY PREDICTED BY IDOCK:   -7.58 KCAL/MOL
REMARK 923 INTER-LIGAND FREE ENERGY PREDICTED BY IDOCK:   -6.21 KCAL/MOL
REMARK 924 INTRA-LIGAND FREE ENERGY PREDICTED BY IDOCK:   -1.37 KCAL/MOL
REMARK 927      BINDING AFFINITY PREDICTED BY RF-SCORE:    0.00 PKD
ROOT
HETATM    1  C   UNL     1     -11.713   7.023  70.722  1.00  0.00    -0.394 C  
HETATM    2  C   UNL     1     -10.978   5.994  69.861  1.00  0.00    -0.388 C  
HETATM    3  C   UNL     1     -11.227   6.291  68.379  1.00  0.00    -0.272 C  
ENDROOT
BRANCH   2   4
HETATM    4  N   UNL     1      -9.526   5.985  70.083  1.00  0.00    -0.156 NA 
HETATM    5  H   UNL     1      -9.045   5.644  69.250  1.00  0.00     0.000 HD 
BRANCH   4   6
HETATM    6  C   UNL     1      -8.953   7.269  70.508  1.00  0.00    -0.154 C  
BRANCH   6   7
HETATM    7  C   UNL     1      -7.914   7.909  69.568  1.00  0.00    -0.116 C  
HETATM    8  O   UNL     1      -6.921   8.571  70.368  1.00  0.00    -0.036 OA 
HETATM    9  H   UNL     1      -6.281   8.966  69.789  1.00  0.00     0.000 HD 
BRANCH   7  10
HETATM   10  C   UNL     1      -8.552   8.925  68.615  1.00  0.00    -0.133 C  
BRANCH  10  11
HETATM   11  O   UNL     1      -8.614  10.194  69.290  1.00  0.00    -0.151 OA 
BRANCH  11  12
HETATM   12  C   UNL     1      -9.420  11.140  68.713  1.00  0.00    -0.165 A  
HETATM   13  C   UNL     1      -9.010  12.407  68.301  1.00  0.00    -0.178 A  
HETATM   14  C   UNL     1      -9.935  13.307  67.764  1.00  0.00    -0.223 A  
HETATM   15  C   UNL     1     -11.279  12.948  67.604  1.00  0.00    -0.317 A  
HETATM   16  C   UNL     1     -11.680  11.665  67.995  1.00  0.00    -0.351 A  
HETATM   17  C   UNL     1     -10.755  10.768  68.542  1.00  0.00    -0.245 A  
BRANCH  15  18
HETATM   18  C   UNL     1     -12.277  13.941  67.056  1.00  0.00    -0.392 C  
BRANCH  18  19
HETATM   19  C   UNL     1     -12.213  14.069  65.534  1.00  0.00    -0.439 C  
BRANCH  19  20
HETATM   20  O   UNL     1     -12.959  13.009  64.929  1.00  0.00    -0.739 OA 
BRANCH  20  21
HETATM   21  C   UNL     1     -12.245  12.463  63.820  1.00  0.00    -0.533 C  
BRANCH  21  22
HETATM   22  C   UNL     1     -11.299  11.417  64.314  1.00  0.00    -0.244 C  
HETATM   23  C   UNL     1     -10.230  10.890  63.389  1.00  0.00    -0.356 C  
HETATM   24  C   UNL     1      -9.847  11.740  64.568  1.00  0.00    -0.228 C  
ENDBRANCH  21  22
ENDBRANCH  20  21
ENDBRANCH  19  20
ENDBRANCH  18  19
ENDBRANCH  15  18
ENDBRANCH  11  12
ENDBRANCH  10  11
ENDBRANCH   7  10
ENDBRANCH   6   7
ENDBRANCH   4   6
ENDBRANCH   2   4
TORSDOF 11
ENDMDL
MODEL      164
REMARK 921   NORMALIZED FREE ENERGY PREDICTED BY IDOCK:   -3.80 KCAL/MOL
REMARK 922        TOTAL FREE ENERGY PREDICTED BY IDOCK:   -7.58 KCAL/MOL
REMARK 923 INTER-LIGAND FREE ENERGY PREDICTED BY IDOCK:   -5.36 KCAL/MOL
REMARK 924 INTRA-LIGAND FREE ENERGY PREDICTED BY IDOCK:   -2.21 KCAL/MOL
REMARK 927      BINDING AFFINITY PREDICTED BY RF-SCORE:    0.00 PKD
ROOT
HETATM    1  C   UNL     1      -6.919  10.756  66.151  1.00  0.00    -0.124 C  
HETATM    2  C   UNL     1      -6.767   9.362  66.762  1.00  0.00    -0.072 C  
HETATM    3  C   UNL     1      -6.945   9.444  68.282  1.00  0.00    -0.071 C  
ENDROOT
BRANCH   2   4
HETATM    4  N   UNL     1      -7.743   8.394  66.244  1.00  0.00    -0.092 NA 
HETATM    5  H   UNL     1      -7.383   7.950  65.399  1.00  0.00     0.000 HD 
BRANCH   4   6
HETATM    6  C   UNL     1      -8.178   7.373  67.206  1.00  0.00    -0.115 C  
BRANCH   6   7
HETATM    7  C   UNL     1      -9.539   6.703  66.937  1.00  0.00    -0.157 C  
HETATM    8  O   UNL     1      -9.513   6.130  65.619  1.00  0.00    -0.377 OA 
HETATM    9  H   UNL     1     -10.352   5.717  65.453  1.00  0.00     0.000 HD 
BRANCH   7  10
HETATM   10  C   UNL     1     -10.698   7.701  67.029  1.00  0.00    -0.270 C  
BRANCH  10  11
HETATM   11  O   UNL     1     -10.303   8.766  67.911  1.00  0.00    -0.208 OA 
BRANCH  11  12
HETATM   12  C   UNL     1     -10.737  10.019  67.568  1.00  0.00    -0.281 A  
HETATM   13  C   UNL     1     -10.614  10.598  66.306  1.00  0.00    -0.229 A  
HETATM   14  C   UNL     1     -11.057  11.906  66.084  1.00  0.00    -0.374 A  
HETATM   15  C   UNL     1     -11.653  12.648  67.111  1.00  0.00    -0.434 A  
HETATM   16  C   UNL     1     -11.798  12.051  68.370  1.00  0.00    -0.360 A  
HETATM   17  C   UNL     1     -11.345  10.746  68.593  1.00  0.00    -0.356 A  
BRANCH  15  18
HETATM   18  C   UNL     1     -12.094  14.072  66.870  1.00  0.00    -0.465 C  
BRANCH  18  19
HETATM   19  C   UNL     1     -11.909  14.966  68.098  1.00  0.00    -0.278 C  
BRANCH  19  20
HETATM   20  O   UNL     1     -10.668  15.669  67.999  1.00  0.00    -0.269 OA 
BRANCH  20  21
HETATM   21  C   UNL     1      -9.871  15.444  69.163  1.00  0.00    -0.247 C  
BRANCH  21  22
HETATM   22  C   UNL     1      -8.509  14.995  68.745  1.00  0.00    -0.180 C  
HETATM   23  C   UNL     1      -8.346  13.653  68.074  1.00  0.00    -0.170 C  
HETATM   24  C   UNL     1      -8.130  14.915  67.287  1.00  0.00    -0.234 C  
ENDBRANCH  21  22
ENDBRANCH  20  21
ENDBRANCH  19  20
ENDBRANCH  18  19
ENDBRANCH  15  18
ENDBRANCH  11  12
ENDBRANCH  10  11
ENDBRANCH   7  10
ENDBRANCH   6   7
ENDBRANCH   4   6
ENDBRANCH   2   4
TORSDOF 11
ENDMDL
MODEL      165
REMARK 921   NORMALIZED FREE ENERGY PREDICTED BY IDOCK:   -3.80 KCAL/MOL
REMARK 922        TOTAL FREE ENERGY PREDICTED BY IDOCK:   -7.57 KCAL/MOL
REMARK 923 INTER-LIGAND FREE ENERGY PREDICTED BY IDOCK:   -5.62 KCAL/MOL
REMARK 924 INTRA-LIGAND FREE ENERGY PREDICTED BY IDOCK:   -1.95 KCAL/MOL
REMARK 927      BINDING AFFINITY PREDICTED BY RF-SCORE:    0.00 PKD
ROOT
HETATM    1  C   UNL     1      -6.891  11.354  66.834  1.00  0.00    -0.142 C  
HETATM    2  C   UNL     1      -6.531  10.383  67.959  1.00  0.00    -0.060 C  
HETATM    3  C   UNL     1      -7.151  10.865  69.275  1.00  0.00    -0.124 C  
ENDROOT
BRANCH   2   4
HETATM    4  N   UNL     1      -7.000   9.013  67.713  1.00  0.00    -0.077 NA 
HETATM    5  H   UNL     1      -6.205   8.390  67.563  1.00  0.00     0.000 HD 
BRANCH   4   6
HETATM    6  C   UNL     1      -7.885   8.462  68.748  1.00  0.00    -0.115 C  
BRANCH   6   7
HETATM    7  C   UNL     1      -8.977   7.483  68.277  1.00  0.00    -0.130 C  
HETATM    8  O   UNL     1      -8.350   6.426  67.532  1.00  0.00    -0.116 OA 
HETATM    9  H   UNL     1      -9.023   5.822  67.241  1.00  0.00     0.000 HD 
BRANCH   7  10
HETATM   10  C   UNL     1     -10.022   8.170  67.394  1.00  0.00    -0.209 C  
BRANCH  10  11
HETATM   11  O   UNL     1     -10.009   9.576  67.697  1.00  0.00    -0.161 OA 
BRANCH  11  12
HETATM   12  C   UNL     1     -10.484  10.405  66.715  1.00  0.00    -0.225 A  
HETATM   13  C   UNL     1     -10.158  10.320  65.361  1.00  0.00    -0.354 A  
HETATM   14  C   UNL     1     -10.671  11.252  64.454  1.00  0.00    -0.407 A  
HETATM   15  C   UNL     1     -11.538  12.266  64.877  1.00  0.00    -0.395 A  
HETATM   16  C   UNL     1     -11.883  12.330  66.232  1.00  0.00    -0.387 A  
HETATM   17  C   UNL     1     -11.360  11.403  67.142  1.00  0.00    -0.327 A  
BRANCH  15  18
HETATM   18  C   UNL     1     -12.058  13.289  63.894  1.00  0.00    -0.531 C  
BRANCH  18  19
HETATM   19  C   UNL     1     -12.181  14.687  64.502  1.00  0.00    -0.456 C  
BRANCH  19  20
HETATM   20  O   UNL     1     -10.927  15.367  64.406  1.00  0.00    -0.260 OA 
BRANCH  20  21
HETATM   21  C   UNL     1     -10.679  16.130  65.587  1.00  0.00    -0.310 C  
BRANCH  21  22
HETATM   22  C   UNL     1      -9.346  15.749  66.145  1.00  0.00    -0.381 C  
HETATM   23  C   UNL     1      -9.200  15.540  67.632  1.00  0.00    -0.190 C  
HETATM   24  C   UNL     1      -9.101  14.367  66.697  1.00  0.00    -0.265 C  
ENDBRANCH  21  22
ENDBRANCH  20  21
ENDBRANCH  19  20
ENDBRANCH  18  19
ENDBRANCH  15  18
ENDBRANCH  11  12
ENDBRANCH  10  11
ENDBRANCH   7  10
ENDBRANCH   6   7
ENDBRANCH   4   6
ENDBRANCH   2   4
TORSDOF 11
ENDMDL
MODEL      166
REMARK 921   NORMALIZED FREE ENERGY PREDICTED BY IDOCK:   -3.79 KCAL/MOL
REMARK 922        TOTAL FREE ENERGY PREDICTED BY IDOCK:   -7.56 KCAL/MOL
REMARK 923 INTER-LIGAND FREE ENERGY PREDICTED BY IDOCK:   -6.20 KCAL/MOL
REMARK 924 INTRA-LIGAND FREE ENERGY PREDICTED BY IDOCK:   -1.36 KCAL/MOL
REMARK 927      BINDING AFFINITY PREDICTED BY RF-SCORE:    0.00 PKD
ROOT
HETATM    1  C   UNL     1     -12.385  14.222  69.992  1.00  0.00    -0.403 C  
HETATM    2  C   UNL     1     -12.642  13.399  71.255  1.00  0.00    -0.322 C  
HETATM    3  C   UNL     1     -13.955  13.848  71.904  1.00  0.00    -0.512 C  
ENDROOT
BRANCH   2   4
HETATM    4  N   UNL     1     -12.736  11.955  70.995  1.00  0.00    -0.316 NA 
HETATM    5  H   UNL     1     -11.829  11.591  70.702  1.00  0.00     0.000 HD 
BRANCH   4   6
HETATM    6  C   UNL     1     -13.266  11.156  72.108  1.00  0.00    -0.192 C  
BRANCH   6   7
HETATM    7  C   UNL     1     -13.637   9.694  71.795  1.00  0.00    -0.343 C  
HETATM    8  O   UNL     1     -14.108   9.075  73.003  1.00  0.00    -1.086 OA 
HETATM    9  H   UNL     1     -14.336   8.173  72.810  1.00  0.00     0.000 HD 
BRANCH   7  10
HETATM   10  C   UNL     1     -12.442   8.902  71.255  1.00  0.00    -0.272 C  
BRANCH  10  11
HETATM   11  O   UNL     1     -11.239   9.598  71.625  1.00  0.00    -0.367 OA 
BRANCH  11  12
HETATM   12  C   UNL     1     -10.085   8.862  71.583  1.00  0.00    -0.341 A  
HETATM   13  C   UNL     1      -9.156   8.876  70.543  1.00  0.00    -0.233 A  
HETATM   14  C   UNL     1      -8.033   8.046  70.591  1.00  0.00    -0.096 A  
HETATM   15  C   UNL     1      -7.802   7.208  71.688  1.00  0.00    -0.097 A  
HETATM   16  C   UNL     1      -8.724   7.218  72.742  1.00  0.00    -0.148 A  
HETATM   17  C   UNL     1      -9.855   8.041  72.689  1.00  0.00    -0.347 A  
BRANCH  15  18
HETATM   18  C   UNL     1      -6.604   6.289  71.713  1.00  0.00    -0.058 C  
BRANCH  18  19
HETATM   19  C   UNL     1      -6.989   4.815  71.844  1.00  0.00    -0.060 C  
BRANCH  19  20
HETATM   20  O   UNL     1      -8.333   4.626  71.392  1.00  0.00    -0.101 OA 
BRANCH  20  21
HETATM   21  C   UNL     1      -8.346   4.170  70.039  1.00  0.00    -0.061 C  
BRANCH  21  22
HETATM   22  C   UNL     1      -9.708   4.386  69.464  1.00  0.00    -0.280 C  
HETATM   23  C   UNL     1     -10.601   5.449  70.055  1.00  0.00    -0.354 C  
HETATM   24  C   UNL     1     -10.031   5.632  68.676  1.00  0.00    -0.213 C  
ENDBRANCH  21  22
ENDBRANCH  20  21
ENDBRANCH  19  20
ENDBRANCH  18  19
ENDBRANCH  15  18
ENDBRANCH  11  12
ENDBRANCH  10  11
ENDBRANCH   7  10
ENDBRANCH   6   7
ENDBRANCH   4   6
ENDBRANCH   2   4
TORSDOF 11
ENDMDL
MODEL      167
REMARK 921   NORMALIZED FREE ENERGY PREDICTED BY IDOCK:   -3.75 KCAL/MOL
REMARK 922        TOTAL FREE ENERGY PREDICTED BY IDOCK:   -7.50 KCAL/MOL
REMARK 923 INTER-LIGAND FREE ENERGY PREDICTED BY IDOCK:   -6.31 KCAL/MOL
REMARK 924 INTRA-LIGAND FREE ENERGY PREDICTED BY IDOCK:   -1.19 KCAL/MOL
REMARK 927      BINDING AFFINITY PREDICTED BY RF-SCORE:    0.00 PKD
ROOT
HETATM    1  C   UNL     1      -9.968  10.227  64.871  1.00  0.00    -0.393 C  
HETATM    2  C   UNL     1      -8.978   9.275  65.545  1.00  0.00    -0.205 C  
HETATM    3  C   UNL     1      -9.414   9.018  66.991  1.00  0.00    -0.212 C  
ENDROOT
BRANCH   2   4
HETATM    4  N   UNL     1      -8.871   7.976  64.867  1.00  0.00    -0.383 NA 
HETATM    5  H   UNL     1      -8.479   8.098  63.933  1.00  0.00     0.000 HD 
BRANCH   4   6
HETATM    6  C   UNL     1      -8.119   6.951  65.602  1.00  0.00    -0.129 C  
BRANCH   6   7
HETATM    7  C   UNL     1      -8.490   5.483  65.316  1.00  0.00    -0.147 C  
HETATM    8  O   UNL     1      -9.042   5.402  63.992  1.00  0.00    -0.348 OA 
HETATM    9  H   UNL     1      -9.270   4.497  63.815  1.00  0.00     0.000 HD 
BRANCH   7  10
HETATM   10  C   UNL     1      -9.511   4.942  66.321  1.00  0.00    -0.158 C  
BRANCH  10  11
HETATM   11  O   UNL     1      -8.924   5.004  67.633  1.00  0.00    -0.109 OA 
BRANCH  11  12
HETATM   12  C   UNL     1      -9.725   5.504  68.624  1.00  0.00    -0.142 A  
HETATM   13  C   UNL     1     -10.914   6.205  68.424  1.00  0.00    -0.391 A  
HETATM   14  C   UNL     1     -11.628   6.707  69.516  1.00  0.00    -0.257 A  
HETATM   15  C   UNL     1     -11.183   6.497  70.826  1.00  0.00    -0.377 A  
HETATM   16  C   UNL     1     -10.002   5.769  71.022  1.00  0.00    -0.243 A  
HETATM   17  C   UNL     1      -9.283   5.275  69.928  1.00  0.00    -0.178 A  
BRANCH  15  18
HETATM   18  C   UNL     1     -11.942   7.075  71.996  1.00  0.00    -0.334 C  
BRANCH  18  19
HETATM   19  C   UNL     1     -13.456   7.077  71.779  1.00  0.00    -0.227 C  
BRANCH  19  20
HETATM   20  O   UNL     1     -13.945   8.421  71.807  1.00  0.00    -0.383 OA 
BRANCH  20  21
HETATM   21  C   UNL     1     -12.865   9.345  71.940  1.00  0.00    -0.412 C  
BRANCH  21  22
HETATM   22  C   UNL     1     -12.847  10.252  70.753  1.00  0.00    -0.427 C  
HETATM   23  C   UNL     1     -12.363  11.672  70.914  1.00  0.00    -0.436 C  
HETATM   24  C   UNL     1     -11.546  10.686  70.126  1.00  0.00    -0.414 C  
ENDBRANCH  21  22
ENDBRANCH  20  21
ENDBRANCH  19  20
ENDBRANCH  18  19
ENDBRANCH  15  18
ENDBRANCH  11  12
ENDBRANCH  10  11
ENDBRANCH   7  10
ENDBRANCH   6   7
ENDBRANCH   4   6
ENDBRANCH   2   4
TORSDOF 11
ENDMDL
MODEL      168
REMARK 921   NORMALIZED FREE ENERGY PREDICTED BY IDOCK:   -3.73 KCAL/MOL
REMARK 922        TOTAL FREE ENERGY PREDICTED BY IDOCK:   -7.46 KCAL/MOL
REMARK 923 INTER-LIGAND FREE ENERGY PREDICTED BY IDOCK:   -5.27 KCAL/MOL
REMARK 924 INTRA-LIGAND FREE ENERGY PREDICTED BY IDOCK:   -2.19 KCAL/MOL
REMARK 927      BINDING AFFINITY PREDICTED BY RF-SCORE:    0.00 PKD
ROOT
HETATM    1  C   UNL     1     -11.091  11.941  66.806  1.00  0.00    -0.359 C  
HETATM    2  C   UNL     1     -10.912  11.000  67.998  1.00  0.00    -0.258 C  
HETATM    3  C   UNL     1     -11.966  11.316  69.066  1.00  0.00    -0.393 C  
ENDROOT
BRANCH   2   4
HETATM    4  N   UNL     1     -11.041   9.581  67.641  1.00  0.00    -0.462 NA 
HETATM    5  H   UNL     1     -12.004   9.371  67.375  1.00  0.00     0.000 HD 
BRANCH   4   6
HETATM    6  C   UNL     1     -10.115   9.115  66.601  1.00  0.00    -0.273 C  
BRANCH   6   7
HETATM    7  C   UNL     1      -9.863   7.596  66.528  1.00  0.00    -0.172 C  
HETATM    8  O   UNL     1     -10.943   6.923  67.194  1.00  0.00    -0.415 OA 
HETATM    9  H   UNL     1     -10.788   5.987  67.150  1.00  0.00     0.000 HD 
BRANCH   7  10
HETATM   10  C   UNL     1      -8.539   7.202  67.189  1.00  0.00    -0.121 C  
BRANCH  10  11
HETATM   11  O   UNL     1      -8.147   8.266  68.075  1.00  0.00    -0.124 OA 
BRANCH  11  12
HETATM   12  C   UNL     1      -8.172   7.971  69.412  1.00  0.00    -0.122 A  
HETATM   13  C   UNL     1      -7.827   6.742  69.974  1.00  0.00    -0.111 A  
HETATM   14  C   UNL     1      -7.934   6.543  71.354  1.00  0.00    -0.108 A  
HETATM   15  C   UNL     1      -8.362   7.574  72.199  1.00  0.00    -0.127 A  
HETATM   16  C   UNL     1      -8.681   8.814  71.632  1.00  0.00    -0.255 A  
HETATM   17  C   UNL     1      -8.584   9.009  70.249  1.00  0.00    -0.193 A  
BRANCH  15  18
HETATM   18  C   UNL     1      -8.509   7.337  73.683  1.00  0.00    -0.182 C  
BRANCH  18  19
HETATM   19  C   UNL     1      -9.488   6.210  74.010  1.00  0.00    -0.156 C  
BRANCH  19  20
HETATM   20  O   UNL     1     -10.812   6.595  73.628  1.00  0.00    -0.274 OA 
BRANCH  20  21
HETATM   21  C   UNL     1     -11.457   5.537  72.919  1.00  0.00    -0.267 C  
BRANCH  21  22
HETATM   22  C   UNL     1     -12.202   6.109  71.757  1.00  0.00    -0.094 C  
HETATM   23  C   UNL     1     -12.068   7.580  71.445  1.00  0.00    -0.354 C  
HETATM   24  C   UNL     1     -11.476   6.559  70.514  1.00  0.00    -0.448 C  
ENDBRANCH  21  22
ENDBRANCH  20  21
ENDBRANCH  19  20
ENDBRANCH  18  19
ENDBRANCH  15  18
ENDBRANCH  11  12
ENDBRANCH  10  11
ENDBRANCH   7  10
ENDBRANCH   6   7
ENDBRANCH   4   6
ENDBRANCH   2   4
TORSDOF 11
ENDMDL
MODEL      169
REMARK 921   NORMALIZED FREE ENERGY PREDICTED BY IDOCK:   -3.72 KCAL/MOL
REMARK 922        TOTAL FREE ENERGY PREDICTED BY IDOCK:   -7.44 KCAL/MOL
REMARK 923 INTER-LIGAND FREE ENERGY PREDICTED BY IDOCK:   -6.81 KCAL/MOL
REMARK 924 INTRA-LIGAND FREE ENERGY PREDICTED BY IDOCK:   -0.64 KCAL/MOL
REMARK 927      BINDING AFFINITY PREDICTED BY RF-SCORE:    0.00 PKD
ROOT
HETATM    1  C   UNL     1     -10.618  13.358  64.569  1.00  0.00    -0.441 C  
HETATM    2  C   UNL     1     -10.944  14.679  65.267  1.00  0.00    -0.367 C  
HETATM    3  C   UNL     1     -11.796  15.554  64.341  1.00  0.00    -0.222 C  
ENDROOT
BRANCH   2   4
HETATM    4  N   UNL     1     -11.680  14.503  66.526  1.00  0.00    -0.380 NA 
HETATM    5  H   UNL     1     -12.623  14.884  66.439  1.00  0.00     0.000 HD 
BRANCH   4   6
HETATM    6  C   UNL     1     -11.736  13.124  67.026  1.00  0.00    -0.377 C  
BRANCH   6   7
HETATM    7  C   UNL     1     -11.548  12.929  68.544  1.00  0.00    -0.323 C  
HETATM    8  O   UNL     1     -10.149  13.047  68.848  1.00  0.00    -0.424 OA 
HETATM    9  H   UNL     1     -10.032  12.927  69.783  1.00  0.00     0.000 HD 
BRANCH   7  10
HETATM   10  C   UNL     1     -12.052  11.561  69.013  1.00  0.00    -0.238 C  
BRANCH  10  11
HETATM   11  O   UNL     1     -12.018  11.541  70.451  1.00  0.00    -0.349 OA 
BRANCH  11  12
HETATM   12  C   UNL     1     -11.913  10.304  71.031  1.00  0.00    -0.385 A  
HETATM   13  C   UNL     1     -12.937   9.640  71.706  1.00  0.00    -0.514 A  
HETATM   14  C   UNL     1     -12.700   8.395  72.296  1.00  0.00    -0.376 A  
HETATM   15  C   UNL     1     -11.445   7.781  72.201  1.00  0.00    -0.361 A  
HETATM   16  C   UNL     1     -10.429   8.441  71.500  1.00  0.00    -0.305 A  
HETATM   17  C   UNL     1     -10.664   9.691  70.918  1.00  0.00    -0.402 A  
BRANCH  15  18
HETATM   18  C   UNL     1     -11.190   6.453  72.874  1.00  0.00    -0.219 C  
BRANCH  18  19
HETATM   19  C   UNL     1      -9.869   5.814  72.444  1.00  0.00    -0.163 C  
BRANCH  19  20
HETATM   20  O   UNL     1     -10.127   4.581  71.767  1.00  0.00    -0.187 OA 
BRANCH  20  21
HETATM   21  C   UNL     1      -9.289   3.544  72.278  1.00  0.00    -0.115 C  
BRANCH  21  22
HETATM   22  C   UNL     1     -10.141   2.395  72.710  1.00  0.00    -0.219 C  
HETATM   23  C   UNL     1     -10.136   1.974  74.159  1.00  0.00    -0.154 C  
HETATM   24  C   UNL     1     -11.363   2.612  73.568  1.00  0.00    -0.285 C  
ENDBRANCH  21  22
ENDBRANCH  20  21
ENDBRANCH  19  20
ENDBRANCH  18  19
ENDBRANCH  15  18
ENDBRANCH  11  12
ENDBRANCH  10  11
ENDBRANCH   7  10
ENDBRANCH   6   7
ENDBRANCH   4   6
ENDBRANCH   2   4
TORSDOF 11
ENDMDL
MODEL      170
REMARK 921   NORMALIZED FREE ENERGY PREDICTED BY IDOCK:   -3.70 KCAL/MOL
REMARK 922        TOTAL FREE ENERGY PREDICTED BY IDOCK:   -7.41 KCAL/MOL
REMARK 923 INTER-LIGAND FREE ENERGY PREDICTED BY IDOCK:   -6.66 KCAL/MOL
REMARK 924 INTRA-LIGAND FREE ENERGY PREDICTED BY IDOCK:   -0.75 KCAL/MOL
REMARK 927      BINDING AFFINITY PREDICTED BY RF-SCORE:    0.00 PKD
ROOT
HETATM    1  C   UNL     1      -8.587  17.138  66.745  1.00  0.00    -0.270 C  
HETATM    2  C   UNL     1      -9.046  15.686  66.614  1.00  0.00    -0.282 C  
HETATM    3  C   UNL     1      -8.215  14.797  67.545  1.00  0.00    -0.201 C  
ENDROOT
BRANCH   2   4
HETATM    4  N   UNL     1     -10.463  15.494  66.951  1.00  0.00    -0.295 NA 
HETATM    5  H   UNL     1     -10.970  16.373  66.852  1.00  0.00     0.000 HD 
BRANCH   4   6
HETATM    6  C   UNL     1     -11.143  14.430  66.200  1.00  0.00    -0.330 C  
BRANCH   6   7
HETATM    7  C   UNL     1     -12.011  13.452  67.017  1.00  0.00    -0.379 C  
HETATM    8  O   UNL     1     -12.429  14.113  68.222  1.00  0.00    -0.538 OA 
HETATM    9  H   UNL     1     -12.964  13.511  68.726  1.00  0.00     0.000 HD 
BRANCH   7  10
HETATM   10  C   UNL     1     -11.249  12.175  67.381  1.00  0.00    -0.302 C  
BRANCH  10  11
HETATM   11  O   UNL     1     -12.139  11.317  68.117  1.00  0.00    -0.635 OA 
BRANCH  11  12
HETATM   12  C   UNL     1     -11.573  10.606  69.142  1.00  0.00    -0.271 A  
HETATM   13  C   UNL     1     -10.326   9.983  69.100  1.00  0.00    -0.233 A  
HETATM   14  C   UNL     1      -9.870   9.246  70.197  1.00  0.00    -0.250 A  
HETATM   15  C   UNL     1     -10.638   9.139  71.363  1.00  0.00    -0.412 A  
HETATM   16  C   UNL     1     -11.878   9.789  71.409  1.00  0.00    -0.488 A  
HETATM   17  C   UNL     1     -12.338  10.518  70.306  1.00  0.00    -0.377 A  
BRANCH  15  18
HETATM   18  C   UNL     1     -10.152   8.310  72.528  1.00  0.00    -0.376 C  
BRANCH  18  19
HETATM   19  C   UNL     1     -11.272   7.511  73.195  1.00  0.00    -0.267 C  
BRANCH  19  20
HETATM   20  O   UNL     1     -10.729   6.704  74.244  1.00  0.00    -0.150 OA 
BRANCH  20  21
HETATM   21  C   UNL     1     -10.757   5.324  73.879  1.00  0.00    -0.272 C  
BRANCH  21  22
HETATM   22  C   UNL     1      -9.431   4.709  74.188  1.00  0.00    -0.128 C  
HETATM   23  C   UNL     1      -8.457   4.447  73.065  1.00  0.00    -0.098 C  
HETATM   24  C   UNL     1      -8.158   5.512  74.084  1.00  0.00    -0.105 C  
ENDBRANCH  21  22
ENDBRANCH  20  21
ENDBRANCH  19  20
ENDBRANCH  18  19
ENDBRANCH  15  18
ENDBRANCH  11  12
ENDBRANCH  10  11
ENDBRANCH   7  10
ENDBRANCH   6   7
ENDBRANCH   4   6
ENDBRANCH   2   4
TORSDOF 11
ENDMDL
MODEL      171
REMARK 921   NORMALIZED FREE ENERGY PREDICTED BY IDOCK:   -3.70 KCAL/MOL
REMARK 922        TOTAL FREE ENERGY PREDICTED BY IDOCK:   -7.41 KCAL/MOL
REMARK 923 INTER-LIGAND FREE ENERGY PREDICTED BY IDOCK:   -5.83 KCAL/MOL
REMARK 924 INTRA-LIGAND FREE ENERGY PREDICTED BY IDOCK:   -1.58 KCAL/MOL
REMARK 927      BINDING AFFINITY PREDICTED BY RF-SCORE:    0.00 PKD
ROOT
HETATM    1  C   UNL     1      -9.307  11.517  66.392  1.00  0.00    -0.222 C  
HETATM    2  C   UNL     1     -10.336  10.854  65.475  1.00  0.00    -0.252 C  
HETATM    3  C   UNL     1     -10.624  11.767  64.279  1.00  0.00    -0.386 C  
ENDROOT
BRANCH   2   4
HETATM    4  N   UNL     1      -9.894   9.552  64.955  1.00  0.00    -0.420 NA 
HETATM    5  H   UNL     1     -10.582   9.185  64.298  1.00  0.00     0.000 HD 
BRANCH   4   6
HETATM    6  C   UNL     1      -8.558   9.546  64.347  1.00  0.00    -0.195 C  
BRANCH   6   7
HETATM    7  C   UNL     1      -7.812   8.198  64.327  1.00  0.00    -0.137 C  
HETATM    8  O   UNL     1      -8.407   7.363  63.320  1.00  0.00    -0.354 OA 
HETATM    9  H   UNL     1      -7.947   6.532  63.308  1.00  0.00     0.000 HD 
BRANCH   7  10
HETATM   10  C   UNL     1      -7.882   7.483  65.680  1.00  0.00    -0.110 C  
BRANCH  10  11
HETATM   11  O   UNL     1      -9.209   6.951  65.837  1.00  0.00    -0.086 OA 
BRANCH  11  12
HETATM   12  C   UNL     1      -9.655   6.825  67.126  1.00  0.00    -0.144 A  
HETATM   13  C   UNL     1     -10.920   6.377  67.503  1.00  0.00    -0.454 A  
HETATM   14  C   UNL     1     -11.279   6.331  68.853  1.00  0.00    -0.387 A  
HETATM   15  C   UNL     1     -10.373   6.708  69.852  1.00  0.00    -0.232 A  
HETATM   16  C   UNL     1      -9.095   7.132  69.469  1.00  0.00    -0.146 A  
HETATM   17  C   UNL     1      -8.740   7.187  68.117  1.00  0.00    -0.127 A  
BRANCH  15  18
HETATM   18  C   UNL     1     -10.784   6.690  71.305  1.00  0.00    -0.269 C  
BRANCH  18  19
HETATM   19  C   UNL     1     -12.254   7.057  71.511  1.00  0.00    -0.368 C  
BRANCH  19  20
HETATM   20  O   UNL     1     -12.498   8.372  71.005  1.00  0.00    -0.228 OA 
BRANCH  20  21
HETATM   21  C   UNL     1     -11.642   9.321  71.642  1.00  0.00    -0.393 C  
BRANCH  21  22
HETATM   22  C   UNL     1     -11.429  10.481  70.725  1.00  0.00    -0.376 C  
HETATM   23  C   UNL     1     -11.018  10.229  69.295  1.00  0.00    -0.284 C  
HETATM   24  C   UNL     1     -12.389  10.767  69.597  1.00  0.00    -0.262 C  
ENDBRANCH  21  22
ENDBRANCH  20  21
ENDBRANCH  19  20
ENDBRANCH  18  19
ENDBRANCH  15  18
ENDBRANCH  11  12
ENDBRANCH  10  11
ENDBRANCH   7  10
ENDBRANCH   6   7
ENDBRANCH   4   6
ENDBRANCH   2   4
TORSDOF 11
ENDMDL
MODEL      172
REMARK 921   NORMALIZED FREE ENERGY PREDICTED BY IDOCK:   -3.69 KCAL/MOL
REMARK 922        TOTAL FREE ENERGY PREDICTED BY IDOCK:   -7.40 KCAL/MOL
REMARK 923 INTER-LIGAND FREE ENERGY PREDICTED BY IDOCK:   -6.15 KCAL/MOL
REMARK 924 INTRA-LIGAND FREE ENERGY PREDICTED BY IDOCK:   -1.25 KCAL/MOL
REMARK 927      BINDING AFFINITY PREDICTED BY RF-SCORE:    0.00 PKD
ROOT
HETATM    1  C   UNL     1      -6.428  14.931  69.240  1.00  0.00    -0.121 C  
HETATM    2  C   UNL     1      -7.307  14.322  68.146  1.00  0.00    -0.128 C  
HETATM    3  C   UNL     1      -6.588  13.124  67.516  1.00  0.00    -0.159 C  
ENDROOT
BRANCH   2   4
HETATM    4  N   UNL     1      -8.610  13.858  68.641  1.00  0.00    -0.309 NA 
HETATM    5  H   UNL     1      -8.864  14.364  69.490  1.00  0.00     0.000 HD 
BRANCH   4   6
HETATM    6  C   UNL     1      -9.705  13.923  67.665  1.00  0.00    -0.226 C  
BRANCH   6   7
HETATM    7  C   UNL     1     -11.085  14.352  68.200  1.00  0.00    -0.264 C  
HETATM    8  O   UNL     1     -10.897  15.034  69.451  1.00  0.00    -0.241 OA 
HETATM    9  H   UNL     1     -11.748  15.298  69.781  1.00  0.00     0.000 HD 
BRANCH   7  10
HETATM   10  C   UNL     1     -12.016  13.154  68.414  1.00  0.00    -0.289 C  
BRANCH  10  11
HETATM   11  O   UNL     1     -12.128  12.922  69.830  1.00  0.00    -0.299 OA 
BRANCH  11  12
HETATM   12  C   UNL     1     -11.928  11.631  70.241  1.00  0.00    -0.358 A  
HETATM   13  C   UNL     1     -12.631  10.992  71.263  1.00  0.00    -0.517 A  
HETATM   14  C   UNL     1     -12.309   9.681  71.626  1.00  0.00    -0.489 A  
HETATM   15  C   UNL     1     -11.300   8.976  70.960  1.00  0.00    -0.362 A  
HETATM   16  C   UNL     1     -10.615   9.614  69.918  1.00  0.00    -0.281 A  
HETATM   17  C   UNL     1     -10.931  10.930  69.561  1.00  0.00    -0.306 A  
BRANCH  15  18
HETATM   18  C   UNL     1     -10.936   7.573  71.385  1.00  0.00    -0.254 C  
BRANCH  18  19
HETATM   19  C   UNL     1     -11.483   6.505  70.437  1.00  0.00    -0.404 C  
BRANCH  19  20
HETATM   20  O   UNL     1     -10.476   6.139  69.491  1.00  0.00    -0.205 OA 
BRANCH  20  21
HETATM   21  C   UNL     1     -10.952   6.322  68.157  1.00  0.00    -0.323 C  
BRANCH  21  22
HETATM   22  C   UNL     1      -9.797   6.641  67.264  1.00  0.00    -0.184 C  
HETATM   23  C   UNL     1      -9.704   8.010  66.635  1.00  0.00    -0.313 C  
HETATM   24  C   UNL     1      -8.722   7.606  67.699  1.00  0.00    -0.122 C  
ENDBRANCH  21  22
ENDBRANCH  20  21
ENDBRANCH  19  20
ENDBRANCH  18  19
ENDBRANCH  15  18
ENDBRANCH  11  12
ENDBRANCH  10  11
ENDBRANCH   7  10
ENDBRANCH   6   7
ENDBRANCH   4   6
ENDBRANCH   2   4
TORSDOF 11
ENDMDL
MODEL      173
REMARK 921   NORMALIZED FREE ENERGY PREDICTED BY IDOCK:   -3.69 KCAL/MOL
REMARK 922        TOTAL FREE ENERGY PREDICTED BY IDOCK:   -7.39 KCAL/MOL
REMARK 923 INTER-LIGAND FREE ENERGY PREDICTED BY IDOCK:   -6.04 KCAL/MOL
REMARK 924 INTRA-LIGAND FREE ENERGY PREDICTED BY IDOCK:   -1.36 KCAL/MOL
REMARK 927      BINDING AFFINITY PREDICTED BY RF-SCORE:    0.00 PKD
ROOT
HETATM    1  C   UNL     1      -8.519  10.071  65.584  1.00  0.00    -0.155 C  
HETATM    2  C   UNL     1      -9.594   9.378  66.423  1.00  0.00    -0.224 C  
HETATM    3  C   UNL     1      -9.086   9.190  67.856  1.00  0.00    -0.134 C  
ENDROOT
BRANCH   2   4
HETATM    4  N   UNL     1     -10.854  10.130  66.484  1.00  0.00    -0.048 NA 
HETATM    5  H   UNL     1     -11.360   9.900  67.340  1.00  0.00     0.000 HD 
BRANCH   4   6
HETATM    6  C   UNL     1     -10.717  11.587  66.354  1.00  0.00    -0.273 C  
BRANCH   6   7
HETATM    7  C   UNL     1     -11.443  12.247  65.165  1.00  0.00    -0.341 C  
HETATM    8  O   UNL     1     -11.170  11.480  63.981  1.00  0.00    -0.369 OA 
HETATM    9  H   UNL     1     -11.617  11.887  63.249  1.00  0.00     0.000 HD 
BRANCH   7  10
HETATM   10  C   UNL     1     -10.987  13.693  64.946  1.00  0.00    -0.367 C  
BRANCH  10  11
HETATM   11  O   UNL     1     -11.396  14.469  66.086  1.00  0.00    -0.338 OA 
BRANCH  11  12
HETATM   12  C   UNL     1     -10.385  14.966  66.865  1.00  0.00    -0.264 A  
HETATM   13  C   UNL     1     -10.510  15.352  68.200  1.00  0.00    -0.247 A  
HETATM   14  C   UNL     1      -9.415  15.889  68.883  1.00  0.00    -0.234 A  
HETATM   15  C   UNL     1      -8.171  16.026  68.255  1.00  0.00    -0.159 A  
HETATM   16  C   UNL     1      -8.045  15.612  66.923  1.00  0.00    -0.290 A  
HETATM   17  C   UNL     1      -9.145  15.085  66.236  1.00  0.00    -0.288 A  
BRANCH  15  18
HETATM   18  C   UNL     1      -7.005  16.641  68.992  1.00  0.00    -0.212 C  
BRANCH  18  19
HETATM   19  C   UNL     1      -6.478  17.908  68.317  1.00  0.00    -0.193 C  
BRANCH  19  20
HETATM   20  O   UNL     1      -7.239  19.038  68.752  1.00  0.00    -0.299 OA 
BRANCH  20  21
HETATM   21  C   UNL     1      -7.791  19.732  67.633  1.00  0.00    -0.291 C  
BRANCH  21  22
HETATM   22  C   UNL     1      -9.240  19.390  67.510  1.00  0.00    -0.375 C  
HETATM   23  C   UNL     1     -10.141  20.274  66.683  1.00  0.00    -0.538 C  
HETATM   24  C   UNL     1      -9.812  18.886  66.208  1.00  0.00    -0.401 C  
ENDBRANCH  21  22
ENDBRANCH  20  21
ENDBRANCH  19  20
ENDBRANCH  18  19
ENDBRANCH  15  18
ENDBRANCH  11  12
ENDBRANCH  10  11
ENDBRANCH   7  10
ENDBRANCH   6   7
ENDBRANCH   4   6
ENDBRANCH   2   4
TORSDOF 11
ENDMDL
MODEL      174
REMARK 921   NORMALIZED FREE ENERGY PREDICTED BY IDOCK:   -3.68 KCAL/MOL
REMARK 922        TOTAL FREE ENERGY PREDICTED BY IDOCK:   -7.39 KCAL/MOL
REMARK 923 INTER-LIGAND FREE ENERGY PREDICTED BY IDOCK:   -6.08 KCAL/MOL
REMARK 924 INTRA-LIGAND FREE ENERGY PREDICTED BY IDOCK:   -1.31 KCAL/MOL
REMARK 927      BINDING AFFINITY PREDICTED BY RF-SCORE:    0.00 PKD
ROOT
HETATM    1  C   UNL     1      -8.452  19.154  67.065  1.00  0.00    -0.304 C  
HETATM    2  C   UNL     1      -9.851  19.199  67.680  1.00  0.00    -0.335 C  
HETATM    3  C   UNL     1     -10.782  20.020  66.782  1.00  0.00    -0.364 C  
ENDROOT
BRANCH   2   4
HETATM    4  N   UNL     1     -10.449  17.868  67.856  1.00  0.00    -0.389 NA 
HETATM    5  H   UNL     1     -10.247  17.282  67.046  1.00  0.00     0.000 HD 
BRANCH   4   6
HETATM    6  C   UNL     1     -10.069  17.174  69.092  1.00  0.00    -0.254 C  
BRANCH   6   7
HETATM    7  C   UNL     1     -11.105  16.199  69.686  1.00  0.00    -0.344 C  
HETATM    8  O   UNL     1     -10.416  15.252  70.517  1.00  0.00    -0.484 OA 
HETATM    9  H   UNL     1     -11.054  14.651  70.883  1.00  0.00     0.000 HD 
BRANCH   7  10
HETATM   10  C   UNL     1     -11.876  15.447  68.596  1.00  0.00    -0.296 C  
BRANCH  10  11
HETATM   11  O   UNL     1     -10.997  15.263  67.473  1.00  0.00    -0.301 OA 
BRANCH  11  12
HETATM   12  C   UNL     1     -10.700  13.965  67.151  1.00  0.00    -0.282 A  
HETATM   13  C   UNL     1      -9.428  13.394  67.191  1.00  0.00    -0.244 A  
HETATM   14  C   UNL     1      -9.239  12.067  66.797  1.00  0.00    -0.201 A  
HETATM   15  C   UNL     1     -10.319  11.278  66.382  1.00  0.00    -0.291 A  
HETATM   16  C   UNL     1     -11.598  11.848  66.370  1.00  0.00    -0.315 A  
HETATM   17  C   UNL     1     -11.784  13.181  66.754  1.00  0.00    -0.439 A  
BRANCH  15  18
HETATM   18  C   UNL     1     -10.098   9.856  65.924  1.00  0.00    -0.316 C  
BRANCH  18  19
HETATM   19  C   UNL     1      -8.631   9.428  66.004  1.00  0.00    -0.142 C  
BRANCH  19  20
HETATM   20  O   UNL     1      -8.466   8.469  67.052  1.00  0.00    -0.112 OA 
BRANCH  20  21
HETATM   21  C   UNL     1      -7.844   9.070  68.188  1.00  0.00    -0.100 C  
BRANCH  21  22
HETATM   22  C   UNL     1      -8.593   8.679  69.420  1.00  0.00    -0.127 C  
HETATM   23  C   UNL     1      -9.693   9.574  69.933  1.00  0.00    -0.252 C  
HETATM   24  C   UNL     1     -10.032   8.232  69.347  1.00  0.00    -0.188 C  
ENDBRANCH  21  22
ENDBRANCH  20  21
ENDBRANCH  19  20
ENDBRANCH  18  19
ENDBRANCH  15  18
ENDBRANCH  11  12
ENDBRANCH  10  11
ENDBRANCH   7  10
ENDBRANCH   6   7
ENDBRANCH   4   6
ENDBRANCH   2   4
TORSDOF 11
ENDMDL
MODEL      175
REMARK 921   NORMALIZED FREE ENERGY PREDICTED BY IDOCK:   -3.67 KCAL/MOL
REMARK 922        TOTAL FREE ENERGY PREDICTED BY IDOCK:   -7.37 KCAL/MOL
REMARK 923 INTER-LIGAND FREE ENERGY PREDICTED BY IDOCK:   -6.29 KCAL/MOL
REMARK 924 INTRA-LIGAND FREE ENERGY PREDICTED BY IDOCK:   -1.07 KCAL/MOL
REMARK 927      BINDING AFFINITY PREDICTED BY RF-SCORE:    0.00 PKD
ROOT
HETATM    1  C   UNL     1     -12.141  15.637  69.620  1.00  0.00    -0.329 C  
HETATM    2  C   UNL     1     -12.429  14.939  70.949  1.00  0.00    -0.330 C  
HETATM    3  C   UNL     1     -13.930  15.009  71.253  1.00  0.00    -0.525 C  
ENDROOT
BRANCH   2   4
HETATM    4  N   UNL     1     -12.032  13.524  70.959  1.00  0.00    -0.448 NA 
HETATM    5  H   UNL     1     -11.156  13.408  71.468  1.00  0.00     0.000 HD 
BRANCH   4   6
HETATM    6  C   UNL     1     -13.045  12.597  71.477  1.00  0.00    -0.278 C  
BRANCH   6   7
HETATM    7  C   UNL     1     -13.007  11.155  70.933  1.00  0.00    -0.187 C  
HETATM    8  O   UNL     1     -12.891  10.252  72.045  1.00  0.00    -0.417 OA 
HETATM    9  H   UNL     1     -12.867   9.363  71.710  1.00  0.00     0.000 HD 
BRANCH   7  10
HETATM   10  C   UNL     1     -11.831  10.933  69.978  1.00  0.00    -0.347 C  
BRANCH  10  11
HETATM   11  O   UNL     1     -12.247  11.320  68.657  1.00  0.00    -0.562 OA 
BRANCH  11  12
HETATM   12  C   UNL     1     -11.457  10.882  67.628  1.00  0.00    -0.200 A  
HETATM   13  C   UNL     1     -10.741   9.686  67.613  1.00  0.00    -0.324 A  
HETATM   14  C   UNL     1      -9.930   9.363  66.521  1.00  0.00    -0.339 A  
HETATM   15  C   UNL     1      -9.840  10.216  65.414  1.00  0.00    -0.375 A  
HETATM   16  C   UNL     1     -10.582  11.404  65.423  1.00  0.00    -0.333 A  
HETATM   17  C   UNL     1     -11.385  11.731  66.522  1.00  0.00    -0.370 A  
BRANCH  15  18
HETATM   18  C   UNL     1      -8.932   9.876  64.256  1.00  0.00    -0.278 C  
BRANCH  18  19
HETATM   19  C   UNL     1      -7.667   9.135  64.692  1.00  0.00    -0.113 C  
BRANCH  19  20
HETATM   20  O   UNL     1      -7.803   7.740  64.410  1.00  0.00    -0.127 OA 
BRANCH  20  21
HETATM   21  C   UNL     1      -6.997   6.968  65.301  1.00  0.00    -0.056 C  
BRANCH  21  22
HETATM   22  C   UNL     1      -7.855   6.437  66.402  1.00  0.00    -0.104 C  
HETATM   23  C   UNL     1      -9.230   5.905  66.079  1.00  0.00    -0.143 C  
HETATM   24  C   UNL     1      -8.146   4.962  66.520  1.00  0.00    -0.107 C  
ENDBRANCH  21  22
ENDBRANCH  20  21
ENDBRANCH  19  20
ENDBRANCH  18  19
ENDBRANCH  15  18
ENDBRANCH  11  12
ENDBRANCH  10  11
ENDBRANCH   7  10
ENDBRANCH   6   7
ENDBRANCH   4   6
ENDBRANCH   2   4
TORSDOF 11
ENDMDL
MODEL      176
REMARK 921   NORMALIZED FREE ENERGY PREDICTED BY IDOCK:   -3.67 KCAL/MOL
REMARK 922        TOTAL FREE ENERGY PREDICTED BY IDOCK:   -7.36 KCAL/MOL
REMARK 923 INTER-LIGAND FREE ENERGY PREDICTED BY IDOCK:   -5.90 KCAL/MOL
REMARK 924 INTRA-LIGAND FREE ENERGY PREDICTED BY IDOCK:   -1.46 KCAL/MOL
REMARK 927      BINDING AFFINITY PREDICTED BY RF-SCORE:    0.00 PKD
ROOT
HETATM    1  C   UNL     1      -8.466  10.204  66.683  1.00  0.00    -0.127 C  
HETATM    2  C   UNL     1      -9.708   9.689  65.954  1.00  0.00    -0.275 C  
HETATM    3  C   UNL     1      -9.745  10.260  64.533  1.00  0.00    -0.395 C  
ENDROOT
BRANCH   2   4
HETATM    4  N   UNL     1      -9.756   8.224  65.854  1.00  0.00    -0.456 NA 
HETATM    5  H   UNL     1     -10.434   7.941  65.147  1.00  0.00     0.000 HD 
BRANCH   4   6
HETATM    6  C   UNL     1      -8.462   7.575  65.603  1.00  0.00    -0.132 C  
BRANCH   6   7
HETATM    7  C   UNL     1      -8.242   6.195  66.252  1.00  0.00    -0.116 C  
HETATM    8  O   UNL     1      -9.136   5.254  65.637  1.00  0.00    -0.157 OA 
HETATM    9  H   UNL     1      -9.001   4.403  66.037  1.00  0.00     0.000 HD 
BRANCH   7  10
HETATM   10  C   UNL     1      -8.500   6.223  67.762  1.00  0.00    -0.116 C  
BRANCH  10  11
HETATM   11  O   UNL     1      -9.897   5.956  67.982  1.00  0.00    -0.116 OA 
BRANCH  11  12
HETATM   12  C   UNL     1     -10.457   6.564  69.074  1.00  0.00    -0.216 A  
HETATM   13  C   UNL     1     -11.570   6.099  69.774  1.00  0.00    -0.201 A  
HETATM   14  C   UNL     1     -12.080   6.830  70.851  1.00  0.00    -0.421 A  
HETATM   15  C   UNL     1     -11.475   8.022  71.263  1.00  0.00    -0.299 A  
HETATM   16  C   UNL     1     -10.342   8.471  70.573  1.00  0.00    -0.226 A  
HETATM   17  C   UNL     1      -9.837   7.744  69.489  1.00  0.00    -0.179 A  
BRANCH  15  18
HETATM   18  C   UNL     1     -12.057   8.822  72.405  1.00  0.00    -0.379 C  
BRANCH  18  19
HETATM   19  C   UNL     1     -13.089   9.851  71.942  1.00  0.00    -0.459 C  
BRANCH  19  20
HETATM   20  O   UNL     1     -12.422  11.016  71.449  1.00  0.00    -0.360 OA 
BRANCH  20  21
HETATM   21  C   UNL     1     -12.616  11.145  70.040  1.00  0.00    -0.147 C  
BRANCH  21  22
HETATM   22  C   UNL     1     -11.493  11.944  69.462  1.00  0.00    -0.357 C  
HETATM   23  C   UNL     1     -11.584  12.423  68.034  1.00  0.00    -0.403 C  
HETATM   24  C   UNL     1     -11.659  13.413  69.163  1.00  0.00    -0.365 C  
ENDBRANCH  21  22
ENDBRANCH  20  21
ENDBRANCH  19  20
ENDBRANCH  18  19
ENDBRANCH  15  18
ENDBRANCH  11  12
ENDBRANCH  10  11
ENDBRANCH   7  10
ENDBRANCH   6   7
ENDBRANCH   4   6
ENDBRANCH   2   4
TORSDOF 11
ENDMDL
MODEL      177
REMARK 921   NORMALIZED FREE ENERGY PREDICTED BY IDOCK:   -3.66 KCAL/MOL
REMARK 922        TOTAL FREE ENERGY PREDICTED BY IDOCK:   -7.35 KCAL/MOL
REMARK 923 INTER-LIGAND FREE ENERGY PREDICTED BY IDOCK:   -6.10 KCAL/MOL
REMARK 924 INTRA-LIGAND FREE ENERGY PREDICTED BY IDOCK:   -1.25 KCAL/MOL
REMARK 927      BINDING AFFINITY PREDICTED BY RF-SCORE:    0.00 PKD
ROOT
HETATM    1  C   UNL     1      -8.031  12.991  67.484  1.00  0.00    -0.177 C  
HETATM    2  C   UNL     1      -7.978  11.578  68.067  1.00  0.00    -0.130 C  
HETATM    3  C   UNL     1      -9.310  11.254  68.752  1.00  0.00    -0.136 C  
ENDROOT
BRANCH   2   4
HETATM    4  N   UNL     1      -7.727  10.544  67.054  1.00  0.00    -0.108 NA 
HETATM    5  H   UNL     1      -8.052   9.637  67.390  1.00  0.00     0.000 HD 
BRANCH   4   6
HETATM    6  C   UNL     1      -8.287  10.823  65.726  1.00  0.00    -0.158 C  
BRANCH   6   7
HETATM    7  C   UNL     1      -9.645  10.173  65.396  1.00  0.00    -0.264 C  
HETATM    8  O   UNL     1      -9.405   8.987  64.620  1.00  0.00    -0.425 OA 
HETATM    9  H   UNL     1     -10.242   8.586  64.417  1.00  0.00     0.000 HD 
BRANCH   7  10
HETATM   10  C   UNL     1     -10.557  11.117  64.606  1.00  0.00    -0.318 C  
BRANCH  10  11
HETATM   11  O   UNL     1     -11.515  11.681  65.519  1.00  0.00    -0.236 OA 
BRANCH  11  12
HETATM   12  C   UNL     1     -11.289  12.978  65.896  1.00  0.00    -0.313 A  
HETATM   13  C   UNL     1     -11.657  13.538  67.120  1.00  0.00    -0.393 A  
HETATM   14  C   UNL     1     -11.412  14.890  67.377  1.00  0.00    -0.354 A  
HETATM   15  C   UNL     1     -10.774  15.700  66.430  1.00  0.00    -0.291 A  
HETATM   16  C   UNL     1     -10.383  15.126  65.214  1.00  0.00    -0.425 A  
HETATM   17  C   UNL     1     -10.637  13.775  64.953  1.00  0.00    -0.427 A  
BRANCH  15  18
HETATM   18  C   UNL     1     -10.548  17.168  66.705  1.00  0.00    -0.192 C  
BRANCH  18  19
HETATM   19  C   UNL     1      -9.119  17.617  66.393  1.00  0.00    -0.234 C  
BRANCH  19  20
HETATM   20  O   UNL     1      -8.894  18.920  66.937  1.00  0.00    -0.280 OA 
BRANCH  20  21
HETATM   21  C   UNL     1      -8.887  18.873  68.364  1.00  0.00    -0.344 C  
BRANCH  21  22
HETATM   22  C   UNL     1      -7.476  18.765  68.843  1.00  0.00    -0.321 C  
HETATM   23  C   UNL     1      -6.389  19.522  68.120  1.00  0.00    -0.261 C  
HETATM   24  C   UNL     1      -6.790  19.931  69.510  1.00  0.00    -0.313 C  
ENDBRANCH  21  22
ENDBRANCH  20  21
ENDBRANCH  19  20
ENDBRANCH  18  19
ENDBRANCH  15  18
ENDBRANCH  11  12
ENDBRANCH  10  11
ENDBRANCH   7  10
ENDBRANCH   6   7
ENDBRANCH   4   6
ENDBRANCH   2   4
TORSDOF 11
ENDMDL
MODEL      178
REMARK 921   NORMALIZED FREE ENERGY PREDICTED BY IDOCK:   -3.66 KCAL/MOL
REMARK 922        TOTAL FREE ENERGY PREDICTED BY IDOCK:   -7.35 KCAL/MOL
REMARK 923 INTER-LIGAND FREE ENERGY PREDICTED BY IDOCK:   -5.82 KCAL/MOL
REMARK 924 INTRA-LIGAND FREE ENERGY PREDICTED BY IDOCK:   -1.52 KCAL/MOL
REMARK 927      BINDING AFFINITY PREDICTED BY RF-SCORE:    0.00 PKD
ROOT
HETATM    1  C   UNL     1      -7.079   6.160  68.280  1.00  0.00    -0.082 C  
HETATM    2  C   UNL     1      -7.719   4.816  67.929  1.00  0.00    -0.082 C  
HETATM    3  C   UNL     1      -7.832   3.954  69.191  1.00  0.00    -0.052 C  
ENDROOT
BRANCH   2   4
HETATM    4  N   UNL     1      -9.062   4.948  67.350  1.00  0.00    -0.115 NA 
HETATM    5  H   UNL     1      -9.369   4.055  66.965  1.00  0.00     0.000 HD 
BRANCH   4   6
HETATM    6  C   UNL     1     -10.082   5.485  68.260  1.00  0.00    -0.173 C  
BRANCH   6   7
HETATM    7  C   UNL     1     -10.788   6.783  67.821  1.00  0.00    -0.264 C  
HETATM    8  O   UNL     1     -10.430   7.058  66.457  1.00  0.00    -0.482 OA 
HETATM    9  H   UNL     1     -10.865   7.858  66.187  1.00  0.00     0.000 HD 
BRANCH   7  10
HETATM   10  C   UNL     1     -10.391   7.976  68.696  1.00  0.00    -0.200 C  
BRANCH  10  11
HETATM   11  O   UNL     1      -9.716   8.936  67.865  1.00  0.00    -0.151 OA 
BRANCH  11  12
HETATM   12  C   UNL     1     -10.087  10.243  68.038  1.00  0.00    -0.162 A  
HETATM   13  C   UNL     1     -11.368  10.681  68.373  1.00  0.00    -0.348 A  
HETATM   14  C   UNL     1     -11.639  12.048  68.480  1.00  0.00    -0.363 A  
HETATM   15  C   UNL     1     -10.632  13.000  68.281  1.00  0.00    -0.260 A  
HETATM   16  C   UNL     1      -9.342  12.553  67.971  1.00  0.00    -0.205 A  
HETATM   17  C   UNL     1      -9.073  11.185  67.854  1.00  0.00    -0.150 A  
BRANCH  15  18
HETATM   18  C   UNL     1     -10.945  14.475  68.364  1.00  0.00    -0.255 C  
BRANCH  18  19
HETATM   19  C   UNL     1     -11.826  14.960  67.211  1.00  0.00    -0.219 C  
BRANCH  19  20
HETATM   20  O   UNL     1     -11.097  14.883  65.983  1.00  0.00    -0.329 OA 
BRANCH  20  21
HETATM   21  C   UNL     1     -11.955  14.474  64.917  1.00  0.00    -0.422 C  
BRANCH  21  22
HETATM   22  C   UNL     1     -12.244  13.014  65.054  1.00  0.00    -0.501 C  
HETATM   23  C   UNL     1     -12.306  12.153  63.817  1.00  0.00    -0.635 C  
HETATM   24  C   UNL     1     -11.175  11.982  64.794  1.00  0.00    -0.373 C  
ENDBRANCH  21  22
ENDBRANCH  20  21
ENDBRANCH  19  20
ENDBRANCH  18  19
ENDBRANCH  15  18
ENDBRANCH  11  12
ENDBRANCH  10  11
ENDBRANCH   7  10
ENDBRANCH   6   7
ENDBRANCH   4   6
ENDBRANCH   2   4
TORSDOF 11
ENDMDL
MODEL      179
REMARK 921   NORMALIZED FREE ENERGY PREDICTED BY IDOCK:   -3.66 KCAL/MOL
REMARK 922        TOTAL FREE ENERGY PREDICTED BY IDOCK:   -7.34 KCAL/MOL
REMARK 923 INTER-LIGAND FREE ENERGY PREDICTED BY IDOCK:   -6.36 KCAL/MOL
REMARK 924 INTRA-LIGAND FREE ENERGY PREDICTED BY IDOCK:   -0.97 KCAL/MOL
REMARK 927      BINDING AFFINITY PREDICTED BY RF-SCORE:    0.00 PKD
ROOT
HETATM    1  C   UNL     1      -6.079   9.934  67.208  1.00  0.00    -0.059 C  
HETATM    2  C   UNL     1      -6.304   8.442  67.452  1.00  0.00    -0.057 C  
HETATM    3  C   UNL     1      -6.644   8.207  68.928  1.00  0.00    -0.049 C  
ENDROOT
BRANCH   2   4
HETATM    4  N   UNL     1      -7.394   7.881  66.643  1.00  0.00    -0.087 NA 
HETATM    5  H   UNL     1      -7.051   7.636  65.713  1.00  0.00     0.000 HD 
BRANCH   4   6
HETATM    6  C   UNL     1      -8.090   6.736  67.244  1.00  0.00    -0.118 C  
BRANCH   6   7
HETATM    7  C   UNL     1      -9.440   6.339  66.616  1.00  0.00    -0.152 C  
HETATM    8  O   UNL     1      -9.256   6.185  65.199  1.00  0.00    -0.356 OA 
HETATM    9  H   UNL     1     -10.088   5.941  64.812  1.00  0.00     0.000 HD 
BRANCH   7  10
HETATM   10  C   UNL     1     -10.524   7.391  66.871  1.00  0.00    -0.309 C  
BRANCH  10  11
HETATM   11  O   UNL     1     -10.092   8.222  67.964  1.00  0.00    -0.182 OA 
BRANCH  11  12
HETATM   12  C   UNL     1     -10.571   9.505  67.965  1.00  0.00    -0.230 A  
HETATM   13  C   UNL     1     -10.626  10.348  66.855  1.00  0.00    -0.293 A  
HETATM   14  C   UNL     1     -11.096  11.657  66.987  1.00  0.00    -0.359 A  
HETATM   15  C   UNL     1     -11.545  12.140  68.222  1.00  0.00    -0.382 A  
HETATM   16  C   UNL     1     -11.513  11.281  69.327  1.00  0.00    -0.369 A  
HETATM   17  C   UNL     1     -11.032   9.974  69.197  1.00  0.00    -0.256 A  
BRANCH  15  18
HETATM   18  C   UNL     1     -12.017  13.568  68.360  1.00  0.00    -0.378 C  
BRANCH  18  19
HETATM   19  C   UNL     1     -11.559  14.220  69.666  1.00  0.00    -0.296 C  
BRANCH  19  20
HETATM   20  O   UNL     1     -12.234  15.468  69.843  1.00  0.00    -0.355 OA 
BRANCH  20  21
HETATM   21  C   UNL     1     -13.073  15.424  70.998  1.00  0.00    -0.501 C  
BRANCH  21  22
HETATM   22  C   UNL     1     -12.354  16.047  72.150  1.00  0.00    -0.557 C  
HETATM   23  C   UNL     1     -13.039  16.129  73.492  1.00  0.00    -0.594 C  
HETATM   24  C   UNL     1     -11.864  15.210  73.305  1.00  0.00    -0.427 C  
ENDBRANCH  21  22
ENDBRANCH  20  21
ENDBRANCH  19  20
ENDBRANCH  18  19
ENDBRANCH  15  18
ENDBRANCH  11  12
ENDBRANCH  10  11
ENDBRANCH   7  10
ENDBRANCH   6   7
ENDBRANCH   4   6
ENDBRANCH   2   4
TORSDOF 11
ENDMDL
MODEL      180
REMARK 921   NORMALIZED FREE ENERGY PREDICTED BY IDOCK:   -3.65 KCAL/MOL
REMARK 922        TOTAL FREE ENERGY PREDICTED BY IDOCK:   -7.33 KCAL/MOL
REMARK 923 INTER-LIGAND FREE ENERGY PREDICTED BY IDOCK:   -6.60 KCAL/MOL
REMARK 924 INTRA-LIGAND FREE ENERGY PREDICTED BY IDOCK:   -0.73 KCAL/MOL
REMARK 927      BINDING AFFINITY PREDICTED BY RF-SCORE:    0.00 PKD
ROOT
HETATM    1  C   UNL     1     -10.729   6.664  71.686  1.00  0.00    -0.259 C  
HETATM    2  C   UNL     1     -10.986   7.803  70.698  1.00  0.00    -0.249 C  
HETATM    3  C   UNL     1     -10.421   9.111  71.262  1.00  0.00    -0.398 C  
ENDROOT
BRANCH   2   4
HETATM    4  N   UNL     1     -10.375   7.577  69.381  1.00  0.00    -0.208 NA 
HETATM    5  H   UNL     1      -9.425   7.224  69.491  1.00  0.00     0.000 HD 
BRANCH   4   6
HETATM    6  C   UNL     1     -11.140   6.704  68.482  1.00  0.00    -0.206 C  
BRANCH   6   7
HETATM    7  C   UNL     1     -10.889   6.874  66.971  1.00  0.00    -0.366 C  
HETATM    8  O   UNL     1     -11.095   5.605  66.329  1.00  0.00    -0.734 OA 
HETATM    9  H   UNL     1     -10.940   5.710  65.398  1.00  0.00     0.000 HD 
BRANCH   7  10
HETATM   10  C   UNL     1      -9.467   7.363  66.677  1.00  0.00    -0.187 C  
BRANCH  10  11
HETATM   11  O   UNL     1      -9.560   8.550  65.871  1.00  0.00    -0.197 OA 
BRANCH  11  12
HETATM   12  C   UNL     1      -9.763   9.721  66.551  1.00  0.00    -0.209 A  
HETATM   13  C   UNL     1     -11.005  10.307  66.797  1.00  0.00    -0.082 A  
HETATM   14  C   UNL     1     -11.086  11.531  67.467  1.00  0.00    -0.329 A  
HETATM   15  C   UNL     1      -9.933  12.179  67.926  1.00  0.00    -0.200 A  
HETATM   16  C   UNL     1      -8.691  11.573  67.699  1.00  0.00    -0.142 A  
HETATM   17  C   UNL     1      -8.609  10.352  67.019  1.00  0.00    -0.130 A  
BRANCH  15  18
HETATM   18  C   UNL     1     -10.030  13.519  68.616  1.00  0.00    -0.149 C  
BRANCH  18  19
HETATM   19  C   UNL     1     -11.459  13.870  69.031  1.00  0.00    -0.299 C  
BRANCH  19  20
HETATM   20  O   UNL     1     -11.443  15.006  69.899  1.00  0.00    -0.256 OA 
BRANCH  20  21
HETATM   21  C   UNL     1     -12.766  15.323  70.333  1.00  0.00    -0.356 C  
BRANCH  21  22
HETATM   22  C   UNL     1     -12.940  14.870  71.746  1.00  0.00    -0.417 C  
HETATM   23  C   UNL     1     -12.211  15.595  72.850  1.00  0.00    -0.563 C  
HETATM   24  C   UNL     1     -13.706  15.704  72.742  1.00  0.00    -0.662 C  
ENDBRANCH  21  22
ENDBRANCH  20  21
ENDBRANCH  19  20
ENDBRANCH  18  19
ENDBRANCH  15  18
ENDBRANCH  11  12
ENDBRANCH  10  11
ENDBRANCH   7  10
ENDBRANCH   6   7
ENDBRANCH   4   6
ENDBRANCH   2   4
TORSDOF 11
ENDMDL
MODEL      181
REMARK 921   NORMALIZED FREE ENERGY PREDICTED BY IDOCK:   -3.63 KCAL/MOL
REMARK 922        TOTAL FREE ENERGY PREDICTED BY IDOCK:   -7.30 KCAL/MOL
REMARK 923 INTER-LIGAND FREE ENERGY PREDICTED BY IDOCK:   -6.09 KCAL/MOL
REMARK 924 INTRA-LIGAND FREE ENERGY PREDICTED BY IDOCK:   -1.21 KCAL/MOL
REMARK 927      BINDING AFFINITY PREDICTED BY RF-SCORE:    0.00 PKD
ROOT
HETATM    1  C   UNL     1      -9.624   5.923  66.617  1.00  0.00    -0.174 C  
HETATM    2  C   UNL     1     -10.350   4.982  67.580  1.00  0.00    -0.068 C  
HETATM    3  C   UNL     1      -9.448   3.789  67.912  1.00  0.00    -0.224 C  
ENDROOT
BRANCH   2   4
HETATM    4  N   UNL     1     -10.729   5.628  68.845  1.00  0.00    -0.239 NA 
HETATM    5  H   UNL     1     -11.176   4.953  69.464  1.00  0.00     0.000 HD 
BRANCH   4   6
HETATM    6  C   UNL     1      -9.635   6.312  69.546  1.00  0.00    -0.147 C  
BRANCH   6   7
HETATM    7  C   UNL     1     -10.038   7.368  70.594  1.00  0.00    -0.190 C  
HETATM    8  O   UNL     1     -11.319   7.008  71.135  1.00  0.00    -0.259 OA 
HETATM    9  H   UNL     1     -11.567   7.658  71.781  1.00  0.00     0.000 HD 
BRANCH   7  10
HETATM   10  C   UNL     1     -10.123   8.773  69.990  1.00  0.00    -0.190 C  
BRANCH  10  11
HETATM   11  O   UNL     1     -10.250   8.639  68.563  1.00  0.00    -0.187 OA 
BRANCH  11  12
HETATM   12  C   UNL     1     -10.596   9.778  67.884  1.00  0.00    -0.259 A  
HETATM   13  C   UNL     1     -10.186  10.102  66.591  1.00  0.00    -0.287 A  
HETATM   14  C   UNL     1     -10.568  11.317  66.015  1.00  0.00    -0.314 A  
HETATM   15  C   UNL     1     -11.387  12.217  66.708  1.00  0.00    -0.398 A  
HETATM   16  C   UNL     1     -11.818  11.874  67.996  1.00  0.00    -0.323 A  
HETATM   17  C   UNL     1     -11.426  10.662  68.576  1.00  0.00    -0.333 A  
BRANCH  15  18
HETATM   18  C   UNL     1     -11.764  13.542  66.090  1.00  0.00    -0.397 C  
BRANCH  18  19
HETATM   19  C   UNL     1     -11.784  14.686  67.105  1.00  0.00    -0.373 C  
BRANCH  19  20
HETATM   20  O   UNL     1     -10.460  14.926  67.588  1.00  0.00    -0.245 OA 
BRANCH  20  21
HETATM   21  C   UNL     1     -10.494  15.376  68.943  1.00  0.00    -0.238 C  
BRANCH  21  22
HETATM   22  C   UNL     1     -11.871  15.181  69.489  1.00  0.00    -0.358 C  
HETATM   23  C   UNL     1     -12.094  14.175  70.591  1.00  0.00    -0.421 C  
HETATM   24  C   UNL     1     -12.229  15.644  70.879  1.00  0.00    -0.466 C  
ENDBRANCH  21  22
ENDBRANCH  20  21
ENDBRANCH  19  20
ENDBRANCH  18  19
ENDBRANCH  15  18
ENDBRANCH  11  12
ENDBRANCH  10  11
ENDBRANCH   7  10
ENDBRANCH   6   7
ENDBRANCH   4   6
ENDBRANCH   2   4
TORSDOF 11
ENDMDL
MODEL      182
REMARK 921   NORMALIZED FREE ENERGY PREDICTED BY IDOCK:   -3.63 KCAL/MOL
REMARK 922        TOTAL FREE ENERGY PREDICTED BY IDOCK:   -7.29 KCAL/MOL
REMARK 923 INTER-LIGAND FREE ENERGY PREDICTED BY IDOCK:   -6.32 KCAL/MOL
REMARK 924 INTRA-LIGAND FREE ENERGY PREDICTED BY IDOCK:   -0.97 KCAL/MOL
REMARK 927      BINDING AFFINITY PREDICTED BY RF-SCORE:    0.00 PKD
ROOT
HETATM    1  C   UNL     1     -10.329  15.000  69.394  1.00  0.00    -0.241 C  
HETATM    2  C   UNL     1     -11.473  15.740  68.700  1.00  0.00    -0.386 C  
HETATM    3  C   UNL     1     -10.922  16.963  67.959  1.00  0.00    -0.271 C  
ENDROOT
BRANCH   2   4
HETATM    4  N   UNL     1     -12.194  14.908  67.726  1.00  0.00    -0.506 NA 
HETATM    5  H   UNL     1     -13.184  15.153  67.718  1.00  0.00     0.000 HD 
BRANCH   4   6
HETATM    6  C   UNL     1     -11.654  14.938  66.361  1.00  0.00    -0.238 C  
BRANCH   6   7
HETATM    7  C   UNL     1     -11.798  13.649  65.530  1.00  0.00    -0.362 C  
HETATM    8  O   UNL     1     -13.097  13.646  64.915  1.00  0.00    -0.713 OA 
HETATM    9  H   UNL     1     -13.186  12.851  64.402  1.00  0.00     0.000 HD 
BRANCH   7  10
HETATM   10  C   UNL     1     -11.646  12.391  66.391  1.00  0.00    -0.384 C  
BRANCH  10  11
HETATM   11  O   UNL     1     -10.485  11.674  65.935  1.00  0.00    -0.239 OA 
BRANCH  11  12
HETATM   12  C   UNL     1      -9.872  10.876  66.865  1.00  0.00    -0.189 A  
HETATM   13  C   UNL     1      -8.732  11.215  67.593  1.00  0.00    -0.129 A  
HETATM   14  C   UNL     1      -8.168  10.298  68.485  1.00  0.00    -0.111 A  
HETATM   15  C   UNL     1      -8.746   9.039  68.686  1.00  0.00    -0.133 A  
HETATM   16  C   UNL     1      -9.906   8.714  67.971  1.00  0.00    -0.201 A  
HETATM   17  C   UNL     1     -10.464   9.628  67.070  1.00  0.00    -0.302 A  
BRANCH  15  18
HETATM   18  C   UNL     1      -8.108   8.043  69.625  1.00  0.00    -0.119 C  
BRANCH  18  19
HETATM   19  C   UNL     1      -8.196   8.469  71.091  1.00  0.00    -0.144 C  
BRANCH  19  20
HETATM   20  O   UNL     1      -9.523   8.915  71.384  1.00  0.00    -0.235 OA 
BRANCH  20  21
HETATM   21  C   UNL     1     -10.031   8.246  72.539  1.00  0.00    -0.303 C  
BRANCH  21  22
HETATM   22  C   UNL     1     -11.461   7.880  72.303  1.00  0.00    -0.403 C  
HETATM   23  C   UNL     1     -11.873   7.340  70.955  1.00  0.00    -0.352 C  
HETATM   24  C   UNL     1     -11.880   6.438  72.158  1.00  0.00    -0.361 C  
ENDBRANCH  21  22
ENDBRANCH  20  21
ENDBRANCH  19  20
ENDBRANCH  18  19
ENDBRANCH  15  18
ENDBRANCH  11  12
ENDBRANCH  10  11
ENDBRANCH   7  10
ENDBRANCH   6   7
ENDBRANCH   4   6
ENDBRANCH   2   4
TORSDOF 11
ENDMDL
MODEL      183
REMARK 921   NORMALIZED FREE ENERGY PREDICTED BY IDOCK:   -3.62 KCAL/MOL
REMARK 922        TOTAL FREE ENERGY PREDICTED BY IDOCK:   -7.28 KCAL/MOL
REMARK 923 INTER-LIGAND FREE ENERGY PREDICTED BY IDOCK:   -6.73 KCAL/MOL
REMARK 924 INTRA-LIGAND FREE ENERGY PREDICTED BY IDOCK:   -0.55 KCAL/MOL
REMARK 927      BINDING AFFINITY PREDICTED BY RF-SCORE:    0.00 PKD
ROOT
HETATM    1  C   UNL     1      -9.031   4.045  72.197  1.00  0.00    -0.145 C  
HETATM    2  C   UNL     1     -10.389   4.700  71.939  1.00  0.00    -0.150 C  
HETATM    3  C   UNL     1     -11.298   4.498  73.155  1.00  0.00    -0.318 C  
ENDROOT
BRANCH   2   4
HETATM    4  N   UNL     1     -10.295   6.143  71.678  1.00  0.00    -0.211 NA 
HETATM    5  H   UNL     1      -9.768   6.312  70.821  1.00  0.00     0.000 HD 
BRANCH   4   6
HETATM    6  C   UNL     1     -11.581   6.851  71.630  1.00  0.00    -0.287 C  
BRANCH   6   7
HETATM    7  C   UNL     1     -11.619   8.261  72.252  1.00  0.00    -0.383 C  
HETATM    8  O   UNL     1     -12.936   8.491  72.778  1.00  0.00    -0.628 OA 
HETATM    9  H   UNL     1     -12.960   9.360  73.161  1.00  0.00     0.000 HD 
BRANCH   7  10
HETATM   10  C   UNL     1     -11.288   9.349  71.227  1.00  0.00    -0.366 C  
BRANCH  10  11
HETATM   11  O   UNL     1     -12.343  10.327  71.256  1.00  0.00    -0.339 OA 
BRANCH  11  12
HETATM   12  C   UNL     1     -12.206  11.382  70.393  1.00  0.00    -0.362 A  
HETATM   13  C   UNL     1     -12.343  12.727  70.734  1.00  0.00    -0.375 A  
HETATM   14  C   UNL     1     -12.223  13.718  69.755  1.00  0.00    -0.368 A  
HETATM   15  C   UNL     1     -11.939  13.385  68.425  1.00  0.00    -0.359 A  
HETATM   16  C   UNL     1     -11.776  12.034  68.093  1.00  0.00    -0.398 A  
HETATM   17  C   UNL     1     -11.907  11.042  69.072  1.00  0.00    -0.399 A  
BRANCH  15  18
HETATM   18  C   UNL     1     -11.848  14.461  67.369  1.00  0.00    -0.430 C  
BRANCH  18  19
HETATM   19  C   UNL     1     -10.960  15.633  67.790  1.00  0.00    -0.316 C  
BRANCH  19  20
HETATM   20  O   UNL     1      -9.670  15.147  68.169  1.00  0.00    -0.212 OA 
BRANCH  20  21
HETATM   21  C   UNL     1      -8.955  16.143  68.901  1.00  0.00    -0.247 C  
BRANCH  21  22
HETATM   22  C   UNL     1      -7.566  16.246  68.361  1.00  0.00    -0.166 C  
HETATM   23  C   UNL     1      -6.646  15.054  68.455  1.00  0.00    -0.102 C  
HETATM   24  C   UNL     1      -7.160  15.500  67.114  1.00  0.00    -0.171 C  
ENDBRANCH  21  22
ENDBRANCH  20  21
ENDBRANCH  19  20
ENDBRANCH  18  19
ENDBRANCH  15  18
ENDBRANCH  11  12
ENDBRANCH  10  11
ENDBRANCH   7  10
ENDBRANCH   6   7
ENDBRANCH   4   6
ENDBRANCH   2   4
TORSDOF 11
ENDMDL
MODEL      184
REMARK 921   NORMALIZED FREE ENERGY PREDICTED BY IDOCK:   -3.62 KCAL/MOL
REMARK 922        TOTAL FREE ENERGY PREDICTED BY IDOCK:   -7.28 KCAL/MOL
REMARK 923 INTER-LIGAND FREE ENERGY PREDICTED BY IDOCK:   -6.36 KCAL/MOL
REMARK 924 INTRA-LIGAND FREE ENERGY PREDICTED BY IDOCK:   -0.92 KCAL/MOL
REMARK 927      BINDING AFFINITY PREDICTED BY RF-SCORE:    0.00 PKD
ROOT
HETATM    1  C   UNL     1     -12.710  12.088  63.349  1.00  0.00    -0.527 C  
HETATM    2  C   UNL     1     -12.081  13.100  64.307  1.00  0.00    -0.414 C  
HETATM    3  C   UNL     1     -12.294  14.519  63.771  1.00  0.00     0.104 C  
ENDROOT
BRANCH   2   4
HETATM    4  N   UNL     1     -12.643  13.040  65.663  1.00  0.00    -0.532 NA 
HETATM    5  H   UNL     1     -12.402  12.152  66.105  1.00  0.00     0.000 HD 
BRANCH   4   6
HETATM    6  C   UNL     1     -12.274  14.158  66.540  1.00  0.00    -0.433 C  
BRANCH   6   7
HETATM    7  C   UNL     1     -12.105  13.838  68.038  1.00  0.00    -0.280 C  
HETATM    8  O   UNL     1     -12.411  15.021  68.794  1.00  0.00    -0.586 OA 
HETATM    9  H   UNL     1     -12.308  14.824  69.718  1.00  0.00     0.000 HD 
BRANCH   7  10
HETATM   10  C   UNL     1     -10.682  13.382  68.371  1.00  0.00    -0.256 C  
BRANCH  10  11
HETATM   11  O   UNL     1     -10.084  12.867  67.168  1.00  0.00    -0.237 OA 
BRANCH  11  12
HETATM   12  C   UNL     1     -10.088  11.504  67.033  1.00  0.00    -0.210 A  
HETATM   13  C   UNL     1      -9.834  10.809  65.851  1.00  0.00    -0.290 A  
HETATM   14  C   UNL     1      -9.910   9.414  65.824  1.00  0.00    -0.345 A  
HETATM   15  C   UNL     1     -10.213   8.687  66.982  1.00  0.00    -0.360 A  
HETATM   16  C   UNL     1     -10.440   9.388  68.172  1.00  0.00    -0.267 A  
HETATM   17  C   UNL     1     -10.375  10.786  68.196  1.00  0.00    -0.197 A  
BRANCH  15  18
HETATM   18  C   UNL     1     -10.327   7.181  66.933  1.00  0.00    -0.349 C  
BRANCH  18  19
HETATM   19  C   UNL     1      -8.980   6.478  67.105  1.00  0.00    -0.113 C  
BRANCH  19  20
HETATM   20  O   UNL     1      -8.944   5.808  68.368  1.00  0.00    -0.113 OA 
BRANCH  20  21
HETATM   21  C   UNL     1     -10.258   5.412  68.763  1.00  0.00    -0.182 C  
BRANCH  21  22
HETATM   22  C   UNL     1     -10.458   5.749  70.205  1.00  0.00    -0.349 C  
HETATM   23  C   UNL     1     -10.117   4.723  71.258  1.00  0.00    -0.258 C  
HETATM   24  C   UNL     1      -9.280   5.964  71.123  1.00  0.00    -0.163 C  
ENDBRANCH  21  22
ENDBRANCH  20  21
ENDBRANCH  19  20
ENDBRANCH  18  19
ENDBRANCH  15  18
ENDBRANCH  11  12
ENDBRANCH  10  11
ENDBRANCH   7  10
ENDBRANCH   6   7
ENDBRANCH   4   6
ENDBRANCH   2   4
TORSDOF 11
ENDMDL
MODEL      185
REMARK 921   NORMALIZED FREE ENERGY PREDICTED BY IDOCK:   -3.61 KCAL/MOL
REMARK 922        TOTAL FREE ENERGY PREDICTED BY IDOCK:   -7.27 KCAL/MOL
REMARK 923 INTER-LIGAND FREE ENERGY PREDICTED BY IDOCK:   -6.54 KCAL/MOL
REMARK 924 INTRA-LIGAND FREE ENERGY PREDICTED BY IDOCK:   -0.73 KCAL/MOL
REMARK 927      BINDING AFFINITY PREDICTED BY RF-SCORE:    0.00 PKD
ROOT
HETATM    1  C   UNL     1      -8.438   5.362  67.750  1.00  0.00    -0.105 C  
HETATM    2  C   UNL     1      -9.620   5.709  66.845  1.00  0.00    -0.141 C  
HETATM    3  C   UNL     1     -10.764   6.281  67.688  1.00  0.00    -0.391 C  
ENDROOT
BRANCH   2   4
HETATM    4  N   UNL     1      -9.286   6.694  65.807  1.00  0.00    -0.374 NA 
HETATM    5  H   UNL     1      -8.919   7.544  66.235  1.00  0.00     0.000 HD 
BRANCH   4   6
HETATM    6  C   UNL     1      -8.368   6.214  64.766  1.00  0.00    -0.070 C  
BRANCH   6   7
HETATM    7  C   UNL     1      -7.234   7.171  64.348  1.00  0.00    -0.067 C  
HETATM    8  O   UNL     1      -6.024   6.757  65.004  1.00  0.00    -0.034 OA 
HETATM    9  H   UNL     1      -5.325   7.346  64.746  1.00  0.00     0.000 HD 
BRANCH   7  10
HETATM   10  C   UNL     1      -7.540   8.623  64.726  1.00  0.00    -0.102 C  
BRANCH  10  11
HETATM   11  O   UNL     1      -8.778   8.998  64.097  1.00  0.00    -0.181 OA 
BRANCH  11  12
HETATM   12  C   UNL     1      -9.225  10.265  64.362  1.00  0.00    -0.252 A  
HETATM   13  C   UNL     1      -9.271  10.857  65.624  1.00  0.00    -0.227 A  
HETATM   14  C   UNL     1      -9.789  12.146  65.779  1.00  0.00    -0.264 A  
HETATM   15  C   UNL     1     -10.245  12.876  64.675  1.00  0.00    -0.321 A  
HETATM   16  C   UNL     1     -10.172  12.287  63.406  1.00  0.00    -0.360 A  
HETATM   17  C   UNL     1      -9.662  10.993  63.254  1.00  0.00    -0.396 A  
BRANCH  15  18
HETATM   18  C   UNL     1     -10.837  14.254  64.859  1.00  0.00    -0.429 C  
BRANCH  18  19
HETATM   19  C   UNL     1      -9.959  15.167  65.715  1.00  0.00    -0.345 C  
BRANCH  19  20
HETATM   20  O   UNL     1     -10.167  16.530  65.335  1.00  0.00    -0.566 OA 
BRANCH  20  21
HETATM   21  C   UNL     1      -9.684  17.412  66.349  1.00  0.00    -0.290 C  
BRANCH  21  22
HETATM   22  C   UNL     1     -10.456  18.690  66.294  1.00  0.00    -0.468 C  
HETATM   23  C   UNL     1     -10.558  19.546  67.532  1.00  0.00    -0.599 C  
HETATM   24  C   UNL     1      -9.755  20.025  66.355  1.00  0.00    -0.557 C  
ENDBRANCH  21  22
ENDBRANCH  20  21
ENDBRANCH  19  20
ENDBRANCH  18  19
ENDBRANCH  15  18
ENDBRANCH  11  12
ENDBRANCH  10  11
ENDBRANCH   7  10
ENDBRANCH   6   7
ENDBRANCH   4   6
ENDBRANCH   2   4
TORSDOF 11
ENDMDL
MODEL      186
REMARK 921   NORMALIZED FREE ENERGY PREDICTED BY IDOCK:   -3.61 KCAL/MOL
REMARK 922        TOTAL FREE ENERGY PREDICTED BY IDOCK:   -7.27 KCAL/MOL
REMARK 923 INTER-LIGAND FREE ENERGY PREDICTED BY IDOCK:   -5.76 KCAL/MOL
REMARK 924 INTRA-LIGAND FREE ENERGY PREDICTED BY IDOCK:   -1.51 KCAL/MOL
REMARK 927      BINDING AFFINITY PREDICTED BY RF-SCORE:    0.00 PKD
ROOT
HETATM    1  C   UNL     1     -10.827  12.320  63.645  1.00  0.00    -0.522 C  
HETATM    2  C   UNL     1     -10.873  13.448  64.676  1.00  0.00    -0.392 C  
HETATM    3  C   UNL     1     -12.020  14.407  64.339  1.00  0.00    -0.471 C  
ENDROOT
BRANCH   2   4
HETATM    4  N   UNL     1     -11.074  12.968  66.051  1.00  0.00    -0.275 NA 
HETATM    5  H   UNL     1     -12.061  12.767  66.212  1.00  0.00     0.000 HD 
BRANCH   4   6
HETATM    6  C   UNL     1     -10.252  11.813  66.433  1.00  0.00    -0.215 C  
BRANCH   6   7
HETATM    7  C   UNL     1     -11.005  10.530  66.835  1.00  0.00    -0.131 C  
HETATM    8  O   UNL     1     -11.800  10.814  67.998  1.00  0.00    -0.725 OA 
HETATM    9  H   UNL     1     -12.265  10.023  68.246  1.00  0.00     0.000 HD 
BRANCH   7  10
HETATM   10  C   UNL     1     -10.048   9.376  67.148  1.00  0.00    -0.231 C  
BRANCH  10  11
HETATM   11  O   UNL     1      -9.026   9.871  68.031  1.00  0.00    -0.122 OA 
BRANCH  11  12
HETATM   12  C   UNL     1      -8.592   8.997  68.994  1.00  0.00    -0.134 A  
HETATM   13  C   UNL     1      -8.175   7.686  68.764  1.00  0.00    -0.128 A  
HETATM   14  C   UNL     1      -7.794   6.871  69.834  1.00  0.00    -0.115 A  
HETATM   15  C   UNL     1      -7.798   7.357  71.147  1.00  0.00    -0.092 A  
HETATM   16  C   UNL     1      -8.193   8.682  71.368  1.00  0.00    -0.205 A  
HETATM   17  C   UNL     1      -8.584   9.495  70.298  1.00  0.00    -0.258 A  
BRANCH  15  18
HETATM   18  C   UNL     1      -7.420   6.456  72.299  1.00  0.00    -0.093 C  
BRANCH  18  19
HETATM   19  C   UNL     1      -8.601   6.139  73.217  1.00  0.00    -0.123 C  
BRANCH  19  20
HETATM   20  O   UNL     1      -9.645   5.517  72.462  1.00  0.00    -0.149 OA 
BRANCH  20  21
HETATM   21  C   UNL     1     -10.920   5.816  73.030  1.00  0.00    -0.278 C  
BRANCH  21  22
HETATM   22  C   UNL     1     -11.838   6.289  71.950  1.00  0.00    -0.359 C  
HETATM   23  C   UNL     1     -11.600   7.637  71.314  1.00  0.00    -0.302 C  
HETATM   24  C   UNL     1     -11.372   6.382  70.519  1.00  0.00    -0.438 C  
ENDBRANCH  21  22
ENDBRANCH  20  21
ENDBRANCH  19  20
ENDBRANCH  18  19
ENDBRANCH  15  18
ENDBRANCH  11  12
ENDBRANCH  10  11
ENDBRANCH   7  10
ENDBRANCH   6   7
ENDBRANCH   4   6
ENDBRANCH   2   4
TORSDOF 11
ENDMDL
MODEL      187
REMARK 921   NORMALIZED FREE ENERGY PREDICTED BY IDOCK:   -3.61 KCAL/MOL
REMARK 922        TOTAL FREE ENERGY PREDICTED BY IDOCK:   -7.26 KCAL/MOL
REMARK 923 INTER-LIGAND FREE ENERGY PREDICTED BY IDOCK:   -6.27 KCAL/MOL
REMARK 924 INTRA-LIGAND FREE ENERGY PREDICTED BY IDOCK:   -0.99 KCAL/MOL
REMARK 927      BINDING AFFINITY PREDICTED BY RF-SCORE:    0.00 PKD
ROOT
HETATM    1  C   UNL     1     -10.181  13.364  64.611  1.00  0.00    -0.338 C  
HETATM    2  C   UNL     1     -10.437  14.629  65.432  1.00  0.00    -0.380 C  
HETATM    3  C   UNL     1     -11.213  15.644  64.585  1.00  0.00    -0.380 C  
ENDROOT
BRANCH   2   4
HETATM    4  N   UNL     1     -11.209  14.379  66.656  1.00  0.00    -0.329 NA 
HETATM    5  H   UNL     1     -12.085  14.901  66.634  1.00  0.00     0.000 HD 
BRANCH   4   6
HETATM    6  C   UNL     1     -11.472  12.963  66.948  1.00  0.00    -0.341 C  
BRANCH   6   7
HETATM    7  C   UNL     1     -10.893  12.408  68.264  1.00  0.00    -0.237 C  
HETATM    8  O   UNL     1      -9.880  11.441  67.943  1.00  0.00    -0.171 OA 
HETATM    9  H   UNL     1      -9.523  11.098  68.755  1.00  0.00     0.000 HD 
BRANCH   7  10
HETATM   10  C   UNL     1     -11.968  11.744  69.129  1.00  0.00    -0.293 C  
BRANCH  10  11
HETATM   11  O   UNL     1     -11.403  11.487  70.427  1.00  0.00    -0.121 OA 
BRANCH  11  12
HETATM   12  C   UNL     1     -11.424  10.182  70.840  1.00  0.00    -0.360 A  
HETATM   13  C   UNL     1     -12.520   9.533  71.409  1.00  0.00    -0.450 A  
HETATM   14  C   UNL     1     -12.410   8.206  71.834  1.00  0.00    -0.371 A  
HETATM   15  C   UNL     1     -11.213   7.496  71.677  1.00  0.00    -0.275 A  
HETATM   16  C   UNL     1     -10.124   8.145  71.081  1.00  0.00    -0.222 A  
HETATM   17  C   UNL     1     -10.232   9.476  70.665  1.00  0.00    -0.364 A  
BRANCH  15  18
HETATM   18  C   UNL     1     -11.094   6.075  72.174  1.00  0.00    -0.328 C  
BRANCH  18  19
HETATM   19  C   UNL     1      -9.954   5.306  71.505  1.00  0.00    -0.182 C  
BRANCH  19  20
HETATM   20  O   UNL     1     -10.428   4.684  70.308  1.00  0.00    -0.137 OA 
BRANCH  20  21
HETATM   21  C   UNL     1      -9.686   5.144  69.177  1.00  0.00    -0.163 C  
BRANCH  21  22
HETATM   22  C   UNL     1     -10.637   5.516  68.087  1.00  0.00    -0.207 C  
HETATM   23  C   UNL     1     -10.478   6.844  67.388  1.00  0.00    -0.339 C  
HETATM   24  C   UNL     1     -10.187   5.569  66.648  1.00  0.00    -0.279 C  
ENDBRANCH  21  22
ENDBRANCH  20  21
ENDBRANCH  19  20
ENDBRANCH  18  19
ENDBRANCH  15  18
ENDBRANCH  11  12
ENDBRANCH  10  11
ENDBRANCH   7  10
ENDBRANCH   6   7
ENDBRANCH   4   6
ENDBRANCH   2   4
TORSDOF 11
ENDMDL
MODEL      188
REMARK 921   NORMALIZED FREE ENERGY PREDICTED BY IDOCK:   -3.60 KCAL/MOL
REMARK 922        TOTAL FREE ENERGY PREDICTED BY IDOCK:   -7.25 KCAL/MOL
REMARK 923 INTER-LIGAND FREE ENERGY PREDICTED BY IDOCK:   -6.12 KCAL/MOL
REMARK 924 INTRA-LIGAND FREE ENERGY PREDICTED BY IDOCK:   -1.14 KCAL/MOL
REMARK 927      BINDING AFFINITY PREDICTED BY RF-SCORE:    0.00 PKD
ROOT
HETATM    1  C   UNL     1      -8.324   4.459  67.081  1.00  0.00    -0.101 C  
HETATM    2  C   UNL     1      -9.779   4.440  67.549  1.00  0.00    -0.163 C  
HETATM    3  C   UNL     1      -9.855   4.884  69.014  1.00  0.00    -0.250 C  
ENDROOT
BRANCH   2   4
HETATM    4  N   UNL     1     -10.652   5.324  66.763  1.00  0.00    -0.331 NA 
HETATM    5  H   UNL     1     -11.518   4.841  66.523  1.00  0.00     0.000 HD 
BRANCH   4   6
HETATM    6  C   UNL     1     -10.951   6.619  67.388  1.00  0.00    -0.360 C  
BRANCH   6   7
HETATM    7  C   UNL     1     -10.313   7.864  66.740  1.00  0.00    -0.287 C  
HETATM    8  O   UNL     1      -9.476   7.434  65.654  1.00  0.00    -0.377 OA 
HETATM    9  H   UNL     1      -9.083   8.201  65.255  1.00  0.00     0.000 HD 
BRANCH   7  10
HETATM   10  C   UNL     1      -9.471   8.663  67.740  1.00  0.00    -0.142 C  
BRANCH  10  11
HETATM   11  O   UNL     1     -10.339   9.590  68.415  1.00  0.00    -0.190 OA 
BRANCH  11  12
HETATM   12  C   UNL     1     -10.544  10.787  67.781  1.00  0.00    -0.228 A  
HETATM   13  C   UNL     1     -11.670  11.596  67.929  1.00  0.00    -0.329 A  
HETATM   14  C   UNL     1     -11.789  12.780  67.195  1.00  0.00    -0.415 A  
HETATM   15  C   UNL     1     -10.775  13.190  66.321  1.00  0.00    -0.295 A  
HETATM   16  C   UNL     1      -9.634  12.388  66.197  1.00  0.00    -0.238 A  
HETATM   17  C   UNL     1      -9.521  11.197  66.924  1.00  0.00    -0.203 A  
BRANCH  15  18
HETATM   18  C   UNL     1     -10.930  14.452  65.506  1.00  0.00    -0.330 C  
BRANCH  18  19
HETATM   19  C   UNL     1      -9.833  15.479  65.787  1.00  0.00    -0.357 C  
BRANCH  19  20
HETATM   20  O   UNL     1      -9.562  15.523  67.190  1.00  0.00    -0.217 OA 
BRANCH  20  21
HETATM   21  C   UNL     1      -9.832  16.824  67.712  1.00  0.00    -0.257 C  
BRANCH  21  22
HETATM   22  C   UNL     1     -10.565  16.690  69.007  1.00  0.00    -0.340 C  
HETATM   23  C   UNL     1     -11.785  15.806  69.077  1.00  0.00    -0.405 C  
HETATM   24  C   UNL     1     -10.526  15.403  69.792  1.00  0.00    -0.303 C  
ENDBRANCH  21  22
ENDBRANCH  20  21
ENDBRANCH  19  20
ENDBRANCH  18  19
ENDBRANCH  15  18
ENDBRANCH  11  12
ENDBRANCH  10  11
ENDBRANCH   7  10
ENDBRANCH   6   7
ENDBRANCH   4   6
ENDBRANCH   2   4
TORSDOF 11
ENDMDL
MODEL      189
REMARK 921   NORMALIZED FREE ENERGY PREDICTED BY IDOCK:   -3.60 KCAL/MOL
REMARK 922        TOTAL FREE ENERGY PREDICTED BY IDOCK:   -7.25 KCAL/MOL
REMARK 923 INTER-LIGAND FREE ENERGY PREDICTED BY IDOCK:   -6.53 KCAL/MOL
REMARK 924 INTRA-LIGAND FREE ENERGY PREDICTED BY IDOCK:   -0.72 KCAL/MOL
REMARK 927      BINDING AFFINITY PREDICTED BY RF-SCORE:    0.00 PKD
ROOT
HETATM    1  C   UNL     1     -10.085  19.996  65.764  1.00  0.00    -0.422 C  
HETATM    2  C   UNL     1      -9.549  19.990  67.197  1.00  0.00    -0.402 C  
HETATM    3  C   UNL     1     -10.596  19.381  68.135  1.00  0.00    -0.391 C  
ENDROOT
BRANCH   2   4
HETATM    4  N   UNL     1      -8.306  19.221  67.346  1.00  0.00    -0.283 NA 
HETATM    5  H   UNL     1      -7.646  19.731  67.934  1.00  0.00     0.000 HD 
BRANCH   4   6
HETATM    6  C   UNL     1      -8.478  17.852  67.848  1.00  0.00    -0.251 C  
BRANCH   6   7
HETATM    7  C   UNL     1      -8.231  16.710  66.843  1.00  0.00    -0.212 C  
HETATM    8  O   UNL     1      -7.355  17.193  65.811  1.00  0.00    -0.280 OA 
HETATM    9  H   UNL     1      -7.203  16.489  65.191  1.00  0.00     0.000 HD 
BRANCH   7  10
HETATM   10  C   UNL     1      -9.533  16.214  66.207  1.00  0.00    -0.316 C  
BRANCH  10  11
HETATM   11  O   UNL     1     -10.416  15.796  67.263  1.00  0.00    -0.294 OA 
BRANCH  11  12
HETATM   12  C   UNL     1     -10.626  14.446  67.368  1.00  0.00    -0.270 A  
HETATM   13  C   UNL     1     -11.726  13.846  67.980  1.00  0.00    -0.387 A  
HETATM   14  C   UNL     1     -11.812  12.454  68.066  1.00  0.00    -0.376 A  
HETATM   15  C   UNL     1     -10.816  11.636  67.520  1.00  0.00    -0.287 A  
HETATM   16  C   UNL     1      -9.727  12.243  66.883  1.00  0.00    -0.217 A  
HETATM   17  C   UNL     1      -9.636  13.638  66.807  1.00  0.00    -0.277 A  
BRANCH  15  18
HETATM   18  C   UNL     1     -10.901  10.133  67.650  1.00  0.00    -0.346 C  
BRANCH  18  19
HETATM   19  C   UNL     1      -9.997   9.582  68.753  1.00  0.00    -0.174 C  
BRANCH  19  20
HETATM   20  O   UNL     1      -9.643   8.229  68.454  1.00  0.00    -0.142 OA 
BRANCH  20  21
HETATM   21  C   UNL     1     -10.306   7.787  67.269  1.00  0.00    -0.301 C  
BRANCH  21  22
HETATM   22  C   UNL     1     -10.848   6.414  67.495  1.00  0.00    -0.438 C  
HETATM   23  C   UNL     1      -9.964   5.362  68.118  1.00  0.00    -0.207 C  
HETATM   24  C   UNL     1     -11.133   5.909  68.888  1.00  0.00    -0.254 C  
ENDBRANCH  21  22
ENDBRANCH  20  21
ENDBRANCH  19  20
ENDBRANCH  18  19
ENDBRANCH  15  18
ENDBRANCH  11  12
ENDBRANCH  10  11
ENDBRANCH   7  10
ENDBRANCH   6   7
ENDBRANCH   4   6
ENDBRANCH   2   4
TORSDOF 11
ENDMDL
MODEL      190
REMARK 921   NORMALIZED FREE ENERGY PREDICTED BY IDOCK:   -3.59 KCAL/MOL
REMARK 922        TOTAL FREE ENERGY PREDICTED BY IDOCK:   -7.22 KCAL/MOL
REMARK 923 INTER-LIGAND FREE ENERGY PREDICTED BY IDOCK:   -5.47 KCAL/MOL
REMARK 924 INTRA-LIGAND FREE ENERGY PREDICTED BY IDOCK:   -1.75 KCAL/MOL
REMARK 927      BINDING AFFINITY PREDICTED BY RF-SCORE:    0.00 PKD
ROOT
HETATM    1  C   UNL     1     -10.716  14.049  64.765  1.00  0.00    -0.442 C  
HETATM    2  C   UNL     1     -11.716  12.920  65.016  1.00  0.00    -0.344 C  
HETATM    3  C   UNL     1     -12.374  12.512  63.694  1.00  0.00    -0.618 C  
ENDROOT
BRANCH   2   4
HETATM    4  N   UNL     1     -11.101  11.722  65.604  1.00  0.00    -0.304 NA 
HETATM    5  H   UNL     1     -11.296  10.906  65.024  1.00  0.00     0.000 HD 
BRANCH   4   6
HETATM    6  C   UNL     1      -9.660  11.827  65.865  1.00  0.00    -0.230 C  
BRANCH   6   7
HETATM    7  C   UNL     1      -8.845  10.520  65.787  1.00  0.00    -0.175 C  
HETATM    8  O   UNL     1      -8.891  10.035  64.435  1.00  0.00    -0.177 OA 
HETATM    9  H   UNL     1      -8.389   9.230  64.387  1.00  0.00     0.000 HD 
BRANCH   7  10
HETATM   10  C   UNL     1      -9.396   9.444  66.727  1.00  0.00    -0.158 C  
BRANCH  10  11
HETATM   11  O   UNL     1      -9.994  10.101  67.858  1.00  0.00    -0.155 OA 
BRANCH  11  12
HETATM   12  C   UNL     1     -10.503   9.279  68.828  1.00  0.00    -0.210 A  
HETATM   13  C   UNL     1     -11.110   9.703  70.010  1.00  0.00    -0.293 A  
HETATM   14  C   UNL     1     -11.555   8.768  70.949  1.00  0.00    -0.320 A  
HETATM   15  C   UNL     1     -11.425   7.394  70.714  1.00  0.00    -0.313 A  
HETATM   16  C   UNL     1     -10.839   6.973  69.513  1.00  0.00    -0.265 A  
HETATM   17  C   UNL     1     -10.385   7.910  68.578  1.00  0.00    -0.229 A  
BRANCH  15  18
HETATM   18  C   UNL     1     -11.875   6.393  71.752  1.00  0.00    -0.374 C  
BRANCH  18  19
HETATM   19  C   UNL     1     -10.962   6.359  72.978  1.00  0.00    -0.238 C  
BRANCH  19  20
HETATM   20  O   UNL     1      -9.633   6.012  72.579  1.00  0.00    -0.154 OA 
BRANCH  20  21
HETATM   21  C   UNL     1      -8.677   6.582  73.473  1.00  0.00    -0.123 C  
BRANCH  21  22
HETATM   22  C   UNL     1      -7.649   7.323  72.683  1.00  0.00    -0.090 C  
HETATM   23  C   UNL     1      -7.670   7.236  71.176  1.00  0.00    -0.092 C  
HETATM   24  C   UNL     1      -8.023   8.529  71.857  1.00  0.00    -0.170 C  
ENDBRANCH  21  22
ENDBRANCH  20  21
ENDBRANCH  19  20
ENDBRANCH  18  19
ENDBRANCH  15  18
ENDBRANCH  11  12
ENDBRANCH  10  11
ENDBRANCH   7  10
ENDBRANCH   6   7
ENDBRANCH   4   6
ENDBRANCH   2   4
TORSDOF 11
ENDMDL
MODEL      191
REMARK 921   NORMALIZED FREE ENERGY PREDICTED BY IDOCK:   -3.58 KCAL/MOL
REMARK 922        TOTAL FREE ENERGY PREDICTED BY IDOCK:   -7.22 KCAL/MOL
REMARK 923 INTER-LIGAND FREE ENERGY PREDICTED BY IDOCK:   -5.79 KCAL/MOL
REMARK 924 INTRA-LIGAND FREE ENERGY PREDICTED BY IDOCK:   -1.43 KCAL/MOL
REMARK 927      BINDING AFFINITY PREDICTED BY RF-SCORE:    0.00 PKD
ROOT
HETATM    1  C   UNL     1      -7.031  11.371  67.312  1.00  0.00    -0.115 C  
HETATM    2  C   UNL     1      -6.954  10.152  68.231  1.00  0.00    -0.070 C  
HETATM    3  C   UNL     1      -7.835  10.380  69.464  1.00  0.00    -0.161 C  
ENDROOT
BRANCH   2   4
HETATM    4  N   UNL     1      -7.395   8.909  67.584  1.00  0.00    -0.084 NA 
HETATM    5  H   UNL     1      -6.588   8.375  67.260  1.00  0.00     0.000 HD 
BRANCH   4   6
HETATM    6  C   UNL     1      -8.271   8.059  68.400  1.00  0.00    -0.123 C  
BRANCH   6   7
HETATM    7  C   UNL     1      -9.346   7.249  67.649  1.00  0.00    -0.128 C  
HETATM    8  O   UNL     1      -8.688   6.275  66.822  1.00  0.00    -0.113 OA 
HETATM    9  H   UNL     1      -9.351   5.776  66.359  1.00  0.00     0.000 HD 
BRANCH   7  10
HETATM   10  C   UNL     1     -10.228   8.142  66.771  1.00  0.00    -0.302 C  
BRANCH  10  11
HETATM   11  O   UNL     1     -10.712   9.228  67.582  1.00  0.00    -0.269 OA 
BRANCH  11  12
HETATM   12  C   UNL     1     -10.651  10.472  67.012  1.00  0.00    -0.253 A  
HETATM   13  C   UNL     1     -10.183  10.751  65.728  1.00  0.00    -0.319 A  
HETATM   14  C   UNL     1     -10.127  12.070  65.270  1.00  0.00    -0.289 A  
HETATM   15  C   UNL     1     -10.561  13.131  66.073  1.00  0.00    -0.291 A  
HETATM   16  C   UNL     1     -11.055  12.843  67.352  1.00  0.00    -0.307 A  
HETATM   17  C   UNL     1     -11.101  11.523  67.814  1.00  0.00    -0.319 A  
BRANCH  15  18
HETATM   18  C   UNL     1     -10.462  14.555  65.581  1.00  0.00    -0.351 C  
BRANCH  18  19
HETATM   19  C   UNL     1      -9.856  15.501  66.619  1.00  0.00    -0.254 C  
BRANCH  19  20
HETATM   20  O   UNL     1     -10.902  16.146  67.352  1.00  0.00    -0.322 OA 
BRANCH  20  21
HETATM   21  C   UNL     1     -10.442  17.384  67.895  1.00  0.00    -0.383 C  
BRANCH  21  22
HETATM   22  C   UNL     1      -9.810  18.191  66.808  1.00  0.00    -0.337 C  
HETATM   23  C   UNL     1     -10.610  19.277  66.132  1.00  0.00    -0.549 C  
HETATM   24  C   UNL     1      -9.455  19.641  67.023  1.00  0.00    -0.450 C  
ENDBRANCH  21  22
ENDBRANCH  20  21
ENDBRANCH  19  20
ENDBRANCH  18  19
ENDBRANCH  15  18
ENDBRANCH  11  12
ENDBRANCH  10  11
ENDBRANCH   7  10
ENDBRANCH   6   7
ENDBRANCH   4   6
ENDBRANCH   2   4
TORSDOF 11
ENDMDL
MODEL      192
REMARK 921   NORMALIZED FREE ENERGY PREDICTED BY IDOCK:   -3.58 KCAL/MOL
REMARK 922        TOTAL FREE ENERGY PREDICTED BY IDOCK:   -7.21 KCAL/MOL
REMARK 923 INTER-LIGAND FREE ENERGY PREDICTED BY IDOCK:   -6.31 KCAL/MOL
REMARK 924 INTRA-LIGAND FREE ENERGY PREDICTED BY IDOCK:   -0.90 KCAL/MOL
REMARK 927      BINDING AFFINITY PREDICTED BY RF-SCORE:    0.00 PKD
ROOT
HETATM    1  C   UNL     1      -8.418   7.685  68.939  1.00  0.00    -0.129 C  
HETATM    2  C   UNL     1      -9.767   8.258  69.376  1.00  0.00    -0.177 C  
HETATM    3  C   UNL     1     -10.413   7.328  70.408  1.00  0.00    -0.232 C  
ENDROOT
BRANCH   2   4
HETATM    4  N   UNL     1      -9.661   9.595  69.976  1.00  0.00    -0.230 NA 
HETATM    5  H   UNL     1      -9.004  10.168  69.446  1.00  0.00     0.000 HD 
BRANCH   4   6
HETATM    6  C   UNL     1     -10.935  10.307  70.141  1.00  0.00    -0.314 C  
BRANCH   6   7
HETATM    7  C   UNL     1     -11.214  11.464  69.163  1.00  0.00    -0.272 C  
HETATM    8  O   UNL     1     -12.297  11.082  68.301  1.00  0.00    -0.717 OA 
HETATM    9  H   UNL     1     -12.469  11.795  67.698  1.00  0.00     0.000 HD 
BRANCH   7  10
HETATM   10  C   UNL     1      -9.987  11.803  68.310  1.00  0.00    -0.200 C  
BRANCH  10  11
HETATM   11  O   UNL     1     -10.340  12.884  67.429  1.00  0.00    -0.230 OA 
BRANCH  11  12
HETATM   12  C   UNL     1      -9.383  13.849  67.253  1.00  0.00    -0.231 A  
HETATM   13  C   UNL     1      -8.159  13.903  67.920  1.00  0.00    -0.158 A  
HETATM   14  C   UNL     1      -7.278  14.963  67.690  1.00  0.00    -0.207 A  
HETATM   15  C   UNL     1      -7.590  15.972  66.771  1.00  0.00    -0.247 A  
HETATM   16  C   UNL     1      -8.808  15.898  66.084  1.00  0.00    -0.363 A  
HETATM   17  C   UNL     1      -9.695  14.842  66.323  1.00  0.00    -0.326 A  
BRANCH  15  18
HETATM   18  C   UNL     1      -6.646  17.132  66.557  1.00  0.00    -0.277 C  
BRANCH  18  19
HETATM   19  C   UNL     1      -7.354  18.384  66.036  1.00  0.00    -0.238 C  
BRANCH  19  20
HETATM   20  O   UNL     1      -7.069  19.491  66.896  1.00  0.00    -0.205 OA 
BRANCH  20  21
HETATM   21  C   UNL     1      -8.229  20.308  67.060  1.00  0.00    -0.318 C  
BRANCH  21  22
HETATM   22  C   UNL     1      -9.384  19.446  67.453  1.00  0.00    -0.388 C  
HETATM   23  C   UNL     1      -9.314  18.655  68.736  1.00  0.00    -0.334 C  
HETATM   24  C   UNL     1     -10.266  19.813  68.620  1.00  0.00    -0.515 C  
ENDBRANCH  21  22
ENDBRANCH  20  21
ENDBRANCH  19  20
ENDBRANCH  18  19
ENDBRANCH  15  18
ENDBRANCH  11  12
ENDBRANCH  10  11
ENDBRANCH   7  10
ENDBRANCH   6   7
ENDBRANCH   4   6
ENDBRANCH   2   4
TORSDOF 11
ENDMDL
MODEL      193
REMARK 921   NORMALIZED FREE ENERGY PREDICTED BY IDOCK:   -3.57 KCAL/MOL
REMARK 922        TOTAL FREE ENERGY PREDICTED BY IDOCK:   -7.21 KCAL/MOL
REMARK 923 INTER-LIGAND FREE ENERGY PREDICTED BY IDOCK:   -6.29 KCAL/MOL
REMARK 924 INTRA-LIGAND FREE ENERGY PREDICTED BY IDOCK:   -0.92 KCAL/MOL
REMARK 927      BINDING AFFINITY PREDICTED BY RF-SCORE:    0.00 PKD
ROOT
HETATM    1  C   UNL     1      -8.313   3.299  72.636  1.00  0.00    -0.080 C  
HETATM    2  C   UNL     1      -9.724   3.512  72.086  1.00  0.00    -0.160 C  
HETATM    3  C   UNL     1     -10.756   3.134  73.154  1.00  0.00    -0.261 C  
ENDROOT
BRANCH   2   4
HETATM    4  N   UNL     1      -9.983   4.899  71.677  1.00  0.00    -0.183 NA 
HETATM    5  H   UNL     1     -10.123   4.949  70.668  1.00  0.00     0.000 HD 
BRANCH   4   6
HETATM    6  C   UNL     1     -11.096   5.556  72.375  1.00  0.00    -0.256 C  
BRANCH   6   7
HETATM    7  C   UNL     1     -11.593   6.890  71.785  1.00  0.00    -0.286 C  
HETATM    8  O   UNL     1     -12.988   7.034  72.095  1.00  0.00    -0.528 OA 
HETATM    9  H   UNL     1     -13.295   7.856  71.732  1.00  0.00     0.000 HD 
BRANCH   7  10
HETATM   10  C   UNL     1     -11.405   6.951  70.266  1.00  0.00    -0.324 C  
BRANCH  10  11
HETATM   11  O   UNL     1     -10.282   7.805  69.988  1.00  0.00    -0.202 OA 
BRANCH  11  12
HETATM   12  C   UNL     1     -10.443   8.687  68.951  1.00  0.00    -0.192 A  
HETATM   13  C   UNL     1      -9.973   8.498  67.652  1.00  0.00    -0.253 A  
HETATM   14  C   UNL     1     -10.160   9.490  66.685  1.00  0.00    -0.321 A  
HETATM   15  C   UNL     1     -10.841  10.675  66.990  1.00  0.00    -0.298 A  
HETATM   16  C   UNL     1     -11.334  10.847  68.289  1.00  0.00    -0.374 A  
HETATM   17  C   UNL     1     -11.137   9.858  69.260  1.00  0.00    -0.220 A  
BRANCH  15  18
HETATM   18  C   UNL     1     -11.005  11.755  65.947  1.00  0.00    -0.354 C  
BRANCH  18  19
HETATM   19  C   UNL     1     -10.227  13.028  66.284  1.00  0.00    -0.288 C  
BRANCH  19  20
HETATM   20  O   UNL     1     -11.041  14.174  66.025  1.00  0.00    -0.307 OA 
BRANCH  20  21
HETATM   21  C   UNL     1     -12.030  14.327  67.044  1.00  0.00    -0.433 C  
BRANCH  21  22
HETATM   22  C   UNL     1     -11.353  14.621  68.343  1.00  0.00    -0.312 C  
HETATM   23  C   UNL     1     -10.802  16.003  68.594  1.00  0.00    -0.301 C  
HETATM   24  C   UNL     1     -11.996  15.520  69.369  1.00  0.00    -0.358 C  
ENDBRANCH  21  22
ENDBRANCH  20  21
ENDBRANCH  19  20
ENDBRANCH  18  19
ENDBRANCH  15  18
ENDBRANCH  11  12
ENDBRANCH  10  11
ENDBRANCH   7  10
ENDBRANCH   6   7
ENDBRANCH   4   6
ENDBRANCH   2   4
TORSDOF 11
ENDMDL
MODEL      194
REMARK 921   NORMALIZED FREE ENERGY PREDICTED BY IDOCK:   -3.57 KCAL/MOL
REMARK 922        TOTAL FREE ENERGY PREDICTED BY IDOCK:   -7.20 KCAL/MOL
REMARK 923 INTER-LIGAND FREE ENERGY PREDICTED BY IDOCK:   -6.60 KCAL/MOL
REMARK 924 INTRA-LIGAND FREE ENERGY PREDICTED BY IDOCK:   -0.60 KCAL/MOL
REMARK 927      BINDING AFFINITY PREDICTED BY RF-SCORE:    0.00 PKD
ROOT
HETATM    1  C   UNL     1      -9.427   3.601  67.914  1.00  0.00    -0.224 C  
HETATM    2  C   UNL     1      -8.667   4.021  66.655  1.00  0.00    -0.116 C  
HETATM    3  C   UNL     1      -9.584   3.896  65.434  1.00  0.00    -0.185 C  
ENDROOT
BRANCH   2   4
HETATM    4  N   UNL     1      -8.174   5.404  66.711  1.00  0.00    -0.108 NA 
HETATM    5  H   UNL     1      -7.267   5.473  66.248  1.00  0.00     0.000 HD 
BRANCH   4   6
HETATM    6  C   UNL     1      -9.094   6.415  66.176  1.00  0.00    -0.131 C  
BRANCH   6   7
HETATM    7  C   UNL     1      -9.973   7.162  67.198  1.00  0.00    -0.209 C  
HETATM    8  O   UNL     1     -11.352   6.954  66.851  1.00  0.00    -0.681 OA 
HETATM    9  H   UNL     1     -11.894   7.415  67.482  1.00  0.00     0.000 HD 
BRANCH   7  10
HETATM   10  C   UNL     1      -9.680   8.665  67.217  1.00  0.00    -0.185 C  
BRANCH  10  11
HETATM   11  O   UNL     1     -10.185   9.236  65.997  1.00  0.00    -0.269 OA 
BRANCH  11  12
HETATM   12  C   UNL     1     -10.543  10.557  66.057  1.00  0.00    -0.093 A  
HETATM   13  C   UNL     1     -11.217  11.163  67.117  1.00  0.00    -0.320 A  
HETATM   14  C   UNL     1     -11.568  12.514  67.048  1.00  0.00    -0.437 A  
HETATM   15  C   UNL     1     -11.230  13.290  65.932  1.00  0.00    -0.309 A  
HETATM   16  C   UNL     1     -10.530  12.682  64.883  1.00  0.00    -0.331 A  
HETATM   17  C   UNL     1     -10.188  11.327  64.949  1.00  0.00    -0.341 A  
BRANCH  15  18
HETATM   18  C   UNL     1     -11.647  14.739  65.852  1.00  0.00    -0.286 C  
BRANCH  18  19
HETATM   19  C   UNL     1     -10.732  15.665  66.655  1.00  0.00    -0.296 C  
BRANCH  19  20
HETATM   20  O   UNL     1     -10.520  16.880  65.930  1.00  0.00    -0.347 OA 
BRANCH  20  21
HETATM   21  C   UNL     1      -9.248  17.441  66.254  1.00  0.00    -0.208 C  
BRANCH  21  22
HETATM   22  C   UNL     1      -9.416  18.894  66.558  1.00  0.00    -0.361 C  
HETATM   23  C   UNL     1     -10.614  19.630  66.011  1.00  0.00    -0.584 C  
HETATM   24  C   UNL     1     -10.502  19.373  67.488  1.00  0.00    -0.577 C  
ENDBRANCH  21  22
ENDBRANCH  20  21
ENDBRANCH  19  20
ENDBRANCH  18  19
ENDBRANCH  15  18
ENDBRANCH  11  12
ENDBRANCH  10  11
ENDBRANCH   7  10
ENDBRANCH   6   7
ENDBRANCH   4   6
ENDBRANCH   2   4
TORSDOF 11
ENDMDL
MODEL      195
REMARK 921   NORMALIZED FREE ENERGY PREDICTED BY IDOCK:   -3.56 KCAL/MOL
REMARK 922        TOTAL FREE ENERGY PREDICTED BY IDOCK:   -7.18 KCAL/MOL
REMARK 923 INTER-LIGAND FREE ENERGY PREDICTED BY IDOCK:   -6.51 KCAL/MOL
REMARK 924 INTRA-LIGAND FREE ENERGY PREDICTED BY IDOCK:   -0.67 KCAL/MOL
REMARK 927      BINDING AFFINITY PREDICTED BY RF-SCORE:    0.00 PKD
ROOT
HETATM    1  C   UNL     1      -7.774  11.637  67.833  1.00  0.00    -0.126 C  
HETATM    2  C   UNL     1      -6.551  12.164  67.081  1.00  0.00    -0.127 C  
HETATM    3  C   UNL     1      -5.347  12.218  68.028  1.00  0.00    -0.068 C  
ENDROOT
BRANCH   2   4
HETATM    4  N   UNL     1      -6.180  11.335  65.925  1.00  0.00    -0.368 NA 
HETATM    5  H   UNL     1      -5.187  11.104  65.962  1.00  0.00     0.000 HD 
BRANCH   4   6
HETATM    6  C   UNL     1      -6.978  10.114  65.754  1.00  0.00    -0.123 C  
BRANCH   6   7
HETATM    7  C   UNL     1      -7.302   9.696  64.306  1.00  0.00    -0.122 C  
HETATM    8  O   UNL     1      -6.952  10.779  63.430  1.00  0.00    -0.351 OA 
HETATM    9  H   UNL     1      -7.152  10.522  62.538  1.00  0.00     0.000 HD 
BRANCH   7  10
HETATM   10  C   UNL     1      -8.786   9.361  64.125  1.00  0.00    -0.198 C  
BRANCH  10  11
HETATM   11  O   UNL     1      -9.414  10.463  63.446  1.00  0.00    -0.273 OA 
BRANCH  11  12
HETATM   12  C   UNL     1     -10.125  11.326  64.237  1.00  0.00    -0.313 A  
HETATM   13  C   UNL     1     -10.435  12.647  63.915  1.00  0.00    -0.441 A  
HETATM   14  C   UNL     1     -11.132  13.449  64.823  1.00  0.00    -0.363 A  
HETATM   15  C   UNL     1     -11.555  12.939  66.057  1.00  0.00    -0.424 A  
HETATM   16  C   UNL     1     -11.264  11.604  66.364  1.00  0.00    -0.349 A  
HETATM   17  C   UNL     1     -10.557  10.805  65.458  1.00  0.00    -0.205 A  
BRANCH  15  18
HETATM   18  C   UNL     1     -12.275  13.825  67.046  1.00  0.00    -0.381 C  
BRANCH  18  19
HETATM   19  C   UNL     1     -11.594  13.862  68.415  1.00  0.00    -0.332 C  
BRANCH  19  20
HETATM   20  O   UNL     1     -11.794  12.615  69.086  1.00  0.00    -0.298 OA 
BRANCH  20  21
HETATM   21  C   UNL     1     -12.231  12.834  70.428  1.00  0.00    -0.293 C  
BRANCH  21  22
HETATM   22  C   UNL     1     -12.441  14.298  70.642  1.00  0.00    -0.428 C  
HETATM   23  C   UNL     1     -13.597  14.762  71.494  1.00  0.00    -0.495 C  
HETATM   24  C   UNL     1     -12.187  14.931  71.987  1.00  0.00    -0.434 C  
ENDBRANCH  21  22
ENDBRANCH  20  21
ENDBRANCH  19  20
ENDBRANCH  18  19
ENDBRANCH  15  18
ENDBRANCH  11  12
ENDBRANCH  10  11
ENDBRANCH   7  10
ENDBRANCH   6   7
ENDBRANCH   4   6
ENDBRANCH   2   4
TORSDOF 11
ENDMDL
MODEL      196
REMARK 921   NORMALIZED FREE ENERGY PREDICTED BY IDOCK:   -3.55 KCAL/MOL
REMARK 922        TOTAL FREE ENERGY PREDICTED BY IDOCK:   -7.16 KCAL/MOL
REMARK 923 INTER-LIGAND FREE ENERGY PREDICTED BY IDOCK:   -6.50 KCAL/MOL
REMARK 924 INTRA-LIGAND FREE ENERGY PREDICTED BY IDOCK:   -0.66 KCAL/MOL
REMARK 927      BINDING AFFINITY PREDICTED BY RF-SCORE:    0.00 PKD
ROOT
HETATM    1  C   UNL     1      -8.828  17.688  68.195  1.00  0.00    -0.269 C  
HETATM    2  C   UNL     1     -10.251  18.220  68.369  1.00  0.00    -0.380 C  
HETATM    3  C   UNL     1     -10.567  19.222  67.252  1.00  0.00    -0.590 C  
ENDROOT
BRANCH   2   4
HETATM    4  N   UNL     1     -11.273  17.165  68.331  1.00  0.00    -0.110 NA 
HETATM    5  H   UNL     1     -11.313  16.746  67.402  1.00  0.00     0.000 HD 
BRANCH   4   6
HETATM    6  C   UNL     1     -11.125  16.119  69.352  1.00  0.00    -0.335 C  
BRANCH   6   7
HETATM    7  C   UNL     1     -12.276  15.974  70.366  1.00  0.00    -0.117 C  
HETATM    8  O   UNL     1     -11.957  16.752  71.532  1.00  0.00    -0.458 OA 
HETATM    9  H   UNL     1     -12.666  16.662  72.157  1.00  0.00     0.000 HD 
BRANCH   7  10
HETATM   10  C   UNL     1     -12.496  14.515  70.779  1.00  0.00    -0.351 C  
BRANCH  10  11
HETATM   11  O   UNL     1     -12.370  13.694  69.605  1.00  0.00    -0.296 OA 
BRANCH  11  12
HETATM   12  C   UNL     1     -11.865  12.436  69.806  1.00  0.00    -0.317 A  
HETATM   13  C   UNL     1     -12.254  11.563  70.822  1.00  0.00    -0.463 A  
HETATM   14  C   UNL     1     -11.636  10.317  70.955  1.00  0.00    -0.454 A  
HETATM   15  C   UNL     1     -10.637   9.910  70.062  1.00  0.00    -0.335 A  
HETATM   16  C   UNL     1     -10.269  10.780  69.028  1.00  0.00    -0.229 A  
HETATM   17  C   UNL     1     -10.881  12.032  68.902  1.00  0.00    -0.252 A  
BRANCH  15  18
HETATM   18  C   UNL     1      -9.949   8.576  70.238  1.00  0.00    -0.196 C  
BRANCH  18  19
HETATM   19  C   UNL     1     -10.765   7.410  69.677  1.00  0.00    -0.235 C  
BRANCH  19  20
HETATM   20  O   UNL     1     -11.076   6.491  70.727  1.00  0.00    -0.263 OA 
BRANCH  20  21
HETATM   21  C   UNL     1     -10.298   6.777  71.890  1.00  0.00    -0.197 C  
BRANCH  21  22
HETATM   22  C   UNL     1      -9.761   5.498  72.446  1.00  0.00    -0.177 C  
HETATM   23  C   UNL     1     -10.561   4.748  73.482  1.00  0.00    -0.305 C  
HETATM   24  C   UNL     1     -10.395   4.174  72.102  1.00  0.00    -0.172 C  
ENDBRANCH  21  22
ENDBRANCH  20  21
ENDBRANCH  19  20
ENDBRANCH  18  19
ENDBRANCH  15  18
ENDBRANCH  11  12
ENDBRANCH  10  11
ENDBRANCH   7  10
ENDBRANCH   6   7
ENDBRANCH   4   6
ENDBRANCH   2   4
TORSDOF 11
ENDMDL
MODEL      197
REMARK 921   NORMALIZED FREE ENERGY PREDICTED BY IDOCK:   -3.50 KCAL/MOL
REMARK 922        TOTAL FREE ENERGY PREDICTED BY IDOCK:   -7.09 KCAL/MOL
REMARK 923 INTER-LIGAND FREE ENERGY PREDICTED BY IDOCK:   -6.14 KCAL/MOL
REMARK 924 INTRA-LIGAND FREE ENERGY PREDICTED BY IDOCK:   -0.95 KCAL/MOL
REMARK 927      BINDING AFFINITY PREDICTED BY RF-SCORE:    0.00 PKD
ROOT
HETATM    1  C   UNL     1     -12.905  13.983  65.430  1.00  0.00    -0.442 C  
HETATM    2  C   UNL     1     -11.639  14.508  66.108  1.00  0.00    -0.365 C  
HETATM    3  C   UNL     1     -11.699  14.212  67.611  1.00  0.00    -0.421 C  
ENDROOT
BRANCH   2   4
HETATM    4  N   UNL     1     -10.407  13.909  65.578  1.00  0.00    -0.319 NA 
HETATM    5  H   UNL     1     -10.027  13.237  66.245  1.00  0.00     0.000 HD 
BRANCH   4   6
HETATM    6  C   UNL     1     -10.536  13.290  64.252  1.00  0.00    -0.384 C  
BRANCH   6   7
HETATM    7  C   UNL     1     -10.058  11.831  64.120  1.00  0.00    -0.310 C  
HETATM    8  O   UNL     1     -10.214  11.423  62.751  1.00  0.00    -0.614 OA 
HETATM    9  H   UNL     1      -9.919  10.524  62.669  1.00  0.00     0.000 HD 
BRANCH   7  10
HETATM   10  C   UNL     1     -10.851  10.882  65.023  1.00  0.00    -0.072 C  
BRANCH  10  11
HETATM   11  O   UNL     1     -10.445  11.115  66.383  1.00  0.00    -0.244 OA 
BRANCH  11  12
HETATM   12  C   UNL     1     -10.474  10.024  67.211  1.00  0.00    -0.254 A  
HETATM   13  C   UNL     1     -10.535  10.068  68.603  1.00  0.00    -0.228 A  
HETATM   14  C   UNL     1     -10.515   8.886  69.348  1.00  0.00    -0.228 A  
HETATM   15  C   UNL     1     -10.460   7.638  68.716  1.00  0.00    -0.208 A  
HETATM   16  C   UNL     1     -10.426   7.598  67.316  1.00  0.00    -0.396 A  
HETATM   17  C   UNL     1     -10.436   8.783  66.572  1.00  0.00    -0.152 A  
BRANCH  15  18
HETATM   18  C   UNL     1     -10.402   6.367  69.531  1.00  0.00    -0.252 C  
BRANCH  18  19
HETATM   19  C   UNL     1      -9.037   6.144  70.185  1.00  0.00    -0.152 C  
BRANCH  19  20
HETATM   20  O   UNL     1      -9.081   6.572  71.548  1.00  0.00    -0.144 OA 
BRANCH  20  21
HETATM   21  C   UNL     1      -8.962   5.454  72.428  1.00  0.00    -0.135 C  
BRANCH  21  22
HETATM   22  C   UNL     1     -10.303   4.819  72.598  1.00  0.00    -0.253 C  
HETATM   23  C   UNL     1     -10.396   3.326  72.795  1.00  0.00    -0.237 C  
HETATM   24  C   UNL     1     -10.734   4.254  73.928  1.00  0.00    -0.335 C  
ENDBRANCH  21  22
ENDBRANCH  20  21
ENDBRANCH  19  20
ENDBRANCH  18  19
ENDBRANCH  15  18
ENDBRANCH  11  12
ENDBRANCH  10  11
ENDBRANCH   7  10
ENDBRANCH   6   7
ENDBRANCH   4   6
ENDBRANCH   2   4
TORSDOF 11
ENDMDL
MODEL      198
REMARK 921   NORMALIZED FREE ENERGY PREDICTED BY IDOCK:   -3.49 KCAL/MOL
REMARK 922        TOTAL FREE ENERGY PREDICTED BY IDOCK:   -7.07 KCAL/MOL
REMARK 923 INTER-LIGAND FREE ENERGY PREDICTED BY IDOCK:   -6.35 KCAL/MOL
REMARK 924 INTRA-LIGAND FREE ENERGY PREDICTED BY IDOCK:   -0.72 KCAL/MOL
REMARK 927      BINDING AFFINITY PREDICTED BY RF-SCORE:    0.00 PKD
ROOT
HETATM    1  C   UNL     1      -8.443   5.022  64.638  1.00  0.00    -0.145 C  
HETATM    2  C   UNL     1      -8.975   3.689  65.167  1.00  0.00    -0.133 C  
HETATM    3  C   UNL     1      -7.826   2.884  65.784  1.00  0.00    -0.081 C  
ENDROOT
BRANCH   2   4
HETATM    4  N   UNL     1     -10.017   3.847  66.190  1.00  0.00    -0.406 NA 
HETATM    5  H   UNL     1     -10.294   2.935  66.554  1.00  0.00     0.000 HD 
BRANCH   4   6
HETATM    6  C   UNL     1      -9.672   4.750  67.296  1.00  0.00    -0.182 C  
BRANCH   6   7
HETATM    7  C   UNL     1     -10.634   5.926  67.557  1.00  0.00    -0.273 C  
HETATM    8  O   UNL     1     -11.490   6.076  66.412  1.00  0.00    -0.668 OA 
HETATM    9  H   UNL     1     -12.083   6.801  66.573  1.00  0.00     0.000 HD 
BRANCH   7  10
HETATM   10  C   UNL     1      -9.883   7.238  67.800  1.00  0.00    -0.149 C  
BRANCH  10  11
HETATM   11  O   UNL     1      -9.520   7.790  66.522  1.00  0.00    -0.189 OA 
BRANCH  11  12
HETATM   12  C   UNL     1      -9.921   9.080  66.292  1.00  0.00    -0.281 A  
HETATM   13  C   UNL     1      -9.674   9.806  65.127  1.00  0.00    -0.338 A  
HETATM   14  C   UNL     1     -10.095  11.134  65.022  1.00  0.00    -0.338 A  
HETATM   15  C   UNL     1     -10.792  11.753  66.067  1.00  0.00    -0.343 A  
HETATM   16  C   UNL     1     -11.061  11.011  67.224  1.00  0.00    -0.359 A  
HETATM   17  C   UNL     1     -10.629   9.684  67.332  1.00  0.00    -0.333 A  
BRANCH  15  18
HETATM   18  C   UNL     1     -11.210  13.200  65.957  1.00  0.00    -0.316 C  
BRANCH  18  19
HETATM   19  C   UNL     1     -11.845  13.733  67.242  1.00  0.00    -0.401 C  
BRANCH  19  20
HETATM   20  O   UNL     1     -11.689  15.153  67.304  1.00  0.00    -0.295 OA 
BRANCH  20  21
HETATM   21  C   UNL     1     -10.364  15.493  67.713  1.00  0.00    -0.263 C  
BRANCH  21  22
HETATM   22  C   UNL     1     -10.185  16.973  67.614  1.00  0.00    -0.317 C  
HETATM   23  C   UNL     1      -8.884  17.593  68.059  1.00  0.00    -0.257 C  
HETATM   24  C   UNL     1      -9.245  17.577  66.600  1.00  0.00    -0.277 C  
ENDBRANCH  21  22
ENDBRANCH  20  21
ENDBRANCH  19  20
ENDBRANCH  18  19
ENDBRANCH  15  18
ENDBRANCH  11  12
ENDBRANCH  10  11
ENDBRANCH   7  10
ENDBRANCH   6   7
ENDBRANCH   4   6
ENDBRANCH   2   4
TORSDOF 11
ENDMDL
MODEL      199
REMARK 921   NORMALIZED FREE ENERGY PREDICTED BY IDOCK:   -3.48 KCAL/MOL
REMARK 922        TOTAL FREE ENERGY PREDICTED BY IDOCK:   -7.05 KCAL/MOL
REMARK 923 INTER-LIGAND FREE ENERGY PREDICTED BY IDOCK:   -5.72 KCAL/MOL
REMARK 924 INTRA-LIGAND FREE ENERGY PREDICTED BY IDOCK:   -1.33 KCAL/MOL
REMARK 927      BINDING AFFINITY PREDICTED BY RF-SCORE:    0.00 PKD
ROOT
HETATM    1  C   UNL     1      -8.815   9.518  64.181  1.00  0.00    -0.243 C  
HETATM    2  C   UNL     1      -8.026   8.294  64.647  1.00  0.00    -0.145 C  
HETATM    3  C   UNL     1      -8.317   8.027  66.128  1.00  0.00    -0.125 C  
ENDROOT
BRANCH   2   4
HETATM    4  N   UNL     1      -8.351   7.075  63.895  1.00  0.00    -0.347 NA 
HETATM    5  H   UNL     1      -7.967   7.130  62.951  1.00  0.00     0.000 HD 
BRANCH   4   6
HETATM    6  C   UNL     1      -7.938   5.819  64.536  1.00  0.00    -0.126 C  
BRANCH   6   7
HETATM    7  C   UNL     1      -8.852   4.598  64.319  1.00  0.00    -0.146 C  
HETATM    8  O   UNL     1      -9.600   4.798  63.109  1.00  0.00    -0.354 OA 
HETATM    9  H   UNL     1     -10.164   4.045  62.975  1.00  0.00     0.000 HD 
BRANCH   7  10
HETATM   10  C   UNL     1      -9.824   4.394  65.485  1.00  0.00    -0.216 C  
BRANCH  10  11
HETATM   11  O   UNL     1      -9.086   4.530  66.712  1.00  0.00    -0.115 OA 
BRANCH  11  12
HETATM   12  C   UNL     1      -9.794   5.000  67.787  1.00  0.00    -0.154 A  
HETATM   13  C   UNL     1     -10.770   5.995  67.738  1.00  0.00    -0.369 A  
HETATM   14  C   UNL     1     -11.397   6.425  68.911  1.00  0.00    -0.292 A  
HETATM   15  C   UNL     1     -11.081   5.852  70.148  1.00  0.00    -0.395 A  
HETATM   16  C   UNL     1     -10.119   4.835  70.188  1.00  0.00    -0.310 A  
HETATM   17  C   UNL     1      -9.484   4.412  69.014  1.00  0.00    -0.237 A  
BRANCH  15  18
HETATM   18  C   UNL     1     -11.738   6.350  71.414  1.00  0.00    -0.364 C  
BRANCH  18  19
HETATM   19  C   UNL     1     -12.143   7.823  71.332  1.00  0.00    -0.311 C  
BRANCH  19  20
HETATM   20  O   UNL     1     -11.509   8.555  72.385  1.00  0.00    -0.369 OA 
BRANCH  20  21
HETATM   21  C   UNL     1     -10.541   7.743  73.048  1.00  0.00    -0.379 C  
BRANCH  21  22
HETATM   22  C   UNL     1      -9.181   8.317  72.820  1.00  0.00    -0.336 C  
HETATM   23  C   UNL     1      -8.152   7.507  72.071  1.00  0.00    -0.109 C  
HETATM   24  C   UNL     1      -8.737   8.741  71.442  1.00  0.00    -0.278 C  
ENDBRANCH  21  22
ENDBRANCH  20  21
ENDBRANCH  19  20
ENDBRANCH  18  19
ENDBRANCH  15  18
ENDBRANCH  11  12
ENDBRANCH  10  11
ENDBRANCH   7  10
ENDBRANCH   6   7
ENDBRANCH   4   6
ENDBRANCH   2   4
TORSDOF 11
ENDMDL
MODEL      200
REMARK 921   NORMALIZED FREE ENERGY PREDICTED BY IDOCK:   -3.47 KCAL/MOL
REMARK 922        TOTAL FREE ENERGY PREDICTED BY IDOCK:   -7.04 KCAL/MOL
REMARK 923 INTER-LIGAND FREE ENERGY PREDICTED BY IDOCK:   -5.39 KCAL/MOL
REMARK 924 INTRA-LIGAND FREE ENERGY PREDICTED BY IDOCK:   -1.65 KCAL/MOL
REMARK 927      BINDING AFFINITY PREDICTED BY RF-SCORE:    0.00 PKD
ROOT
HETATM    1  C   UNL     1      -7.742   3.431  69.352  1.00  0.00    -0.051 C  
HETATM    2  C   UNL     1      -7.309   4.741  68.695  1.00  0.00    -0.065 C  
HETATM    3  C   UNL     1      -7.093   4.518  67.194  1.00  0.00    -0.068 C  
ENDROOT
BRANCH   2   4
HETATM    4  N   UNL     1      -8.291   5.822  68.854  1.00  0.00    -0.101 NA 
HETATM    5  H   UNL     1      -7.815   6.716  68.973  1.00  0.00     0.000 HD 
BRANCH   4   6
HETATM    6  C   UNL     1      -9.290   5.919  67.781  1.00  0.00    -0.106 C  
BRANCH   6   7
HETATM    7  C   UNL     1     -10.718   6.319  68.199  1.00  0.00    -0.293 C  
HETATM    8  O   UNL     1     -11.514   6.471  67.012  1.00  0.00    -0.752 OA 
HETATM    9  H   UNL     1     -12.394   6.718  67.269  1.00  0.00     0.000 HD 
BRANCH   7  10
HETATM   10  C   UNL     1     -10.739   7.630  68.990  1.00  0.00    -0.119 C  
BRANCH  10  11
HETATM   11  O   UNL     1      -9.786   8.528  68.394  1.00  0.00    -0.163 OA 
BRANCH  11  12
HETATM   12  C   UNL     1     -10.313   9.581  67.695  1.00  0.00    -0.244 A  
HETATM   13  C   UNL     1     -10.015   9.900  66.370  1.00  0.00    -0.309 A  
HETATM   14  C   UNL     1     -10.583  11.029  65.773  1.00  0.00    -0.260 A  
HETATM   15  C   UNL     1     -11.477  11.844  66.478  1.00  0.00    -0.381 A  
HETATM   16  C   UNL     1     -11.793  11.504  67.799  1.00  0.00    -0.228 A  
HETATM   17  C   UNL     1     -11.216  10.379  68.400  1.00  0.00    -0.318 A  
BRANCH  15  18
HETATM   18  C   UNL     1     -12.056  13.082  65.834  1.00  0.00    -0.503 C  
BRANCH  18  19
HETATM   19  C   UNL     1     -12.294  14.214  66.834  1.00  0.00    -0.258 C  
BRANCH  19  20
HETATM   20  O   UNL     1     -11.225  15.161  66.753  1.00  0.00    -0.331 OA 
BRANCH  20  21
HETATM   21  C   UNL     1     -10.665  15.396  68.045  1.00  0.00    -0.279 C  
BRANCH  21  22
HETATM   22  C   UNL     1      -9.200  15.108  68.004  1.00  0.00    -0.185 C  
HETATM   23  C   UNL     1      -8.729  13.677  67.920  1.00  0.00    -0.184 C  
HETATM   24  C   UNL     1      -8.544  14.597  66.745  1.00  0.00    -0.195 C  
ENDBRANCH  21  22
ENDBRANCH  20  21
ENDBRANCH  19  20
ENDBRANCH  18  19
ENDBRANCH  15  18
ENDBRANCH  11  12
ENDBRANCH  10  11
ENDBRANCH   7  10
ENDBRANCH   6   7
ENDBRANCH   4   6
ENDBRANCH   2   4
TORSDOF 11
ENDMDL
MODEL      201
REMARK 921   NORMALIZED FREE ENERGY PREDICTED BY IDOCK:   -3.47 KCAL/MOL
REMARK 922        TOTAL FREE ENERGY PREDICTED BY IDOCK:   -7.03 KCAL/MOL
REMARK 923 INTER-LIGAND FREE ENERGY PREDICTED BY IDOCK:   -6.00 KCAL/MOL
REMARK 924 INTRA-LIGAND FREE ENERGY PREDICTED BY IDOCK:   -1.03 KCAL/MOL
REMARK 927      BINDING AFFINITY PREDICTED BY RF-SCORE:    0.00 PKD
ROOT
HETATM    1  C   UNL     1     -11.299  15.962  64.536  1.00  0.00    -0.316 C  
HETATM    2  C   UNL     1     -10.279  15.559  65.601  1.00  0.00    -0.376 C  
HETATM    3  C   UNL     1     -10.882  15.764  66.995  1.00  0.00    -0.273 C  
ENDROOT
BRANCH   2   4
HETATM    4  N   UNL     1      -9.853  14.157  65.495  1.00  0.00    -0.522 NA 
HETATM    5  H   UNL     1      -9.871  13.713  66.413  1.00  0.00     0.000 HD 
BRANCH   4   6
HETATM    6  C   UNL     1     -10.606  13.350  64.527  1.00  0.00    -0.425 C  
BRANCH   6   7
HETATM    7  C   UNL     1     -11.163  12.005  65.032  1.00  0.00    -0.320 C  
HETATM    8  O   UNL     1     -12.559  12.173  65.329  1.00  0.00    -0.494 OA 
HETATM    9  H   UNL     1     -12.903  11.344  65.641  1.00  0.00     0.000 HD 
BRANCH   7  10
HETATM   10  C   UNL     1     -10.436  11.517  66.288  1.00  0.00    -0.251 C  
BRANCH  10  11
HETATM   11  O   UNL     1     -11.424  11.205  67.285  1.00  0.00    -0.473 OA 
BRANCH  11  12
HETATM   12  C   UNL     1     -11.152  10.123  68.080  1.00  0.00    -0.240 A  
HETATM   13  C   UNL     1     -11.251  10.097  69.471  1.00  0.00    -0.288 A  
HETATM   14  C   UNL     1     -10.904   8.944  70.180  1.00  0.00    -0.251 A  
HETATM   15  C   UNL     1     -10.478   7.789  69.514  1.00  0.00    -0.225 A  
HETATM   16  C   UNL     1     -10.406   7.812  68.116  1.00  0.00    -0.248 A  
HETATM   17  C   UNL     1     -10.744   8.970  67.406  1.00  0.00    -0.231 A  
BRANCH  15  18
HETATM   18  C   UNL     1     -10.070   6.561  70.293  1.00  0.00    -0.208 C  
BRANCH  18  19
HETATM   19  C   UNL     1     -10.001   5.304  69.425  1.00  0.00    -0.218 C  
BRANCH  19  20
HETATM   20  O   UNL     1      -8.718   4.690  69.568  1.00  0.00    -0.080 OA 
BRANCH  20  21
HETATM   21  C   UNL     1      -8.251   4.206  68.308  1.00  0.00    -0.088 C  
BRANCH  21  22
HETATM   22  C   UNL     1      -9.327   4.386  67.286  1.00  0.00    -0.175 C  
HETATM   23  C   UNL     1      -8.993   5.040  65.968  1.00  0.00    -0.136 C  
HETATM   24  C   UNL     1      -9.332   3.576  66.013  1.00  0.00    -0.163 C  
ENDBRANCH  21  22
ENDBRANCH  20  21
ENDBRANCH  19  20
ENDBRANCH  18  19
ENDBRANCH  15  18
ENDBRANCH  11  12
ENDBRANCH  10  11
ENDBRANCH   7  10
ENDBRANCH   6   7
ENDBRANCH   4   6
ENDBRANCH   2   4
TORSDOF 11
ENDMDL
MODEL      202
REMARK 921   NORMALIZED FREE ENERGY PREDICTED BY IDOCK:   -3.46 KCAL/MOL
REMARK 922        TOTAL FREE ENERGY PREDICTED BY IDOCK:   -7.02 KCAL/MOL
REMARK 923 INTER-LIGAND FREE ENERGY PREDICTED BY IDOCK:   -5.56 KCAL/MOL
REMARK 924 INTRA-LIGAND FREE ENERGY PREDICTED BY IDOCK:   -1.46 KCAL/MOL
REMARK 927      BINDING AFFINITY PREDICTED BY RF-SCORE:    0.00 PKD
ROOT
HETATM    1  C   UNL     1      -9.886  15.628  69.001  1.00  0.00    -0.236 C  
HETATM    2  C   UNL     1     -11.022  16.155  68.123  1.00  0.00    -0.341 C  
HETATM    3  C   UNL     1     -10.578  17.448  67.429  1.00  0.00    -0.308 C  
ENDROOT
BRANCH   2   4
HETATM    4  N   UNL     1     -11.440  15.204  67.084  1.00  0.00    -0.299 NA 
HETATM    5  H   UNL     1     -12.454  15.221  66.980  1.00  0.00     0.000 HD 
BRANCH   4   6
HETATM    6  C   UNL     1     -10.794  15.386  65.777  1.00  0.00    -0.343 C  
BRANCH   6   7
HETATM    7  C   UNL     1     -10.951  14.238  64.761  1.00  0.00    -0.398 C  
HETATM    8  O   UNL     1     -12.352  13.974  64.585  1.00  0.00    -0.492 OA 
HETATM    9  H   UNL     1     -12.449  13.266  63.959  1.00  0.00     0.000 HD 
BRANCH   7  10
HETATM   10  C   UNL     1     -10.252  12.958  65.229  1.00  0.00    -0.278 C  
BRANCH  10  11
HETATM   11  O   UNL     1      -9.622  13.229  66.493  1.00  0.00    -0.258 OA 
BRANCH  11  12
HETATM   12  C   UNL     1      -9.460  12.151  67.324  1.00  0.00    -0.184 A  
HETATM   13  C   UNL     1     -10.123  11.960  68.536  1.00  0.00    -0.211 A  
HETATM   14  C   UNL     1      -9.844  10.839  69.323  1.00  0.00    -0.160 A  
HETATM   15  C   UNL     1      -8.918   9.877  68.902  1.00  0.00    -0.153 A  
HETATM   16  C   UNL     1      -8.275  10.060  67.671  1.00  0.00    -0.114 A  
HETATM   17  C   UNL     1      -8.548  11.188  66.889  1.00  0.00    -0.148 A  
BRANCH  15  18
HETATM   18  C   UNL     1      -8.597   8.688  69.777  1.00  0.00    -0.131 C  
BRANCH  18  19
HETATM   19  C   UNL     1      -9.835   8.100  70.457  1.00  0.00    -0.186 C  
BRANCH  19  20
HETATM   20  O   UNL     1     -10.742   7.609  69.466  1.00  0.00    -0.238 OA 
BRANCH  20  21
HETATM   21  C   UNL     1     -10.434   6.255  69.134  1.00  0.00    -0.239 C  
BRANCH  21  22
HETATM   22  C   UNL     1     -10.693   6.037  67.679  1.00  0.00    -0.377 C  
HETATM   23  C   UNL     1     -10.446   7.165  66.707  1.00  0.00    -0.300 C  
HETATM   24  C   UNL     1      -9.556   5.953  66.691  1.00  0.00    -0.174 C  
ENDBRANCH  21  22
ENDBRANCH  20  21
ENDBRANCH  19  20
ENDBRANCH  18  19
ENDBRANCH  15  18
ENDBRANCH  11  12
ENDBRANCH  10  11
ENDBRANCH   7  10
ENDBRANCH   6   7
ENDBRANCH   4   6
ENDBRANCH   2   4
TORSDOF 11
ENDMDL
MODEL      203
REMARK 921   NORMALIZED FREE ENERGY PREDICTED BY IDOCK:   -3.46 KCAL/MOL
REMARK 922        TOTAL FREE ENERGY PREDICTED BY IDOCK:   -7.02 KCAL/MOL
REMARK 923 INTER-LIGAND FREE ENERGY PREDICTED BY IDOCK:   -4.83 KCAL/MOL
REMARK 924 INTRA-LIGAND FREE ENERGY PREDICTED BY IDOCK:   -2.19 KCAL/MOL
REMARK 927      BINDING AFFINITY PREDICTED BY RF-SCORE:    0.00 PKD
ROOT
HETATM    1  C   UNL     1      -7.791  11.026  66.689  1.00  0.00    -0.153 C  
HETATM    2  C   UNL     1      -8.999  11.914  66.389  1.00  0.00    -0.180 C  
HETATM    3  C   UNL     1     -10.119  11.068  65.773  1.00  0.00    -0.305 C  
ENDROOT
BRANCH   2   4
HETATM    4  N   UNL     1      -9.539  12.580  67.582  1.00  0.00    -0.185 NA 
HETATM    5  H   UNL     1      -8.931  13.351  67.860  1.00  0.00     0.000 HD 
BRANCH   4   6
HETATM    6  C   UNL     1     -10.926  13.047  67.461  1.00  0.00    -0.259 C  
BRANCH   6   7
HETATM    7  C   UNL     1     -11.852  12.789  68.665  1.00  0.00    -0.304 C  
HETATM    8  O   UNL     1     -11.298  13.449  69.815  1.00  0.00    -0.450 OA 
HETATM    9  H   UNL     1     -11.868  13.290  70.558  1.00  0.00     0.000 HD 
BRANCH   7  10
HETATM   10  C   UNL     1     -12.000  11.294  68.966  1.00  0.00    -0.325 C  
BRANCH  10  11
HETATM   11  O   UNL     1     -11.011  10.935  69.947  1.00  0.00    -0.257 OA 
BRANCH  11  12
HETATM   12  C   UNL     1     -10.254   9.831  69.657  1.00  0.00    -0.233 A  
HETATM   13  C   UNL     1      -9.044   9.499  70.265  1.00  0.00    -0.296 A  
HETATM   14  C   UNL     1      -8.336   8.366  69.854  1.00  0.00    -0.124 A  
HETATM   15  C   UNL     1      -8.836   7.530  68.849  1.00  0.00    -0.135 A  
HETATM   16  C   UNL     1     -10.065   7.853  68.260  1.00  0.00    -0.225 A  
HETATM   17  C   UNL     1     -10.767   8.994  68.664  1.00  0.00    -0.137 A  
BRANCH  15  18
HETATM   18  C   UNL     1      -8.045   6.329  68.388  1.00  0.00    -0.112 C  
BRANCH  18  19
HETATM   19  C   UNL     1      -8.138   5.149  69.357  1.00  0.00    -0.087 C  
BRANCH  19  20
HETATM   20  O   UNL     1      -9.493   4.698  69.437  1.00  0.00    -0.137 OA 
BRANCH  20  21
HETATM   21  C   UNL     1      -9.862   4.462  70.796  1.00  0.00    -0.203 C  
BRANCH  21  22
HETATM   22  C   UNL     1     -10.973   5.389  71.169  1.00  0.00    -0.126 C  
HETATM   23  C   UNL     1     -11.372   5.521  72.619  1.00  0.00    -0.346 C  
HETATM   24  C   UNL     1     -10.699   6.669  71.918  1.00  0.00    -0.251 C  
ENDBRANCH  21  22
ENDBRANCH  20  21
ENDBRANCH  19  20
ENDBRANCH  18  19
ENDBRANCH  15  18
ENDBRANCH  11  12
ENDBRANCH  10  11
ENDBRANCH   7  10
ENDBRANCH   6   7
ENDBRANCH   4   6
ENDBRANCH   2   4
TORSDOF 11
ENDMDL
MODEL      204
REMARK 921   NORMALIZED FREE ENERGY PREDICTED BY IDOCK:   -3.45 KCAL/MOL
REMARK 922        TOTAL FREE ENERGY PREDICTED BY IDOCK:   -7.00 KCAL/MOL
REMARK 923 INTER-LIGAND FREE ENERGY PREDICTED BY IDOCK:   -6.24 KCAL/MOL
REMARK 924 INTRA-LIGAND FREE ENERGY PREDICTED BY IDOCK:   -0.77 KCAL/MOL
REMARK 927      BINDING AFFINITY PREDICTED BY RF-SCORE:    0.00 PKD
ROOT
HETATM    1  C   UNL     1     -11.206   8.481  70.480  1.00  0.00    -0.262 C  
HETATM    2  C   UNL     1     -10.111   9.247  69.737  1.00  0.00    -0.204 C  
HETATM    3  C   UNL     1      -8.880   9.389  70.638  1.00  0.00    -0.275 C  
ENDROOT
BRANCH   2   4
HETATM    4  N   UNL     1      -9.688   8.590  68.493  1.00  0.00    -0.160 NA 
HETATM    5  H   UNL     1      -9.608   7.583  68.636  1.00  0.00     0.000 HD 
BRANCH   4   6
HETATM    6  C   UNL     1     -10.531   8.869  67.323  1.00  0.00    -0.277 C  
BRANCH   6   7
HETATM    7  C   UNL     1     -10.093  10.035  66.416  1.00  0.00    -0.241 C  
HETATM    8  O   UNL     1      -8.706  10.313  66.669  1.00  0.00    -0.126 OA 
HETATM    9  H   UNL     1      -8.436  11.032  66.110  1.00  0.00     0.000 HD 
BRANCH   7  10
HETATM   10  C   UNL     1     -10.915  11.302  66.673  1.00  0.00    -0.268 C  
BRANCH  10  11
HETATM   11  O   UNL     1     -10.807  12.149  65.516  1.00  0.00    -0.266 OA 
BRANCH  11  12
HETATM   12  C   UNL     1     -10.629  13.484  65.765  1.00  0.00    -0.283 A  
HETATM   13  C   UNL     1     -10.120  14.023  66.946  1.00  0.00    -0.259 A  
HETATM   14  C   UNL     1     -10.025  15.409  67.104  1.00  0.00    -0.234 A  
HETATM   15  C   UNL     1     -10.412  16.279  66.077  1.00  0.00    -0.342 A  
HETATM   16  C   UNL     1     -10.898  15.731  64.884  1.00  0.00    -0.433 A  
HETATM   17  C   UNL     1     -11.002  14.344  64.731  1.00  0.00    -0.409 A  
BRANCH  15  18
HETATM   18  C   UNL     1     -10.340  17.775  66.273  1.00  0.00    -0.358 C  
BRANCH  18  19
HETATM   19  C   UNL     1     -10.091  18.172  67.729  1.00  0.00    -0.362 C  
BRANCH  19  20
HETATM   20  O   UNL     1      -9.560  19.498  67.782  1.00  0.00    -0.319 OA 
BRANCH  20  21
HETATM   21  C   UNL     1      -8.217  19.480  68.268  1.00  0.00    -0.338 C  
BRANCH  21  22
HETATM   22  C   UNL     1      -7.339  20.214  67.307  1.00  0.00    -0.312 C  
HETATM   23  C   UNL     1      -6.163  19.500  66.686  1.00  0.00    -0.173 C  
HETATM   24  C   UNL     1      -7.345  19.877  65.837  1.00  0.00    -0.335 C  
ENDBRANCH  21  22
ENDBRANCH  20  21
ENDBRANCH  19  20
ENDBRANCH  18  19
ENDBRANCH  15  18
ENDBRANCH  11  12
ENDBRANCH  10  11
ENDBRANCH   7  10
ENDBRANCH   6   7
ENDBRANCH   4   6
ENDBRANCH   2   4
TORSDOF 11
ENDMDL
MODEL      205
REMARK 921   NORMALIZED FREE ENERGY PREDICTED BY IDOCK:   -3.45 KCAL/MOL
REMARK 922        TOTAL FREE ENERGY PREDICTED BY IDOCK:   -7.00 KCAL/MOL
REMARK 923 INTER-LIGAND FREE ENERGY PREDICTED BY IDOCK:   -5.86 KCAL/MOL
REMARK 924 INTRA-LIGAND FREE ENERGY PREDICTED BY IDOCK:   -1.14 KCAL/MOL
REMARK 927      BINDING AFFINITY PREDICTED BY RF-SCORE:    0.00 PKD
ROOT
HETATM    1  C   UNL     1     -12.176  14.711  69.879  1.00  0.00    -0.365 C  
HETATM    2  C   UNL     1     -12.249  14.098  71.278  1.00  0.00    -0.339 C  
HETATM    3  C   UNL     1     -13.552  14.526  71.960  1.00  0.00    -0.509 C  
ENDROOT
BRANCH   2   4
HETATM    4  N   UNL     1     -12.203  12.630  71.271  1.00  0.00    -0.252 NA 
HETATM    5  H   UNL     1     -11.280  12.305  71.560  1.00  0.00     0.000 HD 
BRANCH   4   6
HETATM    6  C   UNL     1     -13.245  11.970  72.068  1.00  0.00    -0.375 C  
BRANCH   6   7
HETATM    7  C   UNL     1     -13.514  10.484  71.763  1.00  0.00    -0.246 C  
HETATM    8  O   UNL     1     -13.179   9.712  72.928  1.00  0.00    -0.445 OA 
HETATM    9  H   UNL     1     -13.345   8.796  72.740  1.00  0.00     0.000 HD 
BRANCH   7  10
HETATM   10  C   UNL     1     -12.689   9.984  70.573  1.00  0.00    -0.130 C  
BRANCH  10  11
HETATM   11  O   UNL     1     -11.335   9.786  71.019  1.00  0.00    -0.329 OA 
BRANCH  11  12
HETATM   12  C   UNL     1     -10.385   9.726  70.034  1.00  0.00    -0.263 A  
HETATM   13  C   UNL     1     -10.414  10.444  68.839  1.00  0.00    -0.232 A  
HETATM   14  C   UNL     1      -9.406  10.268  67.886  1.00  0.00    -0.147 A  
HETATM   15  C   UNL     1      -8.339   9.392  68.121  1.00  0.00    -0.119 A  
HETATM   16  C   UNL     1      -8.301   8.694  69.334  1.00  0.00    -0.114 A  
HETATM   17  C   UNL     1      -9.316   8.863  70.283  1.00  0.00    -0.208 A  
BRANCH  15  18
HETATM   18  C   UNL     1      -7.275   9.182  67.069  1.00  0.00    -0.090 C  
BRANCH  18  19
HETATM   19  C   UNL     1      -7.855   9.016  65.664  1.00  0.00    -0.102 C  
BRANCH  19  20
HETATM   20  O   UNL     1      -7.898  10.285  65.007  1.00  0.00    -0.139 OA 
BRANCH  20  21
HETATM   21  C   UNL     1      -8.839  10.262  63.934  1.00  0.00    -0.220 C  
BRANCH  21  22
HETATM   22  C   UNL     1     -10.150  10.789  64.421  1.00  0.00    -0.419 C  
HETATM   23  C   UNL     1     -10.298  12.265  64.694  1.00  0.00    -0.330 C  
HETATM   24  C   UNL     1     -11.023  11.642  63.534  1.00  0.00    -0.485 C  
ENDBRANCH  21  22
ENDBRANCH  20  21
ENDBRANCH  19  20
ENDBRANCH  18  19
ENDBRANCH  15  18
ENDBRANCH  11  12
ENDBRANCH  10  11
ENDBRANCH   7  10
ENDBRANCH   6   7
ENDBRANCH   4   6
ENDBRANCH   2   4
TORSDOF 11
ENDMDL
MODEL      206
REMARK 921   NORMALIZED FREE ENERGY PREDICTED BY IDOCK:   -3.44 KCAL/MOL
REMARK 922        TOTAL FREE ENERGY PREDICTED BY IDOCK:   -6.98 KCAL/MOL
REMARK 923 INTER-LIGAND FREE ENERGY PREDICTED BY IDOCK:   -5.85 KCAL/MOL
REMARK 924 INTRA-LIGAND FREE ENERGY PREDICTED BY IDOCK:   -1.13 KCAL/MOL
REMARK 927      BINDING AFFINITY PREDICTED BY RF-SCORE:    0.00 PKD
ROOT
HETATM    1  C   UNL     1     -12.111   9.536  71.552  1.00  0.00    -0.468 C  
HETATM    2  C   UNL     1     -12.304   8.146  72.158  1.00  0.00    -0.338 C  
HETATM    3  C   UNL     1     -12.636   7.142  71.049  1.00  0.00    -0.335 C  
ENDROOT
BRANCH   2   4
HETATM    4  N   UNL     1     -11.117   7.655  72.872  1.00  0.00    -0.394 NA 
HETATM    5  H   UNL     1     -11.029   6.646  72.755  1.00  0.00     0.000 HD 
BRANCH   4   6
HETATM    6  C   UNL     1      -9.857   8.319  72.515  1.00  0.00    -0.298 C  
BRANCH   6   7
HETATM    7  C   UNL     1      -8.956   7.593  71.497  1.00  0.00    -0.131 C  
HETATM    8  O   UNL     1      -8.486   6.373  72.094  1.00  0.00    -0.112 OA 
HETATM    9  H   UNL     1      -7.930   5.925  71.467  1.00  0.00     0.000 HD 
BRANCH   7  10
HETATM   10  C   UNL     1      -7.754   8.447  71.083  1.00  0.00    -0.100 C  
BRANCH  10  11
HETATM   11  O   UNL     1      -8.233   9.762  70.750  1.00  0.00    -0.251 OA 
BRANCH  11  12
HETATM   12  C   UNL     1      -8.517   9.977  69.427  1.00  0.00    -0.170 A  
HETATM   13  C   UNL     1      -9.730  10.455  68.930  1.00  0.00    -0.203 A  
HETATM   14  C   UNL     1      -9.921  10.594  67.552  1.00  0.00    -0.201 A  
HETATM   15  C   UNL     1      -8.897  10.284  66.649  1.00  0.00    -0.148 A  
HETATM   16  C   UNL     1      -7.673   9.830  67.155  1.00  0.00    -0.095 A  
HETATM   17  C   UNL     1      -7.487   9.681  68.534  1.00  0.00    -0.079 A  
BRANCH  15  18
HETATM   18  C   UNL     1      -9.127  10.403  65.161  1.00  0.00    -0.232 C  
BRANCH  18  19
HETATM   19  C   UNL     1     -10.529  10.907  64.815  1.00  0.00    -0.303 C  
BRANCH  19  20
HETATM   20  O   UNL     1     -10.462  11.782  63.686  1.00  0.00    -0.352 OA 
BRANCH  20  21
HETATM   21  C   UNL     1     -11.360  12.880  63.849  1.00  0.00    -0.436 C  
BRANCH  21  22
HETATM   22  C   UNL     1     -11.692  13.029  65.298  1.00  0.00    -0.388 C  
HETATM   23  C   UNL     1     -11.214  14.250  66.045  1.00  0.00    -0.324 C  
HETATM   24  C   UNL     1     -12.680  14.069  65.766  1.00  0.00    -0.487 C  
ENDBRANCH  21  22
ENDBRANCH  20  21
ENDBRANCH  19  20
ENDBRANCH  18  19
ENDBRANCH  15  18
ENDBRANCH  11  12
ENDBRANCH  10  11
ENDBRANCH   7  10
ENDBRANCH   6   7
ENDBRANCH   4   6
ENDBRANCH   2   4
TORSDOF 11
ENDMDL
MODEL      207
REMARK 921   NORMALIZED FREE ENERGY PREDICTED BY IDOCK:   -3.43 KCAL/MOL
REMARK 922        TOTAL FREE ENERGY PREDICTED BY IDOCK:   -6.97 KCAL/MOL
REMARK 923 INTER-LIGAND FREE ENERGY PREDICTED BY IDOCK:   -5.49 KCAL/MOL
REMARK 924 INTRA-LIGAND FREE ENERGY PREDICTED BY IDOCK:   -1.48 KCAL/MOL
REMARK 927      BINDING AFFINITY PREDICTED BY RF-SCORE:    0.00 PKD
ROOT
HETATM    1  C   UNL     1     -11.850  12.036  68.523  1.00  0.00    -0.369 C  
HETATM    2  C   UNL     1     -11.048  11.821  67.238  1.00  0.00    -0.287 C  
HETATM    3  C   UNL     1     -10.579  10.365  67.162  1.00  0.00    -0.319 C  
ENDROOT
BRANCH   2   4
HETATM    4  N   UNL     1     -11.817  12.113  66.021  1.00  0.00    -0.561 NA 
HETATM    5  H   UNL     1     -12.493  11.370  65.845  1.00  0.00     0.000 HD 
BRANCH   4   6
HETATM    6  C   UNL     1     -12.487  13.420  66.006  1.00  0.00    -0.369 C  
BRANCH   6   7
HETATM    7  C   UNL     1     -12.285  14.287  64.748  1.00  0.00    -0.443 C  
HETATM    8  O   UNL     1     -12.115  13.417  63.617  1.00  0.00    -0.595 OA 
HETATM    9  H   UNL     1     -11.991  13.952  62.842  1.00  0.00     0.000 HD 
BRANCH   7  10
HETATM   10  C   UNL     1     -11.061  15.200  64.870  1.00  0.00    -0.414 C  
BRANCH  10  11
HETATM   11  O   UNL     1     -10.066  14.512  65.648  1.00  0.00    -0.323 OA 
BRANCH  11  12
HETATM   12  C   UNL     1      -9.292  15.298  66.460  1.00  0.00    -0.281 A  
HETATM   13  C   UNL     1      -8.403  16.280  66.024  1.00  0.00    -0.099 A  
HETATM   14  C   UNL     1      -7.632  16.993  66.947  1.00  0.00    -0.244 A  
HETATM   15  C   UNL     1      -7.753  16.757  68.321  1.00  0.00    -0.187 A  
HETATM   16  C   UNL     1      -8.667  15.788  68.755  1.00  0.00    -0.203 A  
HETATM   17  C   UNL     1      -9.431  15.068  67.830  1.00  0.00    -0.195 A  
BRANCH  15  18
HETATM   18  C   UNL     1      -6.888  17.506  69.307  1.00  0.00    -0.196 C  
BRANCH  18  19
HETATM   19  C   UNL     1      -6.151  16.579  70.275  1.00  0.00     0.023 C  
BRANCH  19  20
HETATM   20  O   UNL     1      -5.374  15.633  69.537  1.00  0.00    -0.102 OA 
BRANCH  20  21
HETATM   21  C   UNL     1      -5.716  14.299  69.917  1.00  0.00    -0.111 C  
BRANCH  21  22
HETATM   22  C   UNL     1      -5.731  13.433  68.700  1.00  0.00    -0.084 C  
HETATM   23  C   UNL     1      -5.363  11.975  68.825  1.00  0.00    -0.050 C  
HETATM   24  C   UNL     1      -6.782  12.365  68.518  1.00  0.00    -0.077 C  
ENDBRANCH  21  22
ENDBRANCH  20  21
ENDBRANCH  19  20
ENDBRANCH  18  19
ENDBRANCH  15  18
ENDBRANCH  11  12
ENDBRANCH  10  11
ENDBRANCH   7  10
ENDBRANCH   6   7
ENDBRANCH   4   6
ENDBRANCH   2   4
TORSDOF 11
ENDMDL
MODEL      208
REMARK 921   NORMALIZED FREE ENERGY PREDICTED BY IDOCK:   -3.43 KCAL/MOL
REMARK 922        TOTAL FREE ENERGY PREDICTED BY IDOCK:   -6.97 KCAL/MOL
REMARK 923 INTER-LIGAND FREE ENERGY PREDICTED BY IDOCK:   -6.41 KCAL/MOL
REMARK 924 INTRA-LIGAND FREE ENERGY PREDICTED BY IDOCK:   -0.57 KCAL/MOL
REMARK 927      BINDING AFFINITY PREDICTED BY RF-SCORE:    0.00 PKD
ROOT
HETATM    1  C   UNL     1     -13.569   7.159  71.549  1.00  0.00    -0.408 C  
HETATM    2  C   UNL     1     -12.157   7.521  71.086  1.00  0.00    -0.307 C  
HETATM    3  C   UNL     1     -11.229   7.629  72.300  1.00  0.00    -0.343 C  
ENDROOT
BRANCH   2   4
HETATM    4  N   UNL     1     -11.580   6.534  70.162  1.00  0.00    -0.479 NA 
HETATM    5  H   UNL     1     -12.092   5.654  70.223  1.00  0.00     0.000 HD 
BRANCH   4   6
HETATM    6  C   UNL     1     -11.487   6.971  68.764  1.00  0.00     0.298 C  
BRANCH   6   7
HETATM    7  C   UNL     1     -10.111   7.474  68.285  1.00  0.00    -0.183 C  
HETATM    8  O   UNL     1      -9.091   6.782  69.025  1.00  0.00    -0.138 OA 
HETATM    9  H   UNL     1      -8.243   7.092  68.730  1.00  0.00     0.000 HD 
BRANCH   7  10
HETATM   10  C   UNL     1      -9.947   8.982  68.492  1.00  0.00    -0.176 C  
BRANCH  10  11
HETATM   11  O   UNL     1     -10.372   9.647  67.289  1.00  0.00    -0.217 OA 
BRANCH  11  12
HETATM   12  C   UNL     1     -10.553  11.002  67.386  1.00  0.00    -0.237 A  
HETATM   13  C   UNL     1     -10.257  11.777  68.507  1.00  0.00    -0.215 A  
HETATM   14  C   UNL     1     -10.526  13.149  68.505  1.00  0.00    -0.262 A  
HETATM   15  C   UNL     1     -11.069  13.775  67.377  1.00  0.00    -0.312 A  
HETATM   16  C   UNL     1     -11.339  12.996  66.245  1.00  0.00    -0.354 A  
HETATM   17  C   UNL     1     -11.080  11.621  66.251  1.00  0.00    -0.345 A  
BRANCH  15  18
HETATM   18  C   UNL     1     -11.389  15.251  67.399  1.00  0.00    -0.285 C  
BRANCH  18  19
HETATM   19  C   UNL     1     -10.453  16.075  66.514  1.00  0.00    -0.302 C  
BRANCH  19  20
HETATM   20  O   UNL     1     -10.145  17.313  67.160  1.00  0.00    -0.280 OA 
BRANCH  20  21
HETATM   21  C   UNL     1     -10.702  18.409  66.433  1.00  0.00    -0.178 C  
BRANCH  21  22
HETATM   22  C   UNL     1     -10.778  19.602  67.329  1.00  0.00    -0.583 C  
HETATM   23  C   UNL     1      -9.963  19.627  68.598  1.00  0.00    -0.553 C  
HETATM   24  C   UNL     1      -9.612  20.549  67.463  1.00  0.00    -0.545 C  
ENDBRANCH  21  22
ENDBRANCH  20  21
ENDBRANCH  19  20
ENDBRANCH  18  19
ENDBRANCH  15  18
ENDBRANCH  11  12
ENDBRANCH  10  11
ENDBRANCH   7  10
ENDBRANCH   6   7
ENDBRANCH   4   6
ENDBRANCH   2   4
TORSDOF 11
ENDMDL
MODEL      209
REMARK 921   NORMALIZED FREE ENERGY PREDICTED BY IDOCK:   -3.43 KCAL/MOL
REMARK 922        TOTAL FREE ENERGY PREDICTED BY IDOCK:   -6.96 KCAL/MOL
REMARK 923 INTER-LIGAND FREE ENERGY PREDICTED BY IDOCK:   -5.62 KCAL/MOL
REMARK 924 INTRA-LIGAND FREE ENERGY PREDICTED BY IDOCK:   -1.34 KCAL/MOL
REMARK 927      BINDING AFFINITY PREDICTED BY RF-SCORE:    0.00 PKD
ROOT
HETATM    1  C   UNL     1      -8.995  14.046  67.645  1.00  0.00    -0.194 C  
HETATM    2  C   UNL     1     -10.464  14.442  67.791  1.00  0.00    -0.245 C  
HETATM    3  C   UNL     1     -11.167  14.323  66.434  1.00  0.00    -0.337 C  
ENDROOT
BRANCH   2   4
HETATM    4  N   UNL     1     -11.196  13.608  68.754  1.00  0.00    -0.265 NA 
HETATM    5  H   UNL     1     -11.896  14.166  69.242  1.00  0.00     0.000 HD 
BRANCH   4   6
HETATM    6  C   UNL     1     -11.815  12.402  68.188  1.00  0.00    -0.315 C  
BRANCH   6   7
HETATM    7  C   UNL     1     -11.195  11.050  68.593  1.00  0.00    -0.263 C  
HETATM    8  O   UNL     1     -11.600  10.058  67.636  1.00  0.00    -0.535 OA 
HETATM    9  H   UNL     1     -11.218   9.225  67.885  1.00  0.00     0.000 HD 
BRANCH   7  10
HETATM   10  C   UNL     1     -11.638  10.611  69.992  1.00  0.00    -0.325 C  
BRANCH  10  11
HETATM   11  O   UNL     1     -10.532   9.940  70.621  1.00  0.00    -0.292 OA 
BRANCH  11  12
HETATM   12  C   UNL     1     -10.789   8.683  71.099  1.00  0.00    -0.259 A  
HETATM   13  C   UNL     1     -11.348   7.638  70.363  1.00  0.00    -0.235 A  
HETATM   14  C   UNL     1     -11.605   6.406  70.971  1.00  0.00    -0.386 A  
HETATM   15  C   UNL     1     -11.286   6.187  72.316  1.00  0.00    -0.334 A  
HETATM   16  C   UNL     1     -10.701   7.231  73.044  1.00  0.00    -0.384 A  
HETATM   17  C   UNL     1     -10.453   8.467  72.437  1.00  0.00    -0.367 A  
BRANCH  15  18
HETATM   18  C   UNL     1     -11.602   4.864  72.973  1.00  0.00    -0.284 C  
BRANCH  18  19
HETATM   19  C   UNL     1     -10.513   3.814  72.747  1.00  0.00    -0.141 C  
BRANCH  19  20
HETATM   20  O   UNL     1      -9.239   4.357  73.103  1.00  0.00    -0.117 OA 
BRANCH  20  21
HETATM   21  C   UNL     1      -8.206   3.769  72.312  1.00  0.00    -0.084 C  
BRANCH  21  22
HETATM   22  C   UNL     1      -7.224   4.827  71.924  1.00  0.00    -0.063 C  
HETATM   23  C   UNL     1      -7.693   6.007  71.108  1.00  0.00    -0.109 C  
HETATM   24  C   UNL     1      -7.280   6.203  72.540  1.00  0.00    -0.085 C  
ENDBRANCH  21  22
ENDBRANCH  20  21
ENDBRANCH  19  20
ENDBRANCH  18  19
ENDBRANCH  15  18
ENDBRANCH  11  12
ENDBRANCH  10  11
ENDBRANCH   7  10
ENDBRANCH   6   7
ENDBRANCH   4   6
ENDBRANCH   2   4
TORSDOF 11
ENDMDL
MODEL      210
REMARK 921   NORMALIZED FREE ENERGY PREDICTED BY IDOCK:   -3.41 KCAL/MOL
REMARK 922        TOTAL FREE ENERGY PREDICTED BY IDOCK:   -6.93 KCAL/MOL
REMARK 923 INTER-LIGAND FREE ENERGY PREDICTED BY IDOCK:   -5.86 KCAL/MOL
REMARK 924 INTRA-LIGAND FREE ENERGY PREDICTED BY IDOCK:   -1.07 KCAL/MOL
REMARK 927      BINDING AFFINITY PREDICTED BY RF-SCORE:    0.00 PKD
ROOT
HETATM    1  C   UNL     1     -10.006  12.265  65.450  1.00  0.00    -0.264 C  
HETATM    2  C   UNL     1     -10.734  11.222  66.300  1.00  0.00    -0.257 C  
HETATM    3  C   UNL     1      -9.810  10.737  67.423  1.00  0.00    -0.204 C  
ENDROOT
BRANCH   2   4
HETATM    4  N   UNL     1     -11.965  11.735  66.916  1.00  0.00    -0.561 NA 
HETATM    5  H   UNL     1     -12.651  10.985  67.007  1.00  0.00     0.000 HD 
BRANCH   4   6
HETATM    6  C   UNL     1     -11.780  12.412  68.206  1.00  0.00    -0.345 C  
BRANCH   6   7
HETATM    7  C   UNL     1     -12.068  13.926  68.241  1.00  0.00    -0.287 C  
HETATM    8  O   UNL     1     -12.379  14.361  66.908  1.00  0.00    -0.558 OA 
HETATM    9  H   UNL     1     -12.556  15.294  66.929  1.00  0.00     0.000 HD 
BRANCH   7  10
HETATM   10  C   UNL     1     -10.872  14.726  68.766  1.00  0.00    -0.255 C  
BRANCH  10  11
HETATM   11  O   UNL     1      -9.686  14.237  68.114  1.00  0.00    -0.213 OA 
BRANCH  11  12
HETATM   12  C   UNL     1      -8.700  15.163  67.895  1.00  0.00    -0.157 A  
HETATM   13  C   UNL     1      -7.498  15.243  68.597  1.00  0.00    -0.126 A  
HETATM   14  C   UNL     1      -6.582  16.260  68.314  1.00  0.00    -0.130 A  
HETATM   15  C   UNL     1      -6.839  17.199  67.308  1.00  0.00    -0.194 A  
HETATM   16  C   UNL     1      -8.036  17.098  66.588  1.00  0.00    -0.300 A  
HETATM   17  C   UNL     1      -8.956  16.085  66.879  1.00  0.00    -0.253 A  
BRANCH  15  18
HETATM   18  C   UNL     1      -5.860  18.317  67.035  1.00  0.00    -0.164 C  
BRANCH  18  19
HETATM   19  C   UNL     1      -6.538  19.680  66.898  1.00  0.00    -0.193 C  
BRANCH  19  20
HETATM   20  O   UNL     1      -6.146  20.525  67.984  1.00  0.00    -0.238 OA 
BRANCH  20  21
HETATM   21  C   UNL     1      -6.653  20.020  69.219  1.00  0.00    -0.311 C  
BRANCH  21  22
HETATM   22  C   UNL     1      -5.629  20.224  70.288  1.00  0.00    -0.353 C  
HETATM   23  C   UNL     1      -6.037  20.101  71.736  1.00  0.00    -0.215 C  
HETATM   24  C   UNL     1      -5.135  19.067  71.121  1.00  0.00    -0.285 C  
ENDBRANCH  21  22
ENDBRANCH  20  21
ENDBRANCH  19  20
ENDBRANCH  18  19
ENDBRANCH  15  18
ENDBRANCH  11  12
ENDBRANCH  10  11
ENDBRANCH   7  10
ENDBRANCH   6   7
ENDBRANCH   4   6
ENDBRANCH   2   4
TORSDOF 11
ENDMDL
MODEL      211
REMARK 921   NORMALIZED FREE ENERGY PREDICTED BY IDOCK:   -3.38 KCAL/MOL
REMARK 922        TOTAL FREE ENERGY PREDICTED BY IDOCK:   -6.88 KCAL/MOL
REMARK 923 INTER-LIGAND FREE ENERGY PREDICTED BY IDOCK:   -6.11 KCAL/MOL
REMARK 924 INTRA-LIGAND FREE ENERGY PREDICTED BY IDOCK:   -0.77 KCAL/MOL
REMARK 927      BINDING AFFINITY PREDICTED BY RF-SCORE:    0.00 PKD
ROOT
HETATM    1  C   UNL     1      -8.924   4.518  66.896  1.00  0.00    -0.117 C  
HETATM    2  C   UNL     1     -10.294   4.936  67.433  1.00  0.00    -0.065 C  
HETATM    3  C   UNL     1     -10.156   5.413  68.883  1.00  0.00    -0.265 C  
ENDROOT
BRANCH   2   4
HETATM    4  N   UNL     1     -10.914   6.019  66.658  1.00  0.00    -0.698 NA 
HETATM    5  H   UNL     1     -11.848   5.745  66.354  1.00  0.00     0.000 HD 
BRANCH   4   6
HETATM    6  C   UNL     1     -10.963   7.321  67.336  1.00  0.00    -0.186 C  
BRANCH   6   7
HETATM    7  C   UNL     1     -10.117   8.454  66.725  1.00  0.00    -0.303 C  
HETATM    8  O   UNL     1      -9.552   7.985  65.489  1.00  0.00    -0.378 OA 
HETATM    9  H   UNL     1      -9.030   8.683  65.112  1.00  0.00     0.000 HD 
BRANCH   7  10
HETATM   10  C   UNL     1      -8.986   8.894  67.660  1.00  0.00    -0.134 C  
BRANCH  10  11
HETATM   11  O   UNL     1      -9.562   9.208  68.940  1.00  0.00    -0.149 OA 
BRANCH  11  12
HETATM   12  C   UNL     1     -10.144  10.443  69.048  1.00  0.00    -0.213 A  
HETATM   13  C   UNL     1     -11.389  10.701  69.621  1.00  0.00    -0.360 A  
HETATM   14  C   UNL     1     -11.903  12.001  69.636  1.00  0.00    -0.401 A  
HETATM   15  C   UNL     1     -11.172  13.070  69.103  1.00  0.00    -0.297 A  
HETATM   16  C   UNL     1      -9.911  12.809  68.552  1.00  0.00    -0.147 A  
HETATM   17  C   UNL     1      -9.402  11.505  68.529  1.00  0.00    -0.171 A  
BRANCH  15  18
HETATM   18  C   UNL     1     -11.752  14.464  69.091  1.00  0.00    -0.354 C  
BRANCH  18  19
HETATM   19  C   UNL     1     -10.743  15.530  69.521  1.00  0.00    -0.272 C  
BRANCH  19  20
HETATM   20  O   UNL     1     -11.117  16.797  68.972  1.00  0.00    -0.277 OA 
BRANCH  20  21
HETATM   21  C   UNL     1      -9.970  17.633  68.818  1.00  0.00    -0.358 C  
BRANCH  21  22
HETATM   22  C   UNL     1      -9.595  17.688  67.372  1.00  0.00    -0.267 C  
HETATM   23  C   UNL     1     -10.352  16.841  66.379  1.00  0.00    -0.309 C  
HETATM   24  C   UNL     1     -10.505  18.336  66.358  1.00  0.00    -0.387 C  
ENDBRANCH  21  22
ENDBRANCH  20  21
ENDBRANCH  19  20
ENDBRANCH  18  19
ENDBRANCH  15  18
ENDBRANCH  11  12
ENDBRANCH  10  11
ENDBRANCH   7  10
ENDBRANCH   6   7
ENDBRANCH   4   6
ENDBRANCH   2   4
TORSDOF 11
ENDMDL
MODEL      212
REMARK 921   NORMALIZED FREE ENERGY PREDICTED BY IDOCK:   -3.36 KCAL/MOL
REMARK 922        TOTAL FREE ENERGY PREDICTED BY IDOCK:   -6.86 KCAL/MOL
REMARK 923 INTER-LIGAND FREE ENERGY PREDICTED BY IDOCK:   -5.81 KCAL/MOL
REMARK 924 INTRA-LIGAND FREE ENERGY PREDICTED BY IDOCK:   -1.05 KCAL/MOL
REMARK 927      BINDING AFFINITY PREDICTED BY RF-SCORE:    0.00 PKD
ROOT
HETATM    1  C   UNL     1      -8.351  16.098  68.448  1.00  0.00    -0.179 C  
HETATM    2  C   UNL     1      -9.451  17.160  68.456  1.00  0.00    -0.282 C  
HETATM    3  C   UNL     1      -9.461  17.901  67.114  1.00  0.00    -0.263 C  
ENDROOT
BRANCH   2   4
HETATM    4  N   UNL     1     -10.793  16.601  68.674  1.00  0.00    -0.340 NA 
HETATM    5  H   UNL     1     -10.965  15.835  68.022  1.00  0.00     0.000 HD 
BRANCH   4   6
HETATM    6  C   UNL     1     -11.071  16.169  70.049  1.00  0.00    -0.363 C  
BRANCH   6   7
HETATM    7  C   UNL     1     -12.342  15.325  70.266  1.00  0.00    -0.366 C  
HETATM    8  O   UNL     1     -12.566  15.195  71.680  1.00  0.00    -0.307 OA 
HETATM    9  H   UNL     1     -13.350  14.675  71.813  1.00  0.00     0.000 HD 
BRANCH   7  10
HETATM   10  C   UNL     1     -12.219  13.931  69.645  1.00  0.00    -0.321 C  
BRANCH  10  11
HETATM   11  O   UNL     1     -12.313  14.068  68.216  1.00  0.00    -0.252 OA 
BRANCH  11  12
HETATM   12  C   UNL     1     -11.483  13.263  67.482  1.00  0.00    -0.322 A  
HETATM   13  C   UNL     1     -11.736  12.810  66.187  1.00  0.00    -0.458 A  
HETATM   14  C   UNL     1     -10.832  11.954  65.551  1.00  0.00    -0.343 A  
HETATM   15  C   UNL     1      -9.649  11.556  66.185  1.00  0.00    -0.248 A  
HETATM   16  C   UNL     1      -9.388  12.035  67.475  1.00  0.00    -0.179 A  
HETATM   17  C   UNL     1     -10.298  12.884  68.115  1.00  0.00    -0.243 A  
BRANCH  15  18
HETATM   18  C   UNL     1      -8.697  10.602  65.503  1.00  0.00    -0.199 C  
BRANCH  18  19
HETATM   19  C   UNL     1      -9.284   9.200  65.331  1.00  0.00    -0.202 C  
BRANCH  19  20
HETATM   20  O   UNL     1     -10.196   8.926  66.398  1.00  0.00    -0.283 OA 
BRANCH  20  21
HETATM   21  C   UNL     1     -10.182   7.536  66.724  1.00  0.00    -0.254 C  
BRANCH  21  22
HETATM   22  C   UNL     1      -8.926   6.922  66.197  1.00  0.00    -0.157 C  
HETATM   23  C   UNL     1      -8.071   6.084  67.116  1.00  0.00    -0.106 C  
HETATM   24  C   UNL     1      -8.818   5.432  65.985  1.00  0.00    -0.144 C  
ENDBRANCH  21  22
ENDBRANCH  20  21
ENDBRANCH  19  20
ENDBRANCH  18  19
ENDBRANCH  15  18
ENDBRANCH  11  12
ENDBRANCH  10  11
ENDBRANCH   7  10
ENDBRANCH   6   7
ENDBRANCH   4   6
ENDBRANCH   2   4
TORSDOF 11
ENDMDL
MODEL      213
REMARK 921   NORMALIZED FREE ENERGY PREDICTED BY IDOCK:   -3.36 KCAL/MOL
REMARK 922        TOTAL FREE ENERGY PREDICTED BY IDOCK:   -6.85 KCAL/MOL
REMARK 923 INTER-LIGAND FREE ENERGY PREDICTED BY IDOCK:   -5.77 KCAL/MOL
REMARK 924 INTRA-LIGAND FREE ENERGY PREDICTED BY IDOCK:   -1.08 KCAL/MOL
REMARK 927      BINDING AFFINITY PREDICTED BY RF-SCORE:    0.00 PKD
ROOT
HETATM    1  C   UNL     1      -8.356   5.234  65.015  1.00  0.00    -0.146 C  
HETATM    2  C   UNL     1      -8.759   3.859  65.548  1.00  0.00    -0.116 C  
HETATM    3  C   UNL     1      -7.530   3.153  66.133  1.00  0.00    -0.076 C  
ENDROOT
BRANCH   2   4
HETATM    4  N   UNL     1      -9.786   3.922  66.597  1.00  0.00    -0.368 NA 
HETATM    5  H   UNL     1      -9.809   3.046  67.119  1.00  0.00     0.000 HD 
BRANCH   4   6
HETATM    6  C   UNL     1      -9.666   5.059  67.518  1.00  0.00    -0.157 C  
BRANCH   6   7
HETATM    7  C   UNL     1     -10.889   5.988  67.635  1.00  0.00    -0.295 C  
HETATM    8  O   UNL     1     -11.503   6.099  66.340  1.00  0.00    -0.650 OA 
HETATM    9  H   UNL     1     -12.257   6.672  66.411  1.00  0.00     0.000 HD 
BRANCH   7  10
HETATM   10  C   UNL     1     -10.504   7.385  68.130  1.00  0.00    -0.193 C  
BRANCH  10  11
HETATM   11  O   UNL     1      -9.988   8.130  67.013  1.00  0.00    -0.206 OA 
BRANCH  11  12
HETATM   12  C   UNL     1      -9.828   9.476  67.213  1.00  0.00    -0.177 A  
HETATM   13  C   UNL     1      -8.694  10.213  66.874  1.00  0.00    -0.135 A  
HETATM   14  C   UNL     1      -8.627  11.578  67.167  1.00  0.00    -0.155 A  
HETATM   15  C   UNL     1      -9.700  12.236  67.780  1.00  0.00    -0.199 A  
HETATM   16  C   UNL     1     -10.847  11.496  68.095  1.00  0.00    -0.259 A  
HETATM   17  C   UNL     1     -10.909  10.127  67.810  1.00  0.00    -0.346 A  
BRANCH  15  18
HETATM   18  C   UNL     1      -9.603  13.703  68.126  1.00  0.00    -0.221 C  
BRANCH  18  19
HETATM   19  C   UNL     1      -8.782  14.499  67.111  1.00  0.00    -0.219 C  
BRANCH  19  20
HETATM   20  O   UNL     1      -9.576  15.559  66.573  1.00  0.00    -0.239 OA 
BRANCH  20  21
HETATM   21  C   UNL     1     -10.881  15.086  66.236  1.00  0.00    -0.333 C  
BRANCH  21  22
HETATM   22  C   UNL     1     -10.885  14.633  64.813  1.00  0.00    -0.402 C  
HETATM   23  C   UNL     1     -10.800  13.158  64.506  1.00  0.00    -0.400 C  
HETATM   24  C   UNL     1     -12.073  13.908  64.231  1.00  0.00    -0.477 C  
ENDBRANCH  21  22
ENDBRANCH  20  21
ENDBRANCH  19  20
ENDBRANCH  18  19
ENDBRANCH  15  18
ENDBRANCH  11  12
ENDBRANCH  10  11
ENDBRANCH   7  10
ENDBRANCH   6   7
ENDBRANCH   4   6
ENDBRANCH   2   4
TORSDOF 11
ENDMDL
MODEL      214
REMARK 921   NORMALIZED FREE ENERGY PREDICTED BY IDOCK:   -3.35 KCAL/MOL
REMARK 922        TOTAL FREE ENERGY PREDICTED BY IDOCK:   -6.84 KCAL/MOL
REMARK 923 INTER-LIGAND FREE ENERGY PREDICTED BY IDOCK:   -5.90 KCAL/MOL
REMARK 924 INTRA-LIGAND FREE ENERGY PREDICTED BY IDOCK:   -0.94 KCAL/MOL
REMARK 927      BINDING AFFINITY PREDICTED BY RF-SCORE:    0.00 PKD
ROOT
HETATM    1  C   UNL     1      -5.982  12.722  68.246  1.00  0.00    -0.075 C  
HETATM    2  C   UNL     1      -7.101  13.694  68.619  1.00  0.00    -0.105 C  
HETATM    3  C   UNL     1      -7.107  14.873  67.640  1.00  0.00    -0.208 C  
ENDROOT
BRANCH   2   4
HETATM    4  N   UNL     1      -8.435  13.078  68.594  1.00  0.00    -0.352 NA 
HETATM    5  H   UNL     1      -8.643  12.652  69.497  1.00  0.00     0.000 HD 
BRANCH   4   6
HETATM    6  C   UNL     1      -9.527  13.975  68.193  1.00  0.00    -0.215 C  
BRANCH   6   7
HETATM    7  C   UNL     1     -10.597  13.386  67.252  1.00  0.00    -0.255 C  
HETATM    8  O   UNL     1     -11.082  14.437  66.401  1.00  0.00    -0.314 OA 
HETATM    9  H   UNL     1     -11.742  14.074  65.821  1.00  0.00     0.000 HD 
BRANCH   7  10
HETATM   10  C   UNL     1     -11.771  12.781  68.026  1.00  0.00    -0.356 C  
BRANCH  10  11
HETATM   11  O   UNL     1     -11.688  11.349  67.918  1.00  0.00    -0.510 OA 
BRANCH  11  12
HETATM   12  C   UNL     1     -11.338  10.682  69.062  1.00  0.00    -0.277 A  
HETATM   13  C   UNL     1     -12.125  10.578  70.209  1.00  0.00    -0.402 A  
HETATM   14  C   UNL     1     -11.643   9.907  71.336  1.00  0.00    -0.428 A  
HETATM   15  C   UNL     1     -10.379   9.305  71.330  1.00  0.00    -0.397 A  
HETATM   16  C   UNL     1      -9.604   9.389  70.167  1.00  0.00    -0.275 A  
HETATM   17  C   UNL     1     -10.083  10.071  69.042  1.00  0.00    -0.211 A  
BRANCH  15  18
HETATM   18  C   UNL     1      -9.854   8.613  72.566  1.00  0.00    -0.268 C  
BRANCH  18  19
HETATM   19  C   UNL     1      -8.555   7.846  72.310  1.00  0.00    -0.145 C  
BRANCH  19  20
HETATM   20  O   UNL     1      -8.854   6.481  72.008  1.00  0.00    -0.133 OA 
BRANCH  20  21
HETATM   21  C   UNL     1      -8.924   6.284  70.595  1.00  0.00    -0.144 C  
BRANCH  21  22
HETATM   22  C   UNL     1     -10.221   5.624  70.257  1.00  0.00    -0.311 C  
HETATM   23  C   UNL     1     -11.155   6.289  69.275  1.00  0.00    -0.461 C  
HETATM   24  C   UNL     1     -10.452   5.015  68.897  1.00  0.00    -0.061 C  
ENDBRANCH  21  22
ENDBRANCH  20  21
ENDBRANCH  19  20
ENDBRANCH  18  19
ENDBRANCH  15  18
ENDBRANCH  11  12
ENDBRANCH  10  11
ENDBRANCH   7  10
ENDBRANCH   6   7
ENDBRANCH   4   6
ENDBRANCH   2   4
TORSDOF 11
ENDMDL
MODEL      215
REMARK 921   NORMALIZED FREE ENERGY PREDICTED BY IDOCK:   -3.35 KCAL/MOL
REMARK 922        TOTAL FREE ENERGY PREDICTED BY IDOCK:   -6.84 KCAL/MOL
REMARK 923 INTER-LIGAND FREE ENERGY PREDICTED BY IDOCK:   -6.13 KCAL/MOL
REMARK 924 INTRA-LIGAND FREE ENERGY PREDICTED BY IDOCK:   -0.72 KCAL/MOL
REMARK 927      BINDING AFFINITY PREDICTED BY RF-SCORE:    0.00 PKD
ROOT
HETATM    1  C   UNL     1     -11.237   7.175  70.397  1.00  0.00    -0.320 C  
HETATM    2  C   UNL     1     -11.637   8.062  71.577  1.00  0.00    -0.275 C  
HETATM    3  C   UNL     1     -11.057   7.487  72.873  1.00  0.00    -0.426 C  
ENDROOT
BRANCH   2   4
HETATM    4  N   UNL     1     -11.166   9.448  71.446  1.00  0.00    -0.358 NA 
HETATM    5  H   UNL     1     -10.269   9.470  70.960  1.00  0.00     0.000 HD 
BRANCH   4   6
HETATM    6  C   UNL     1     -12.112  10.369  70.804  1.00  0.00    -0.364 C  
BRANCH   6   7
HETATM    7  C   UNL     1     -11.585  11.179  69.603  1.00  0.00    -0.326 C  
HETATM    8  O   UNL     1     -12.534  11.073  68.530  1.00  0.00    -0.713 OA 
HETATM    9  H   UNL     1     -12.209  11.572  67.790  1.00  0.00     0.000 HD 
BRANCH   7  10
HETATM   10  C   UNL     1     -10.222  10.671  69.123  1.00  0.00    -0.220 C  
BRANCH  10  11
HETATM   11  O   UNL     1      -9.967  11.235  67.824  1.00  0.00    -0.172 OA 
BRANCH  11  12
HETATM   12  C   UNL     1      -9.010  12.213  67.774  1.00  0.00    -0.179 A  
HETATM   13  C   UNL     1      -7.671  12.051  68.127  1.00  0.00    -0.135 A  
HETATM   14  C   UNL     1      -6.792  13.136  68.076  1.00  0.00    -0.118 A  
HETATM   15  C   UNL     1      -7.227  14.396  67.647  1.00  0.00    -0.201 A  
HETATM   16  C   UNL     1      -8.567  14.547  67.268  1.00  0.00    -0.231 A  
HETATM   17  C   UNL     1      -9.449  13.462  67.329  1.00  0.00    -0.234 A  
BRANCH  15  18
HETATM   18  C   UNL     1      -6.278  15.570  67.631  1.00  0.00    -0.174 C  
BRANCH  18  19
HETATM   19  C   UNL     1      -6.887  16.817  66.988  1.00  0.00    -0.211 C  
BRANCH  19  20
HETATM   20  O   UNL     1      -6.713  17.941  67.855  1.00  0.00    -0.187 OA 
BRANCH  20  21
HETATM   21  C   UNL     1      -7.964  18.340  68.415  1.00  0.00    -0.306 C  
BRANCH  21  22
HETATM   22  C   UNL     1      -8.164  19.801  68.177  1.00  0.00    -0.324 C  
HETATM   23  C   UNL     1      -7.017  20.627  67.648  1.00  0.00    -0.376 C  
HETATM   24  C   UNL     1      -8.213  20.361  66.777  1.00  0.00    -0.276 C  
ENDBRANCH  21  22
ENDBRANCH  20  21
ENDBRANCH  19  20
ENDBRANCH  18  19
ENDBRANCH  15  18
ENDBRANCH  11  12
ENDBRANCH  10  11
ENDBRANCH   7  10
ENDBRANCH   6   7
ENDBRANCH   4   6
ENDBRANCH   2   4
TORSDOF 11
ENDMDL
MODEL      216
REMARK 921   NORMALIZED FREE ENERGY PREDICTED BY IDOCK:   -3.35 KCAL/MOL
REMARK 922        TOTAL FREE ENERGY PREDICTED BY IDOCK:   -6.84 KCAL/MOL
REMARK 923 INTER-LIGAND FREE ENERGY PREDICTED BY IDOCK:   -6.13 KCAL/MOL
REMARK 924 INTRA-LIGAND FREE ENERGY PREDICTED BY IDOCK:   -0.71 KCAL/MOL
REMARK 927      BINDING AFFINITY PREDICTED BY RF-SCORE:    0.00 PKD
ROOT
HETATM    1  C   UNL     1      -9.410   3.175  67.179  1.00  0.00    -0.197 C  
HETATM    2  C   UNL     1      -8.874   3.942  65.969  1.00  0.00    -0.123 C  
HETATM    3  C   UNL     1      -9.986   4.101  64.926  1.00  0.00    -0.208 C  
ENDROOT
BRANCH   2   4
HETATM    4  N   UNL     1      -8.377   5.283  66.308  1.00  0.00    -0.113 NA 
HETATM    5  H   UNL     1      -7.526   5.485  65.784  1.00  0.00     0.000 HD 
BRANCH   4   6
HETATM    6  C   UNL     1      -9.350   6.370  66.133  1.00  0.00    -0.076 C  
BRANCH   6   7
HETATM    7  C   UNL     1     -10.068   6.866  67.403  1.00  0.00    -0.183 C  
HETATM    8  O   UNL     1     -11.486   6.811  67.174  1.00  0.00    -0.756 OA 
HETATM    9  H   UNL     1     -11.929   7.117  67.957  1.00  0.00     0.000 HD 
BRANCH   7  10
HETATM   10  C   UNL     1      -9.671   8.301  67.763  1.00  0.00    -0.158 C  
BRANCH  10  11
HETATM   11  O   UNL     1     -10.661   9.190  67.217  1.00  0.00    -0.262 OA 
BRANCH  11  12
HETATM   12  C   UNL     1     -11.000  10.262  68.000  1.00  0.00    -0.289 A  
HETATM   13  C   UNL     1     -11.125  10.239  69.388  1.00  0.00    -0.299 A  
HETATM   14  C   UNL     1     -11.521  11.388  70.079  1.00  0.00    -0.331 A  
HETATM   15  C   UNL     1     -11.774  12.586  69.399  1.00  0.00    -0.383 A  
HETATM   16  C   UNL     1     -11.621  12.609  68.007  1.00  0.00    -0.394 A  
HETATM   17  C   UNL     1     -11.235  11.456  67.316  1.00  0.00    -0.370 A  
BRANCH  15  18
HETATM   18  C   UNL     1     -12.236  13.811  70.151  1.00  0.00    -0.425 C  
BRANCH  18  19
HETATM   19  C   UNL     1     -11.952  15.112  69.399  1.00  0.00    -0.307 C  
BRANCH  19  20
HETATM   20  O   UNL     1     -10.853  15.792  70.009  1.00  0.00    -0.286 OA 
BRANCH  20  21
HETATM   21  C   UNL     1     -10.377  16.837  69.161  1.00  0.00    -0.326 C  
BRANCH  21  22
HETATM   22  C   UNL     1      -9.162  16.362  68.432  1.00  0.00    -0.217 C  
HETATM   23  C   UNL     1      -8.204  15.424  69.125  1.00  0.00    -0.243 C  
HETATM   24  C   UNL     1      -9.039  14.929  67.977  1.00  0.00    -0.180 C  
ENDBRANCH  21  22
ENDBRANCH  20  21
ENDBRANCH  19  20
ENDBRANCH  18  19
ENDBRANCH  15  18
ENDBRANCH  11  12
ENDBRANCH  10  11
ENDBRANCH   7  10
ENDBRANCH   6   7
ENDBRANCH   4   6
ENDBRANCH   2   4
TORSDOF 11
ENDMDL
MODEL      217
REMARK 921   NORMALIZED FREE ENERGY PREDICTED BY IDOCK:   -3.34 KCAL/MOL
REMARK 922        TOTAL FREE ENERGY PREDICTED BY IDOCK:   -6.83 KCAL/MOL
REMARK 923 INTER-LIGAND FREE ENERGY PREDICTED BY IDOCK:   -5.57 KCAL/MOL
REMARK 924 INTRA-LIGAND FREE ENERGY PREDICTED BY IDOCK:   -1.26 KCAL/MOL
REMARK 927      BINDING AFFINITY PREDICTED BY RF-SCORE:    0.00 PKD
ROOT
HETATM    1  C   UNL     1     -12.543  12.006  63.659  1.00  0.00    -0.605 C  
HETATM    2  C   UNL     1     -11.845  12.992  64.597  1.00  0.00    -0.372 C  
HETATM    3  C   UNL     1     -12.042  14.421  64.080  1.00  0.00    -0.405 C  
ENDROOT
BRANCH   2   4
HETATM    4  N   UNL     1     -12.350  12.936  65.976  1.00  0.00    -0.534 NA 
HETATM    5  H   UNL     1     -12.117  12.037  66.399  1.00  0.00     0.000 HD 
BRANCH   4   6
HETATM    6  C   UNL     1     -11.910  14.034  66.845  1.00  0.00    -0.430 C  
BRANCH   6   7
HETATM    7  C   UNL     1     -12.070  13.824  68.363  1.00  0.00    -0.289 C  
HETATM    8  O   UNL     1     -12.131  15.111  68.998  1.00  0.00    -0.503 OA 
HETATM    9  H   UNL     1     -12.230  14.981  69.934  1.00  0.00     0.000 HD 
BRANCH   7  10
HETATM   10  C   UNL     1     -10.908  13.023  68.958  1.00  0.00    -0.155 C  
BRANCH  10  11
HETATM   11  O   UNL     1     -10.183  12.415  67.874  1.00  0.00    -0.202 OA 
BRANCH  11  12
HETATM   12  C   UNL     1     -10.016  11.058  67.952  1.00  0.00    -0.174 A  
HETATM   13  C   UNL     1      -9.056  10.321  67.260  1.00  0.00    -0.150 A  
HETATM   14  C   UNL     1      -9.009   8.930  67.386  1.00  0.00    -0.143 A  
HETATM   15  C   UNL     1      -9.902   8.253  68.225  1.00  0.00    -0.192 A  
HETATM   16  C   UNL     1     -10.847   9.000  68.938  1.00  0.00    -0.075 A  
HETATM   17  C   UNL     1     -10.900  10.392  68.803  1.00  0.00    -0.269 A  
BRANCH  15  18
HETATM   18  C   UNL     1      -9.866   6.746  68.325  1.00  0.00    -0.144 C  
BRANCH  18  19
HETATM   19  C   UNL     1     -10.997   6.072  67.547  1.00  0.00    -0.234 C  
BRANCH  19  20
HETATM   20  O   UNL     1     -10.452   5.302  66.473  1.00  0.00    -0.254 OA 
BRANCH  20  21
HETATM   21  C   UNL     1      -9.042   5.144  66.636  1.00  0.00    -0.120 C  
BRANCH  21  22
HETATM   22  C   UNL     1      -8.374   5.305  65.310  1.00  0.00    -0.139 C  
HETATM   23  C   UNL     1      -7.992   6.687  64.837  1.00  0.00    -0.121 C  
HETATM   24  C   UNL     1      -6.922   5.700  65.213  1.00  0.00    -0.060 C  
ENDBRANCH  21  22
ENDBRANCH  20  21
ENDBRANCH  19  20
ENDBRANCH  18  19
ENDBRANCH  15  18
ENDBRANCH  11  12
ENDBRANCH  10  11
ENDBRANCH   7  10
ENDBRANCH   6   7
ENDBRANCH   4   6
ENDBRANCH   2   4
TORSDOF 11
ENDMDL
MODEL      218
REMARK 921   NORMALIZED FREE ENERGY PREDICTED BY IDOCK:   -3.34 KCAL/MOL
REMARK 922        TOTAL FREE ENERGY PREDICTED BY IDOCK:   -6.81 KCAL/MOL
REMARK 923 INTER-LIGAND FREE ENERGY PREDICTED BY IDOCK:   -6.26 KCAL/MOL
REMARK 924 INTRA-LIGAND FREE ENERGY PREDICTED BY IDOCK:   -0.55 KCAL/MOL
REMARK 927      BINDING AFFINITY PREDICTED BY RF-SCORE:    0.00 PKD
ROOT
HETATM    1  C   UNL     1      -8.556   9.136  63.980  1.00  0.00    -0.186 C  
HETATM    2  C   UNL     1      -8.095   7.737  64.389  1.00  0.00    -0.091 C  
HETATM    3  C   UNL     1      -7.192   7.153  63.297  1.00  0.00    -0.071 C  
ENDROOT
BRANCH   2   4
HETATM    4  N   UNL     1      -7.345   7.719  65.652  1.00  0.00    -0.071 NA 
HETATM    5  H   UNL     1      -6.781   8.565  65.738  1.00  0.00     0.000 HD 
BRANCH   4   6
HETATM    6  C   UNL     1      -8.162   7.532  66.858  1.00  0.00    -0.124 C  
BRANCH   6   7
HETATM    7  C   UNL     1      -9.254   6.446  66.792  1.00  0.00    -0.142 C  
HETATM    8  O   UNL     1     -10.518   7.085  66.545  1.00  0.00    -0.482 OA 
HETATM    9  H   UNL     1     -11.191   6.416  66.505  1.00  0.00     0.000 HD 
BRANCH   7  10
HETATM   10  C   UNL     1      -9.343   5.642  68.093  1.00  0.00    -0.111 C  
BRANCH  10  11
HETATM   11  O   UNL     1      -8.821   6.455  69.158  1.00  0.00    -0.126 OA 
BRANCH  11  12
HETATM   12  C   UNL     1      -9.752   7.091  69.937  1.00  0.00    -0.163 A  
HETATM   13  C   UNL     1     -10.953   6.534  70.376  1.00  0.00    -0.353 A  
HETATM   14  C   UNL     1     -11.848   7.297  71.132  1.00  0.00    -0.345 A  
HETATM   15  C   UNL     1     -11.549   8.618  71.485  1.00  0.00    -0.368 A  
HETATM   16  C   UNL     1     -10.330   9.163  71.063  1.00  0.00    -0.363 A  
HETATM   17  C   UNL     1      -9.439   8.403  70.297  1.00  0.00    -0.168 A  
BRANCH  15  18
HETATM   18  C   UNL     1     -12.540   9.444  72.271  1.00  0.00    -0.378 C  
BRANCH  18  19
HETATM   19  C   UNL     1     -13.124  10.600  71.458  1.00  0.00    -0.424 C  
BRANCH  19  20
HETATM   20  O   UNL     1     -12.557  11.836  71.901  1.00  0.00    -0.164 OA 
BRANCH  20  21
HETATM   21  C   UNL     1     -13.580  12.811  72.108  1.00  0.00    -0.451 C  
BRANCH  21  22
HETATM   22  C   UNL     1     -12.973  14.175  72.061  1.00  0.00    -0.444 C  
HETATM   23  C   UNL     1     -13.768  15.356  72.561  1.00  0.00    -0.652 C  
HETATM   24  C   UNL     1     -12.561  14.887  73.325  1.00  0.00    -0.586 C  
ENDBRANCH  21  22
ENDBRANCH  20  21
ENDBRANCH  19  20
ENDBRANCH  18  19
ENDBRANCH  15  18
ENDBRANCH  11  12
ENDBRANCH  10  11
ENDBRANCH   7  10
ENDBRANCH   6   7
ENDBRANCH   4   6
ENDBRANCH   2   4
TORSDOF 11
ENDMDL
MODEL      219
REMARK 921   NORMALIZED FREE ENERGY PREDICTED BY IDOCK:   -3.33 KCAL/MOL
REMARK 922        TOTAL FREE ENERGY PREDICTED BY IDOCK:   -6.80 KCAL/MOL
REMARK 923 INTER-LIGAND FREE ENERGY PREDICTED BY IDOCK:   -6.04 KCAL/MOL
REMARK 924 INTRA-LIGAND FREE ENERGY PREDICTED BY IDOCK:   -0.76 KCAL/MOL
REMARK 927      BINDING AFFINITY PREDICTED BY RF-SCORE:    0.00 PKD
ROOT
HETATM    1  C   UNL     1     -11.939   8.183  71.469  1.00  0.00    -0.334 C  
HETATM    2  C   UNL     1     -13.191   9.060  71.415  1.00  0.00    -0.278 C  
HETATM    3  C   UNL     1     -14.238   8.523  72.397  1.00  0.00    -0.406 C  
ENDROOT
BRANCH   2   4
HETATM    4  N   UNL     1     -12.928  10.464  71.757  1.00  0.00    -0.454 NA 
HETATM    5  H   UNL     1     -12.632  10.540  72.730  1.00  0.00     0.000 HD 
BRANCH   4   6
HETATM    6  C   UNL     1     -11.969  11.149  70.880  1.00  0.00    -0.257 C  
BRANCH   6   7
HETATM    7  C   UNL     1     -12.340  11.244  69.387  1.00  0.00    -0.149 C  
HETATM    8  O   UNL     1     -11.456  10.389  68.643  1.00  0.00    -0.419 OA 
HETATM    9  H   UNL     1     -11.685  10.448  67.723  1.00  0.00     0.000 HD 
BRANCH   7  10
HETATM   10  C   UNL     1     -12.223  12.675  68.856  1.00  0.00     0.040 C  
BRANCH  10  11
HETATM   11  O   UNL     1     -11.613  12.621  67.554  1.00  0.00    -0.317 OA 
BRANCH  11  12
HETATM   12  C   UNL     1     -10.778  13.660  67.241  1.00  0.00    -0.279 A  
HETATM   13  C   UNL     1      -9.494  13.532  66.710  1.00  0.00    -0.272 A  
HETATM   14  C   UNL     1      -8.714  14.667  66.471  1.00  0.00    -0.115 A  
HETATM   15  C   UNL     1      -9.211  15.950  66.732  1.00  0.00    -0.264 A  
HETATM   16  C   UNL     1     -10.510  16.074  67.240  1.00  0.00    -0.308 A  
HETATM   17  C   UNL     1     -11.286  14.936  67.489  1.00  0.00    -0.351 A  
BRANCH  15  18
HETATM   18  C   UNL     1      -8.346  17.167  66.504  1.00  0.00    -0.309 C  
BRANCH  18  19
HETATM   19  C   UNL     1      -8.212  18.042  67.751  1.00  0.00    -0.238 C  
BRANCH  19  20
HETATM   20  O   UNL     1      -7.425  19.197  67.448  1.00  0.00    -0.231 OA 
BRANCH  20  21
HETATM   21  C   UNL     1      -7.743  19.691  66.146  1.00  0.00    -0.321 C  
BRANCH  21  22
HETATM   22  C   UNL     1      -6.480  20.078  65.448  1.00  0.00    -0.298 C  
HETATM   23  C   UNL     1      -5.162  19.551  65.959  1.00  0.00    -0.161 C  
HETATM   24  C   UNL     1      -5.700  19.072  64.639  1.00  0.00    -0.315 C  
ENDBRANCH  21  22
ENDBRANCH  20  21
ENDBRANCH  19  20
ENDBRANCH  18  19
ENDBRANCH  15  18
ENDBRANCH  11  12
ENDBRANCH  10  11
ENDBRANCH   7  10
ENDBRANCH   6   7
ENDBRANCH   4   6
ENDBRANCH   2   4
TORSDOF 11
ENDMDL
MODEL      220
REMARK 921   NORMALIZED FREE ENERGY PREDICTED BY IDOCK:   -3.32 KCAL/MOL
REMARK 922        TOTAL FREE ENERGY PREDICTED BY IDOCK:   -6.78 KCAL/MOL
REMARK 923 INTER-LIGAND FREE ENERGY PREDICTED BY IDOCK:   -5.04 KCAL/MOL
REMARK 924 INTRA-LIGAND FREE ENERGY PREDICTED BY IDOCK:   -1.74 KCAL/MOL
REMARK 927      BINDING AFFINITY PREDICTED BY RF-SCORE:    0.00 PKD
ROOT
HETATM    1  C   UNL     1     -10.007   9.292  66.414  1.00  0.00    -0.356 C  
HETATM    2  C   UNL     1      -9.723  10.790  66.305  1.00  0.00    -0.205 C  
HETATM    3  C   UNL     1     -10.718  11.433  65.333  1.00  0.00    -0.313 C  
ENDROOT
BRANCH   2   4
HETATM    4  N   UNL     1      -9.827  11.495  67.590  1.00  0.00    -0.179 NA 
HETATM    5  H   UNL     1      -9.179  12.282  67.613  1.00  0.00     0.000 HD 
BRANCH   4   6
HETATM    6  C   UNL     1     -11.179  11.942  67.947  1.00  0.00    -0.263 C  
BRANCH   6   7
HETATM    7  C   UNL     1     -11.748  11.428  69.284  1.00  0.00    -0.337 C  
HETATM    8  O   UNL     1     -11.820  12.531  70.203  1.00  0.00    -0.448 OA 
HETATM    9  H   UNL     1     -12.170  12.214  71.027  1.00  0.00     0.000 HD 
BRANCH   7  10
HETATM   10  C   UNL     1     -10.878  10.323  69.891  1.00  0.00    -0.302 C  
BRANCH  10  11
HETATM   11  O   UNL     1     -11.732   9.445  70.645  1.00  0.00    -0.268 OA 
BRANCH  11  12
HETATM   12  C   UNL     1     -11.288   8.158  70.792  1.00  0.00    -0.270 A  
HETATM   13  C   UNL     1     -11.433   7.379  71.940  1.00  0.00    -0.300 A  
HETATM   14  C   UNL     1     -10.898   6.089  71.989  1.00  0.00    -0.300 A  
HETATM   15  C   UNL     1     -10.231   5.543  70.885  1.00  0.00    -0.293 A  
HETATM   16  C   UNL     1     -10.111   6.320  69.726  1.00  0.00    -0.217 A  
HETATM   17  C   UNL     1     -10.638   7.616  69.681  1.00  0.00    -0.243 A  
BRANCH  15  18
HETATM   18  C   UNL     1      -9.625   4.162  70.962  1.00  0.00    -0.253 C  
BRANCH  18  19
HETATM   19  C   UNL     1      -8.096   4.183  70.932  1.00  0.00    -0.070 C  
BRANCH  19  20
HETATM   20  O   UNL     1      -7.599   4.816  72.114  1.00  0.00    -0.080 OA 
BRANCH  20  21
HETATM   21  C   UNL     1      -6.508   5.681  71.797  1.00  0.00    -0.049 C  
BRANCH  21  22
HETATM   22  C   UNL     1      -6.666   6.964  72.547  1.00  0.00    -0.062 C  
HETATM   23  C   UNL     1      -7.724   7.949  72.114  1.00  0.00    -0.119 C  
HETATM   24  C   UNL     1      -7.875   7.212  73.415  1.00  0.00    -0.112 C  
ENDBRANCH  21  22
ENDBRANCH  20  21
ENDBRANCH  19  20
ENDBRANCH  18  19
ENDBRANCH  15  18
ENDBRANCH  11  12
ENDBRANCH  10  11
ENDBRANCH   7  10
ENDBRANCH   6   7
ENDBRANCH   4   6
ENDBRANCH   2   4
TORSDOF 11
ENDMDL
MODEL      221
REMARK 921   NORMALIZED FREE ENERGY PREDICTED BY IDOCK:   -3.31 KCAL/MOL
REMARK 922        TOTAL FREE ENERGY PREDICTED BY IDOCK:   -6.77 KCAL/MOL
REMARK 923 INTER-LIGAND FREE ENERGY PREDICTED BY IDOCK:   -4.53 KCAL/MOL
REMARK 924 INTRA-LIGAND FREE ENERGY PREDICTED BY IDOCK:   -2.24 KCAL/MOL
REMARK 927      BINDING AFFINITY PREDICTED BY RF-SCORE:    0.00 PKD
ROOT
HETATM    1  C   UNL     1     -10.478   5.485  68.117  1.00  0.00    -0.231 C  
HETATM    2  C   UNL     1     -10.703   6.249  66.811  1.00  0.00    -0.293 C  
HETATM    3  C   UNL     1     -10.702   7.756  67.090  1.00  0.00    -0.337 C  
ENDROOT
BRANCH   2   4
HETATM    4  N   UNL     1      -9.677   5.975  65.796  1.00  0.00    -0.370 NA 
HETATM    5  H   UNL     1      -9.360   6.847  65.372  1.00  0.00     0.000 HD 
BRANCH   4   6
HETATM    6  C   UNL     1      -8.526   5.195  66.269  1.00  0.00    -0.114 C  
BRANCH   6   7
HETATM    7  C   UNL     1      -7.131   5.811  66.041  1.00  0.00    -0.071 C  
HETATM    8  O   UNL     1      -6.255   4.783  65.549  1.00  0.00    -0.032 OA 
HETATM    9  H   UNL     1      -5.396   5.163  65.408  1.00  0.00     0.000 HD 
BRANCH   7  10
HETATM   10  C   UNL     1      -6.546   6.399  67.328  1.00  0.00    -0.058 C  
BRANCH  10  11
HETATM   11  O   UNL     1      -7.404   7.469  67.761  1.00  0.00    -0.096 OA 
BRANCH  11  12
HETATM   12  C   UNL     1      -7.635   7.542  69.110  1.00  0.00    -0.100 A  
HETATM   13  C   UNL     1      -7.471   6.494  70.014  1.00  0.00    -0.094 A  
HETATM   14  C   UNL     1      -7.781   6.674  71.365  1.00  0.00    -0.094 A  
HETATM   15  C   UNL     1      -8.235   7.910  71.841  1.00  0.00    -0.142 A  
HETATM   16  C   UNL     1      -8.373   8.966  70.933  1.00  0.00    -0.219 A  
HETATM   17  C   UNL     1      -8.072   8.782  69.579  1.00  0.00    -0.105 A  
BRANCH  15  18
HETATM   18  C   UNL     1      -8.602   8.083  73.296  1.00  0.00    -0.297 C  
BRANCH  18  19
HETATM   19  C   UNL     1      -9.304   6.856  73.881  1.00  0.00    -0.210 C  
BRANCH  19  20
HETATM   20  O   UNL     1     -10.719   6.993  73.731  1.00  0.00    -0.360 OA 
BRANCH  20  21
HETATM   21  C   UNL     1     -11.196   6.151  72.681  1.00  0.00    -0.274 C  
BRANCH  21  22
HETATM   22  C   UNL     1     -12.147   6.924  71.827  1.00  0.00    -0.385 C  
HETATM   23  C   UNL     1     -12.126   8.432  71.874  1.00  0.00    -0.398 C  
HETATM   24  C   UNL     1     -11.659   7.714  70.638  1.00  0.00    -0.251 C  
ENDBRANCH  21  22
ENDBRANCH  20  21
ENDBRANCH  19  20
ENDBRANCH  18  19
ENDBRANCH  15  18
ENDBRANCH  11  12
ENDBRANCH  10  11
ENDBRANCH   7  10
ENDBRANCH   6   7
ENDBRANCH   4   6
ENDBRANCH   2   4
TORSDOF 11
ENDMDL
MODEL      222
REMARK 921   NORMALIZED FREE ENERGY PREDICTED BY IDOCK:   -3.28 KCAL/MOL
REMARK 922        TOTAL FREE ENERGY PREDICTED BY IDOCK:   -6.73 KCAL/MOL
REMARK 923 INTER-LIGAND FREE ENERGY PREDICTED BY IDOCK:   -5.25 KCAL/MOL
REMARK 924 INTRA-LIGAND FREE ENERGY PREDICTED BY IDOCK:   -1.48 KCAL/MOL
REMARK 927      BINDING AFFINITY PREDICTED BY RF-SCORE:    0.00 PKD
ROOT
HETATM    1  C   UNL     1     -11.341   7.773  70.389  1.00  0.00    -0.219 C  
HETATM    2  C   UNL     1     -11.429   6.356  69.821  1.00  0.00    -0.399 C  
HETATM    3  C   UNL     1     -11.157   6.388  68.313  1.00  0.00    -0.359 C  
ENDROOT
BRANCH   2   4
HETATM    4  N   UNL     1     -10.471   5.426  70.434  1.00  0.00    -0.280 NA 
HETATM    5  H   UNL     1     -10.239   4.677  69.781  1.00  0.00     0.000 HD 
BRANCH   4   6
HETATM    6  C   UNL     1      -9.243   6.047  70.948  1.00  0.00    -0.154 C  
BRANCH   6   7
HETATM    7  C   UNL     1      -7.954   5.808  70.137  1.00  0.00    -0.100 C  
HETATM    8  O   UNL     1      -6.840   5.802  71.044  1.00  0.00    -0.057 OA 
HETATM    9  H   UNL     1      -6.045   5.655  70.544  1.00  0.00     0.000 HD 
BRANCH   7  10
HETATM   10  C   UNL     1      -7.735   6.891  69.076  1.00  0.00    -0.110 C  
BRANCH  10  11
HETATM   11  O   UNL     1      -8.259   8.130  69.586  1.00  0.00    -0.116 OA 
BRANCH  11  12
HETATM   12  C   UNL     1      -8.576   9.076  68.648  1.00  0.00    -0.129 A  
HETATM   13  C   UNL     1      -8.976  10.384  68.924  1.00  0.00    -0.170 A  
HETATM   14  C   UNL     1      -9.318  11.251  67.882  1.00  0.00    -0.161 A  
HETATM   15  C   UNL     1      -9.240  10.837  66.547  1.00  0.00    -0.187 A  
HETATM   16  C   UNL     1      -8.812   9.532  66.274  1.00  0.00    -0.172 A  
HETATM   17  C   UNL     1      -8.481   8.661  67.319  1.00  0.00    -0.115 A  
BRANCH  15  18
HETATM   18  C   UNL     1      -9.647  11.770  65.431  1.00  0.00    -0.210 C  
BRANCH  18  19
HETATM   19  C   UNL     1     -11.025  11.442  64.855  1.00  0.00    -0.216 C  
BRANCH  19  20
HETATM   20  O   UNL     1     -12.042  11.985  65.700  1.00  0.00    -0.508 OA 
BRANCH  20  21
HETATM   21  C   UNL     1     -12.397  13.301  65.275  1.00  0.00    -0.476 C  
BRANCH  21  22
HETATM   22  C   UNL     1     -12.400  14.214  66.458  1.00  0.00    -0.405 C  
HETATM   23  C   UNL     1     -12.002  13.673  67.810  1.00  0.00    -0.387 C  
HETATM   24  C   UNL     1     -11.109  14.655  67.103  1.00  0.00    -0.328 C  
ENDBRANCH  21  22
ENDBRANCH  20  21
ENDBRANCH  19  20
ENDBRANCH  18  19
ENDBRANCH  15  18
ENDBRANCH  11  12
ENDBRANCH  10  11
ENDBRANCH   7  10
ENDBRANCH   6   7
ENDBRANCH   4   6
ENDBRANCH   2   4
TORSDOF 11
ENDMDL
MODEL      223
REMARK 921   NORMALIZED FREE ENERGY PREDICTED BY IDOCK:   -3.28 KCAL/MOL
REMARK 922        TOTAL FREE ENERGY PREDICTED BY IDOCK:   -6.72 KCAL/MOL
REMARK 923 INTER-LIGAND FREE ENERGY PREDICTED BY IDOCK:   -5.77 KCAL/MOL
REMARK 924 INTRA-LIGAND FREE ENERGY PREDICTED BY IDOCK:   -0.95 KCAL/MOL
REMARK 927      BINDING AFFINITY PREDICTED BY RF-SCORE:    0.00 PKD
ROOT
HETATM    1  C   UNL     1      -8.362   3.839  66.105  1.00  0.00    -0.109 C  
HETATM    2  C   UNL     1      -7.545   4.602  65.062  1.00  0.00    -0.077 C  
HETATM    3  C   UNL     1      -8.307   4.634  63.733  1.00  0.00    -0.117 C  
ENDROOT
BRANCH   2   4
HETATM    4  N   UNL     1      -7.258   5.989  65.452  1.00  0.00    -0.072 NA 
HETATM    5  H   UNL     1      -6.296   6.230  65.213  1.00  0.00     0.000 HD 
BRANCH   4   6
HETATM    6  C   UNL     1      -8.182   6.993  64.907  1.00  0.00    -0.074 C  
BRANCH   6   7
HETATM    7  C   UNL     1      -8.746   8.027  65.901  1.00  0.00    -0.157 C  
HETATM    8  O   UNL     1     -10.147   7.768  66.082  1.00  0.00    -0.461 OA 
HETATM    9  H   UNL     1     -10.495   8.406  66.695  1.00  0.00     0.000 HD 
BRANCH   7  10
HETATM   10  C   UNL     1      -8.559   9.463  65.402  1.00  0.00    -0.156 C  
BRANCH  10  11
HETATM   11  O   UNL     1      -9.659   9.781  64.532  1.00  0.00    -0.273 OA 
BRANCH  11  12
HETATM   12  C   UNL     1     -10.178  11.042  64.661  1.00  0.00    -0.330 A  
HETATM   13  C   UNL     1      -9.838  11.957  65.658  1.00  0.00    -0.266 A  
HETATM   14  C   UNL     1     -10.469  13.204  65.715  1.00  0.00    -0.291 A  
HETATM   15  C   UNL     1     -11.429  13.569  64.764  1.00  0.00    -0.365 A  
HETATM   16  C   UNL     1     -11.747  12.657  63.750  1.00  0.00    -0.566 A  
HETATM   17  C   UNL     1     -11.123  11.405  63.700  1.00  0.00    -0.411 A  
BRANCH  15  18
HETATM   18  C   UNL     1     -12.130  14.903  64.856  1.00  0.00    -0.275 C  
BRANCH  18  19
HETATM   19  C   UNL     1     -11.324  16.042  64.229  1.00  0.00    -0.137 C  
BRANCH  19  20
HETATM   20  O   UNL     1     -11.113  17.073  65.198  1.00  0.00    -0.404 OA 
BRANCH  20  21
HETATM   21  C   UNL     1      -9.992  16.760  66.026  1.00  0.00    -0.313 C  
BRANCH  21  22
HETATM   22  C   UNL     1     -10.317  17.110  67.441  1.00  0.00    -0.333 C  
HETATM   23  C   UNL     1     -11.167  16.169  68.260  1.00  0.00    -0.343 C  
HETATM   24  C   UNL     1      -9.710  16.344  68.590  1.00  0.00    -0.239 C  
ENDBRANCH  21  22
ENDBRANCH  20  21
ENDBRANCH  19  20
ENDBRANCH  18  19
ENDBRANCH  15  18
ENDBRANCH  11  12
ENDBRANCH  10  11
ENDBRANCH   7  10
ENDBRANCH   6   7
ENDBRANCH   4   6
ENDBRANCH   2   4
TORSDOF 11
ENDMDL
MODEL      224
REMARK 921   NORMALIZED FREE ENERGY PREDICTED BY IDOCK:   -3.25 KCAL/MOL
REMARK 922        TOTAL FREE ENERGY PREDICTED BY IDOCK:   -6.68 KCAL/MOL
REMARK 923 INTER-LIGAND FREE ENERGY PREDICTED BY IDOCK:   -5.06 KCAL/MOL
REMARK 924 INTRA-LIGAND FREE ENERGY PREDICTED BY IDOCK:   -1.62 KCAL/MOL
REMARK 927      BINDING AFFINITY PREDICTED BY RF-SCORE:    0.00 PKD
ROOT
HETATM    1  C   UNL     1      -8.136   5.010  68.871  1.00  0.00    -0.084 C  
HETATM    2  C   UNL     1      -9.623   4.722  68.660  1.00  0.00    -0.160 C  
HETATM    3  C   UNL     1     -10.422   5.223  69.868  1.00  0.00    -0.351 C  
ENDROOT
BRANCH   2   4
HETATM    4  N   UNL     1     -10.172   5.362  67.457  1.00  0.00    -0.192 NA 
HETATM    5  H   UNL     1     -10.694   4.682  66.904  1.00  0.00     0.000 HD 
BRANCH   4   6
HETATM    6  C   UNL     1     -10.996   6.551  67.706  1.00  0.00    -0.316 C  
BRANCH   6   7
HETATM    7  C   UNL     1     -10.570   7.851  66.996  1.00  0.00    -0.311 C  
HETATM    8  O   UNL     1      -9.672   7.512  65.927  1.00  0.00    -0.417 OA 
HETATM    9  H   UNL     1      -9.409   8.313  65.489  1.00  0.00     0.000 HD 
BRANCH   7  10
HETATM   10  C   UNL     1      -9.871   8.824  67.951  1.00  0.00    -0.169 C  
BRANCH  10  11
HETATM   11  O   UNL     1     -10.754   9.075  69.059  1.00  0.00    -0.215 OA 
BRANCH  11  12
HETATM   12  C   UNL     1     -10.256   8.779  70.300  1.00  0.00    -0.196 A  
HETATM   13  C   UNL     1     -11.016   8.394  71.404  1.00  0.00    -0.311 A  
HETATM   14  C   UNL     1     -10.399   8.159  72.636  1.00  0.00    -0.398 A  
HETATM   15  C   UNL     1      -9.012   8.277  72.782  1.00  0.00    -0.323 A  
HETATM   16  C   UNL     1      -8.251   8.637  71.663  1.00  0.00    -0.199 A  
HETATM   17  C   UNL     1      -8.870   8.883  70.432  1.00  0.00    -0.204 A  
BRANCH  15  18
HETATM   18  C   UNL     1      -8.361   8.056  74.126  1.00  0.00    -0.311 C  
BRANCH  18  19
HETATM   19  C   UNL     1      -8.269   6.577  74.505  1.00  0.00    -0.132 C  
BRANCH  19  20
HETATM   20  O   UNL     1      -7.485   5.879  73.535  1.00  0.00    -0.092 OA 
BRANCH  20  21
HETATM   21  C   UNL     1      -8.166   4.704  73.092  1.00  0.00    -0.100 C  
BRANCH  21  22
HETATM   22  C   UNL     1      -9.482   4.607  73.794  1.00  0.00    -0.131 C  
HETATM   23  C   UNL     1     -10.540   3.676  73.256  1.00  0.00    -0.276 C  
HETATM   24  C   UNL     1      -9.864   3.367  74.562  1.00  0.00    -0.172 C  
ENDBRANCH  21  22
ENDBRANCH  20  21
ENDBRANCH  19  20
ENDBRANCH  18  19
ENDBRANCH  15  18
ENDBRANCH  11  12
ENDBRANCH  10  11
ENDBRANCH   7  10
ENDBRANCH   6   7
ENDBRANCH   4   6
ENDBRANCH   2   4
TORSDOF 11
ENDMDL
MODEL      225
REMARK 921   NORMALIZED FREE ENERGY PREDICTED BY IDOCK:   -3.25 KCAL/MOL
REMARK 922        TOTAL FREE ENERGY PREDICTED BY IDOCK:   -6.68 KCAL/MOL
REMARK 923 INTER-LIGAND FREE ENERGY PREDICTED BY IDOCK:   -5.71 KCAL/MOL
REMARK 924 INTRA-LIGAND FREE ENERGY PREDICTED BY IDOCK:   -0.96 KCAL/MOL
REMARK 927      BINDING AFFINITY PREDICTED BY RF-SCORE:    0.00 PKD
ROOT
HETATM    1  C   UNL     1     -12.302  14.414  64.413  1.00  0.00    -0.428 C  
HETATM    2  C   UNL     1     -12.335  12.965  64.899  1.00  0.00    -0.475 C  
HETATM    3  C   UNL     1     -12.459  12.021  63.698  1.00  0.00    -0.637 C  
ENDROOT
BRANCH   2   4
HETATM    4  N   UNL     1     -11.136  12.580  65.655  1.00  0.00    -0.292 NA 
HETATM    5  H   UNL     1     -10.340  13.150  65.367  1.00  0.00     0.000 HD 
BRANCH   4   6
HETATM    6  C   UNL     1     -11.282  12.617  67.116  1.00  0.00    -0.300 C  
BRANCH   6   7
HETATM    7  C   UNL     1     -11.004  11.304  67.873  1.00  0.00    -0.248 C  
HETATM    8  O   UNL     1     -12.261  10.730  68.267  1.00  0.00    -0.815 OA 
HETATM    9  H   UNL     1     -12.090   9.921  68.734  1.00  0.00     0.000 HD 
BRANCH   7  10
HETATM   10  C   UNL     1     -10.141  11.531  69.119  1.00  0.00     0.031 C  
BRANCH  10  11
HETATM   11  O   UNL     1      -8.883  10.862  68.920  1.00  0.00    -0.163 OA 
BRANCH  11  12
HETATM   12  C   UNL     1      -8.816   9.569  69.366  1.00  0.00    -0.170 A  
HETATM   13  C   UNL     1      -9.117   9.145  70.661  1.00  0.00    -0.307 A  
HETATM   14  C   UNL     1      -8.969   7.801  71.015  1.00  0.00    -0.147 A  
HETATM   15  C   UNL     1      -8.544   6.852  70.077  1.00  0.00    -0.141 A  
HETATM   16  C   UNL     1      -8.269   7.279  68.772  1.00  0.00    -0.129 A  
HETATM   17  C   UNL     1      -8.407   8.627  68.421  1.00  0.00    -0.127 A  
BRANCH  15  18
HETATM   18  C   UNL     1      -8.353   5.409  70.480  1.00  0.00    -0.111 C  
BRANCH  18  19
HETATM   19  C   UNL     1      -9.552   4.530  70.123  1.00  0.00    -0.194 C  
BRANCH  19  20
HETATM   20  O   UNL     1      -9.953   3.773  71.268  1.00  0.00    -0.175 OA 
BRANCH  20  21
HETATM   21  C   UNL     1      -9.169   4.134  72.406  1.00  0.00    -0.116 C  
BRANCH  21  22
HETATM   22  C   UNL     1     -10.079   4.558  73.513  1.00  0.00    -0.200 C  
HETATM   23  C   UNL     1     -10.679   5.943  73.488  1.00  0.00    -0.284 C  
HETATM   24  C   UNL     1     -11.558   4.742  73.276  1.00  0.00    -0.286 C  
ENDBRANCH  21  22
ENDBRANCH  20  21
ENDBRANCH  19  20
ENDBRANCH  18  19
ENDBRANCH  15  18
ENDBRANCH  11  12
ENDBRANCH  10  11
ENDBRANCH   7  10
ENDBRANCH   6   7
ENDBRANCH   4   6
ENDBRANCH   2   4
TORSDOF 11
ENDMDL
MODEL      226
REMARK 921   NORMALIZED FREE ENERGY PREDICTED BY IDOCK:   -3.25 KCAL/MOL
REMARK 922        TOTAL FREE ENERGY PREDICTED BY IDOCK:   -6.67 KCAL/MOL
REMARK 923 INTER-LIGAND FREE ENERGY PREDICTED BY IDOCK:   -5.55 KCAL/MOL
REMARK 924 INTRA-LIGAND FREE ENERGY PREDICTED BY IDOCK:   -1.12 KCAL/MOL
REMARK 927      BINDING AFFINITY PREDICTED BY RF-SCORE:    0.00 PKD
ROOT
HETATM    1  C   UNL     1     -10.162   7.482  72.132  1.00  0.00    -0.238 C  
HETATM    2  C   UNL     1      -9.258   7.439  70.899  1.00  0.00    -0.154 C  
HETATM    3  C   UNL     1      -7.789   7.481  71.337  1.00  0.00    -0.093 C  
ENDROOT
BRANCH   2   4
HETATM    4  N   UNL     1      -9.451   6.235  70.080  1.00  0.00    -0.159 NA 
HETATM    5  H   UNL     1     -10.320   5.769  70.340  1.00  0.00     0.000 HD 
BRANCH   4   6
HETATM    6  C   UNL     1      -9.410   6.457  68.629  1.00  0.00    -0.124 C  
BRANCH   6   7
HETATM    7  C   UNL     1     -10.736   6.854  67.951  1.00  0.00    -0.232 C  
HETATM    8  O   UNL     1     -11.108   5.813  67.033  1.00  0.00    -0.496 OA 
HETATM    9  H   UNL     1     -11.925   6.058  66.615  1.00  0.00     0.000 HD 
BRANCH   7  10
HETATM   10  C   UNL     1     -10.617   8.178  67.190  1.00  0.00    -0.285 C  
BRANCH  10  11
HETATM   11  O   UNL     1      -9.746   9.047  67.936  1.00  0.00    -0.147 OA 
BRANCH  11  12
HETATM   12  C   UNL     1     -10.317  10.195  68.418  1.00  0.00    -0.183 A  
HETATM   13  C   UNL     1     -11.195  10.268  69.499  1.00  0.00    -0.314 A  
HETATM   14  C   UNL     1     -11.750  11.495  69.874  1.00  0.00    -0.420 A  
HETATM   15  C   UNL     1     -11.418  12.673  69.194  1.00  0.00    -0.359 A  
HETATM   16  C   UNL     1     -10.515  12.598  68.127  1.00  0.00    -0.239 A  
HETATM   17  C   UNL     1      -9.968  11.368  67.745  1.00  0.00    -0.192 A  
BRANCH  15  18
HETATM   18  C   UNL     1     -12.052  13.988  69.585  1.00  0.00    -0.408 C  
BRANCH  18  19
HETATM   19  C   UNL     1     -12.014  15.022  68.459  1.00  0.00    -0.225 C  
BRANCH  19  20
HETATM   20  O   UNL     1     -11.677  16.305  68.994  1.00  0.00    -0.299 OA 
BRANCH  20  21
HETATM   21  C   UNL     1     -10.589  16.879  68.271  1.00  0.00    -0.363 C  
BRANCH  21  22
HETATM   22  C   UNL     1      -9.348  16.785  69.098  1.00  0.00    -0.155 C  
HETATM   23  C   UNL     1      -8.376  15.658  68.849  1.00  0.00    -0.210 C  
HETATM   24  C   UNL     1      -7.992  17.069  68.500  1.00  0.00    -0.249 C  
ENDBRANCH  21  22
ENDBRANCH  20  21
ENDBRANCH  19  20
ENDBRANCH  18  19
ENDBRANCH  15  18
ENDBRANCH  11  12
ENDBRANCH  10  11
ENDBRANCH   7  10
ENDBRANCH   6   7
ENDBRANCH   4   6
ENDBRANCH   2   4
TORSDOF 11
ENDMDL
MODEL      227
REMARK 921   NORMALIZED FREE ENERGY PREDICTED BY IDOCK:   -3.25 KCAL/MOL
REMARK 922        TOTAL FREE ENERGY PREDICTED BY IDOCK:   -6.67 KCAL/MOL
REMARK 923 INTER-LIGAND FREE ENERGY PREDICTED BY IDOCK:   -5.70 KCAL/MOL
REMARK 924 INTRA-LIGAND FREE ENERGY PREDICTED BY IDOCK:   -0.96 KCAL/MOL
REMARK 927      BINDING AFFINITY PREDICTED BY RF-SCORE:    0.00 PKD
ROOT
HETATM    1  C   UNL     1     -12.843  14.440  71.942  1.00  0.00    -0.426 C  
HETATM    2  C   UNL     1     -12.071  14.151  70.654  1.00  0.00    -0.351 C  
HETATM    3  C   UNL     1     -12.059  12.642  70.388  1.00  0.00    -0.381 C  
ENDROOT
BRANCH   2   4
HETATM    4  N   UNL     1     -12.644  14.814  69.475  1.00  0.00    -0.578 NA 
HETATM    5  H   UNL     1     -13.471  15.350  69.739  1.00  0.00     0.000 HD 
BRANCH   4   6
HETATM    6  C   UNL     1     -11.710  15.662  68.722  1.00  0.00    -0.370 C  
BRANCH   6   7
HETATM    7  C   UNL     1     -10.219  15.549  69.093  1.00  0.00    -0.240 C  
HETATM    8  O   UNL     1      -9.665  16.873  69.158  1.00  0.00    -0.245 OA 
HETATM    9  H   UNL     1      -8.745  16.804  69.387  1.00  0.00     0.000 HD 
BRANCH   7  10
HETATM   10  C   UNL     1      -9.433  14.723  68.070  1.00  0.00    -0.204 C  
BRANCH  10  11
HETATM   11  O   UNL     1     -10.372  13.943  67.309  1.00  0.00    -0.254 OA 
BRANCH  11  12
HETATM   12  C   UNL     1     -10.123  12.597  67.251  1.00  0.00    -0.214 A  
HETATM   13  C   UNL     1      -8.858  12.013  67.185  1.00  0.00    -0.188 A  
HETATM   14  C   UNL     1      -8.728  10.625  67.084  1.00  0.00    -0.130 A  
HETATM   15  C   UNL     1      -9.855   9.795  67.074  1.00  0.00    -0.245 A  
HETATM   16  C   UNL     1     -11.121  10.385  67.168  1.00  0.00    -0.195 A  
HETATM   17  C   UNL     1     -11.251  11.776  67.258  1.00  0.00    -0.364 A  
BRANCH  15  18
HETATM   18  C   UNL     1      -9.704   8.299  66.929  1.00  0.00    -0.291 C  
BRANCH  18  19
HETATM   19  C   UNL     1     -10.430   7.519  68.026  1.00  0.00    -0.197 C  
BRANCH  19  20
HETATM   20  O   UNL     1      -9.903   6.192  68.103  1.00  0.00    -0.124 OA 
BRANCH  20  21
HETATM   21  C   UNL     1     -10.080   5.658  69.416  1.00  0.00    -0.223 C  
BRANCH  21  22
HETATM   22  C   UNL     1      -9.063   4.590  69.651  1.00  0.00    -0.166 C  
HETATM   23  C   UNL     1      -9.393   3.162  69.291  1.00  0.00    -0.223 C  
HETATM   24  C   UNL     1      -8.362   3.916  68.497  1.00  0.00    -0.094 C  
ENDBRANCH  21  22
ENDBRANCH  20  21
ENDBRANCH  19  20
ENDBRANCH  18  19
ENDBRANCH  15  18
ENDBRANCH  11  12
ENDBRANCH  10  11
ENDBRANCH   7  10
ENDBRANCH   6   7
ENDBRANCH   4   6
ENDBRANCH   2   4
TORSDOF 11
ENDMDL
MODEL      228
REMARK 921   NORMALIZED FREE ENERGY PREDICTED BY IDOCK:   -3.24 KCAL/MOL
REMARK 922        TOTAL FREE ENERGY PREDICTED BY IDOCK:   -6.66 KCAL/MOL
REMARK 923 INTER-LIGAND FREE ENERGY PREDICTED BY IDOCK:   -5.81 KCAL/MOL
REMARK 924 INTRA-LIGAND FREE ENERGY PREDICTED BY IDOCK:   -0.86 KCAL/MOL
REMARK 927      BINDING AFFINITY PREDICTED BY RF-SCORE:    0.00 PKD
ROOT
HETATM    1  C   UNL     1     -12.315  13.423  65.622  1.00  0.00    -0.521 C  
HETATM    2  C   UNL     1     -11.378  14.338  64.832  1.00  0.00    -0.372 C  
HETATM    3  C   UNL     1     -10.492  15.128  65.801  1.00  0.00    -0.355 C  
ENDROOT
BRANCH   2   4
HETATM    4  N   UNL     1     -10.500  13.609  63.908  1.00  0.00    -0.511 NA 
HETATM    5  H   UNL     1      -9.530  13.675  64.218  1.00  0.00     0.000 HD 
BRANCH   4   6
HETATM    6  C   UNL     1     -10.864  12.204  63.680  1.00  0.00    -0.464 C  
BRANCH   6   7
HETATM    7  C   UNL     1      -9.703  11.208  63.499  1.00  0.00    -0.334 C  
HETATM    8  O   UNL     1     -10.095  10.223  62.529  1.00  0.00    -0.687 OA 
HETATM    9  H   UNL     1      -9.379   9.609  62.417  1.00  0.00     0.000 HD 
BRANCH   7  10
HETATM   10  C   UNL     1      -9.338  10.506  64.811  1.00  0.00    -0.238 C  
BRANCH  10  11
HETATM   11  O   UNL     1      -9.856  11.293  65.898  1.00  0.00    -0.214 OA 
BRANCH  11  12
HETATM   12  C   UNL     1      -9.998  10.641  67.094  1.00  0.00    -0.195 A  
HETATM   13  C   UNL     1     -11.015  10.868  68.021  1.00  0.00    -0.317 A  
HETATM   14  C   UNL     1     -11.033  10.169  69.232  1.00  0.00    -0.279 A  
HETATM   15  C   UNL     1     -10.053   9.214  69.527  1.00  0.00    -0.202 A  
HETATM   16  C   UNL     1      -9.049   8.971  68.581  1.00  0.00    -0.137 A  
HETATM   17  C   UNL     1      -9.026   9.679  67.374  1.00  0.00    -0.141 A  
BRANCH  15  18
HETATM   18  C   UNL     1     -10.062   8.492  70.854  1.00  0.00    -0.246 C  
BRANCH  18  19
HETATM   19  C   UNL     1      -8.705   8.530  71.558  1.00  0.00    -0.189 C  
BRANCH  19  20
HETATM   20  O   UNL     1      -8.412   7.242  72.108  1.00  0.00    -0.105 OA 
BRANCH  20  21
HETATM   21  C   UNL     1      -7.947   7.366  73.453  1.00  0.00    -0.110 C  
BRANCH  21  22
HETATM   22  C   UNL     1      -7.236   6.111  73.842  1.00  0.00    -0.087 C  
HETATM   23  C   UNL     1      -5.975   5.719  73.112  1.00  0.00    -0.041 C  
HETATM   24  C   UNL     1      -5.903   6.160  74.547  1.00  0.00    -0.063 C  
ENDBRANCH  21  22
ENDBRANCH  20  21
ENDBRANCH  19  20
ENDBRANCH  18  19
ENDBRANCH  15  18
ENDBRANCH  11  12
ENDBRANCH  10  11
ENDBRANCH   7  10
ENDBRANCH   6   7
ENDBRANCH   4   6
ENDBRANCH   2   4
TORSDOF 11
ENDMDL
MODEL      229
REMARK 921   NORMALIZED FREE ENERGY PREDICTED BY IDOCK:   -3.24 KCAL/MOL
REMARK 922        TOTAL FREE ENERGY PREDICTED BY IDOCK:   -6.66 KCAL/MOL
REMARK 923 INTER-LIGAND FREE ENERGY PREDICTED BY IDOCK:   -5.81 KCAL/MOL
REMARK 924 INTRA-LIGAND FREE ENERGY PREDICTED BY IDOCK:   -0.85 KCAL/MOL
REMARK 927      BINDING AFFINITY PREDICTED BY RF-SCORE:    0.00 PKD
ROOT
HETATM    1  C   UNL     1      -9.094   3.602  72.261  1.00  0.00    -0.149 C  
HETATM    2  C   UNL     1     -10.485   4.130  72.612  1.00  0.00    -0.155 C  
HETATM    3  C   UNL     1     -10.612   4.276  74.132  1.00  0.00    -0.323 C  
ENDROOT
BRANCH   2   4
HETATM    4  N   UNL     1     -10.778   5.437  72.006  1.00  0.00    -0.228 NA 
HETATM    5  H   UNL     1     -10.735   5.370  70.989  1.00  0.00     0.000 HD 
BRANCH   4   6
HETATM    6  C   UNL     1     -12.048   6.045  72.421  1.00  0.00    -0.115 C  
BRANCH   6   7
HETATM    7  C   UNL     1     -12.489   7.313  71.666  1.00  0.00    -0.359 C  
HETATM    8  O   UNL     1     -13.773   7.067  71.071  1.00  0.00    -0.448 OA 
HETATM    9  H   UNL     1     -14.045   7.849  70.605  1.00  0.00     0.000 HD 
BRANCH   7  10
HETATM   10  C   UNL     1     -11.493   7.704  70.569  1.00  0.00    -0.218 C  
BRANCH  10  11
HETATM   11  O   UNL     1     -10.565   8.652  71.125  1.00  0.00    -0.205 OA 
BRANCH  11  12
HETATM   12  C   UNL     1     -10.212   9.693  70.307  1.00  0.00    -0.277 A  
HETATM   13  C   UNL     1      -8.927   9.939  69.823  1.00  0.00    -0.242 A  
HETATM   14  C   UNL     1      -8.677  11.061  69.028  1.00  0.00    -0.072 A  
HETATM   15  C   UNL     1      -9.708  11.942  68.680  1.00  0.00    -0.116 A  
HETATM   16  C   UNL     1     -11.001  11.675  69.147  1.00  0.00    -0.270 A  
HETATM   17  C   UNL     1     -11.249  10.557  69.952  1.00  0.00    -0.374 A  
BRANCH  15  18
HETATM   18  C   UNL     1      -9.419  13.171  67.851  1.00  0.00    -0.218 C  
BRANCH  18  19
HETATM   19  C   UNL     1     -10.168  14.410  68.346  1.00  0.00    -0.243 C  
BRANCH  19  20
HETATM   20  O   UNL     1      -9.743  14.733  69.672  1.00  0.00    -0.038 OA 
BRANCH  20  21
HETATM   21  C   UNL     1     -10.582  15.742  70.235  1.00  0.00    -0.284 C  
BRANCH  21  22
HETATM   22  C   UNL     1     -11.507  15.112  71.225  1.00  0.00    -0.395 C  
HETATM   23  C   UNL     1     -12.307  15.992  72.154  1.00  0.00    -0.557 C  
HETATM   24  C   UNL     1     -13.004  15.221  71.068  1.00  0.00    -0.526 C  
ENDBRANCH  21  22
ENDBRANCH  20  21
ENDBRANCH  19  20
ENDBRANCH  18  19
ENDBRANCH  15  18
ENDBRANCH  11  12
ENDBRANCH  10  11
ENDBRANCH   7  10
ENDBRANCH   6   7
ENDBRANCH   4   6
ENDBRANCH   2   4
TORSDOF 11
ENDMDL
MODEL      230
REMARK 921   NORMALIZED FREE ENERGY PREDICTED BY IDOCK:   -3.24 KCAL/MOL
REMARK 922        TOTAL FREE ENERGY PREDICTED BY IDOCK:   -6.66 KCAL/MOL
REMARK 923 INTER-LIGAND FREE ENERGY PREDICTED BY IDOCK:   -5.45 KCAL/MOL
REMARK 924 INTRA-LIGAND FREE ENERGY PREDICTED BY IDOCK:   -1.21 KCAL/MOL
REMARK 927      BINDING AFFINITY PREDICTED BY RF-SCORE:    0.00 PKD
ROOT
HETATM    1  C   UNL     1      -7.136   6.189  67.976  1.00  0.00    -0.078 C  
HETATM    2  C   UNL     1      -7.435   4.935  67.155  1.00  0.00    -0.086 C  
HETATM    3  C   UNL     1      -7.510   3.717  68.082  1.00  0.00    -0.061 C  
ENDROOT
BRANCH   2   4
HETATM    4  N   UNL     1      -8.701   5.017  66.413  1.00  0.00    -0.114 NA 
HETATM    5  H   UNL     1      -8.730   4.302  65.686  1.00  0.00     0.000 HD 
BRANCH   4   6
HETATM    6  C   UNL     1      -9.913   4.948  67.240  1.00  0.00    -0.184 C  
BRANCH   6   7
HETATM    7  C   UNL     1     -10.811   6.199  67.258  1.00  0.00    -0.352 C  
HETATM    8  O   UNL     1     -10.344   7.110  66.249  1.00  0.00    -0.461 OA 
HETATM    9  H   UNL     1     -10.899   7.882  66.260  1.00  0.00     0.000 HD 
BRANCH   7  10
HETATM   10  C   UNL     1     -10.791   6.901  68.619  1.00  0.00    -0.187 C  
BRANCH  10  11
HETATM   11  O   UNL     1     -10.019   8.108  68.488  1.00  0.00    -0.178 OA 
BRANCH  11  12
HETATM   12  C   UNL     1     -10.640   9.262  68.889  1.00  0.00    -0.199 A  
HETATM   13  C   UNL     1     -11.063  10.287  68.043  1.00  0.00    -0.336 A  
HETATM   14  C   UNL     1     -11.648  11.441  68.573  1.00  0.00    -0.384 A  
HETATM   15  C   UNL     1     -11.845  11.581  69.952  1.00  0.00    -0.430 A  
HETATM   16  C   UNL     1     -11.442  10.537  70.794  1.00  0.00    -0.376 A  
HETATM   17  C   UNL     1     -10.847   9.386  70.264  1.00  0.00    -0.303 A  
BRANCH  15  18
HETATM   18  C   UNL     1     -12.444  12.847  70.516  1.00  0.00    -0.294 C  
BRANCH  18  19
HETATM   19  C   UNL     1     -12.210  14.064  69.620  1.00  0.00    -0.332 C  
BRANCH  19  20
HETATM   20  O   UNL     1     -10.956  14.669  69.946  1.00  0.00    -0.236 OA 
BRANCH  20  21
HETATM   21  C   UNL     1     -10.427  15.365  68.818  1.00  0.00    -0.231 C  
BRANCH  21  22
HETATM   22  C   UNL     1      -9.865  14.375  67.851  1.00  0.00    -0.224 C  
HETATM   23  C   UNL     1      -8.519  14.638  67.221  1.00  0.00    -0.234 C  
HETATM   24  C   UNL     1      -8.676  13.521  68.215  1.00  0.00    -0.172 C  
ENDBRANCH  21  22
ENDBRANCH  20  21
ENDBRANCH  19  20
ENDBRANCH  18  19
ENDBRANCH  15  18
ENDBRANCH  11  12
ENDBRANCH  10  11
ENDBRANCH   7  10
ENDBRANCH   6   7
ENDBRANCH   4   6
ENDBRANCH   2   4
TORSDOF 11
ENDMDL
MODEL      231
REMARK 921   NORMALIZED FREE ENERGY PREDICTED BY IDOCK:   -3.24 KCAL/MOL
REMARK 922        TOTAL FREE ENERGY PREDICTED BY IDOCK:   -6.66 KCAL/MOL
REMARK 923 INTER-LIGAND FREE ENERGY PREDICTED BY IDOCK:   -5.70 KCAL/MOL
REMARK 924 INTRA-LIGAND FREE ENERGY PREDICTED BY IDOCK:   -0.95 KCAL/MOL
REMARK 927      BINDING AFFINITY PREDICTED BY RF-SCORE:    0.00 PKD
ROOT
HETATM    1  C   UNL     1      -9.094   9.027  65.511  1.00  0.00    -0.271 C  
HETATM    2  C   UNL     1      -8.433  10.364  65.175  1.00  0.00    -0.173 C  
HETATM    3  C   UNL     1      -7.421  10.167  64.040  1.00  0.00    -0.117 C  
ENDROOT
BRANCH   2   4
HETATM    4  N   UNL     1      -9.392  11.394  64.752  1.00  0.00    -0.378 NA 
HETATM    5  H   UNL     1      -9.237  11.638  63.774  1.00  0.00     0.000 HD 
BRANCH   4   6
HETATM    6  C   UNL     1     -10.804  11.057  64.973  1.00  0.00    -0.123 C  
BRANCH   6   7
HETATM    7  C   UNL     1     -11.847  11.973  64.304  1.00  0.00    -0.346 C  
HETATM    8  O   UNL     1     -11.229  12.625  63.183  1.00  0.00    -0.727 OA 
HETATM    9  H   UNL     1     -11.872  13.190  62.771  1.00  0.00     0.000 HD 
BRANCH   7  10
HETATM   10  C   UNL     1     -12.383  13.034  65.271  1.00  0.00    -0.486 C  
BRANCH  10  11
HETATM   11  O   UNL     1     -11.483  13.114  66.391  1.00  0.00    -0.308 OA 
BRANCH  11  12
HETATM   12  C   UNL     1     -10.787  14.287  66.516  1.00  0.00    -0.304 A  
HETATM   13  C   UNL     1     -10.209  14.761  67.694  1.00  0.00    -0.232 A  
HETATM   14  C   UNL     1      -9.558  15.997  67.711  1.00  0.00    -0.219 A  
HETATM   15  C   UNL     1      -9.448  16.770  66.549  1.00  0.00    -0.287 A  
HETATM   16  C   UNL     1     -10.007  16.277  65.363  1.00  0.00    -0.097 A  
HETATM   17  C   UNL     1     -10.668  15.043  65.349  1.00  0.00    -0.389 A  
BRANCH  15  18
HETATM   18  C   UNL     1      -8.774  18.121  66.588  1.00  0.00    -0.279 C  
BRANCH  18  19
HETATM   19  C   UNL     1      -7.357  18.061  67.161  1.00  0.00    -0.195 C  
BRANCH  19  20
HETATM   20  O   UNL     1      -7.251  18.947  68.278  1.00  0.00    -0.254 OA 
BRANCH  20  21
HETATM   21  C   UNL     1      -6.709  18.264  69.409  1.00  0.00    -0.168 C  
BRANCH  21  22
HETATM   22  C   UNL     1      -6.548  16.817  69.076  1.00  0.00    -0.205 C  
HETATM   23  C   UNL     1      -5.203  16.160  69.265  1.00  0.00    -0.111 C  
HETATM   24  C   UNL     1      -6.351  15.787  70.160  1.00  0.00    -0.037 C  
ENDBRANCH  21  22
ENDBRANCH  20  21
ENDBRANCH  19  20
ENDBRANCH  18  19
ENDBRANCH  15  18
ENDBRANCH  11  12
ENDBRANCH  10  11
ENDBRANCH   7  10
ENDBRANCH   6   7
ENDBRANCH   4   6
ENDBRANCH   2   4
TORSDOF 11
ENDMDL
MODEL      232
REMARK 921   NORMALIZED FREE ENERGY PREDICTED BY IDOCK:   -3.24 KCAL/MOL
REMARK 922        TOTAL FREE ENERGY PREDICTED BY IDOCK:   -6.66 KCAL/MOL
REMARK 923 INTER-LIGAND FREE ENERGY PREDICTED BY IDOCK:   -5.56 KCAL/MOL
REMARK 924 INTRA-LIGAND FREE ENERGY PREDICTED BY IDOCK:   -1.09 KCAL/MOL
REMARK 927      BINDING AFFINITY PREDICTED BY RF-SCORE:    0.00 PKD
ROOT
HETATM    1  C   UNL     1     -11.147  12.431  64.222  1.00  0.00    -0.399 C  
HETATM    2  C   UNL     1     -11.171  13.347  65.446  1.00  0.00    -0.288 C  
HETATM    3  C   UNL     1     -12.501  14.107  65.495  1.00  0.00    -0.495 C  
ENDROOT
BRANCH   2   4
HETATM    4  N   UNL     1     -11.017  12.622  66.714  1.00  0.00    -0.254 NA 
HETATM    5  H   UNL     1     -11.931  12.440  67.129  1.00  0.00     0.000 HD 
BRANCH   4   6
HETATM    6  C   UNL     1     -10.242  11.378  66.630  1.00  0.00    -0.222 C  
BRANCH   6   7
HETATM    7  C   UNL     1     -10.975  10.078  67.016  1.00  0.00    -0.049 C  
HETATM    8  O   UNL     1     -11.656  10.292  68.263  1.00  0.00    -0.611 OA 
HETATM    9  H   UNL     1     -12.108   9.491  68.501  1.00  0.00     0.000 HD 
BRANCH   7  10
HETATM   10  C   UNL     1     -10.010   8.898  67.166  1.00  0.00    -0.226 C  
BRANCH  10  11
HETATM   11  O   UNL     1      -9.589   8.835  68.540  1.00  0.00    -0.147 OA 
BRANCH  11  12
HETATM   12  C   UNL     1      -9.511   7.581  69.085  1.00  0.00    -0.150 A  
HETATM   13  C   UNL     1      -8.387   7.041  69.709  1.00  0.00    -0.132 A  
HETATM   14  C   UNL     1      -8.412   5.729  70.191  1.00  0.00    -0.121 A  
HETATM   15  C   UNL     1      -9.565   4.943  70.082  1.00  0.00    -0.263 A  
HETATM   16  C   UNL     1     -10.699   5.500  69.479  1.00  0.00    -0.332 A  
HETATM   17  C   UNL     1     -10.671   6.810  68.987  1.00  0.00    -0.280 A  
BRANCH  15  18
HETATM   18  C   UNL     1      -9.568   3.514  70.574  1.00  0.00    -0.246 C  
BRANCH  18  19
HETATM   19  C   UNL     1      -9.402   3.408  72.090  1.00  0.00    -0.119 C  
BRANCH  19  20
HETATM   20  O   UNL     1     -10.687   3.426  72.718  1.00  0.00    -0.134 OA 
BRANCH  20  21
HETATM   21  C   UNL     1     -10.716   4.389  73.772  1.00  0.00    -0.271 C  
BRANCH  21  22
HETATM   22  C   UNL     1     -10.165   5.683  73.269  1.00  0.00    -0.217 C  
HETATM   23  C   UNL     1     -11.115   6.783  72.863  1.00  0.00    -0.277 C  
HETATM   24  C   UNL     1     -10.264   6.943  74.092  1.00  0.00    -0.331 C  
ENDBRANCH  21  22
ENDBRANCH  20  21
ENDBRANCH  19  20
ENDBRANCH  18  19
ENDBRANCH  15  18
ENDBRANCH  11  12
ENDBRANCH  10  11
ENDBRANCH   7  10
ENDBRANCH   6   7
ENDBRANCH   4   6
ENDBRANCH   2   4
TORSDOF 11
ENDMDL
MODEL      233
REMARK 921   NORMALIZED FREE ENERGY PREDICTED BY IDOCK:   -3.24 KCAL/MOL
REMARK 922        TOTAL FREE ENERGY PREDICTED BY IDOCK:   -6.65 KCAL/MOL
REMARK 923 INTER-LIGAND FREE ENERGY PREDICTED BY IDOCK:   -5.71 KCAL/MOL
REMARK 924 INTRA-LIGAND FREE ENERGY PREDICTED BY IDOCK:   -0.94 KCAL/MOL
REMARK 927      BINDING AFFINITY PREDICTED BY RF-SCORE:    0.00 PKD
ROOT
HETATM    1  C   UNL     1      -7.743  15.047  67.378  1.00  0.00    -0.227 C  
HETATM    2  C   UNL     1      -8.612  16.303  67.465  1.00  0.00    -0.177 C  
HETATM    3  C   UNL     1      -8.193  17.295  66.375  1.00  0.00    -0.317 C  
ENDROOT
BRANCH   2   4
HETATM    4  N   UNL     1     -10.045  16.027  67.299  1.00  0.00    -0.260 NA 
HETATM    5  H   UNL     1     -10.352  16.307  66.367  1.00  0.00     0.000 HD 
BRANCH   4   6
HETATM    6  C   UNL     1     -10.448  14.641  67.569  1.00  0.00    -0.247 C  
BRANCH   6   7
HETATM    7  C   UNL     1     -11.276  13.935  66.478  1.00  0.00    -0.321 C  
HETATM    8  O   UNL     1     -12.654  14.308  66.639  1.00  0.00    -0.555 OA 
HETATM    9  H   UNL     1     -13.165  13.873  65.967  1.00  0.00     0.000 HD 
BRANCH   7  10
HETATM   10  C   UNL     1     -11.154  12.410  66.561  1.00  0.00    -0.301 C  
BRANCH  10  11
HETATM   11  O   UNL     1     -11.686  11.987  67.829  1.00  0.00    -0.402 OA 
BRANCH  11  12
HETATM   12  C   UNL     1     -11.095  10.885  68.387  1.00  0.00    -0.262 A  
HETATM   13  C   UNL     1     -10.957  10.648  69.755  1.00  0.00    -0.340 A  
HETATM   14  C   UNL     1     -10.295   9.504  70.209  1.00  0.00    -0.321 A  
HETATM   15  C   UNL     1      -9.782   8.564  69.308  1.00  0.00    -0.173 A  
HETATM   16  C   UNL     1      -9.947   8.793  67.936  1.00  0.00    -0.231 A  
HETATM   17  C   UNL     1     -10.601   9.944  67.482  1.00  0.00    -0.333 A  
BRANCH  15  18
HETATM   18  C   UNL     1      -9.036   7.350  69.809  1.00  0.00    -0.141 C  
BRANCH  18  19
HETATM   19  C   UNL     1      -9.953   6.153  70.063  1.00  0.00    -0.173 C  
BRANCH  19  20
HETATM   20  O   UNL     1     -10.194   6.020  71.466  1.00  0.00    -0.195 OA 
BRANCH  20  21
HETATM   21  C   UNL     1      -8.961   6.014  72.187  1.00  0.00    -0.142 C  
BRANCH  21  22
HETATM   22  C   UNL     1      -9.093   6.893  73.389  1.00  0.00    -0.161 C  
HETATM   23  C   UNL     1     -10.195   7.923  73.435  1.00  0.00    -0.214 C  
HETATM   24  C   UNL     1     -10.246   6.730  74.348  1.00  0.00    -0.220 C  
ENDBRANCH  21  22
ENDBRANCH  20  21
ENDBRANCH  19  20
ENDBRANCH  18  19
ENDBRANCH  15  18
ENDBRANCH  11  12
ENDBRANCH  10  11
ENDBRANCH   7  10
ENDBRANCH   6   7
ENDBRANCH   4   6
ENDBRANCH   2   4
TORSDOF 11
ENDMDL
MODEL      234
REMARK 921   NORMALIZED FREE ENERGY PREDICTED BY IDOCK:   -3.23 KCAL/MOL
REMARK 922        TOTAL FREE ENERGY PREDICTED BY IDOCK:   -6.64 KCAL/MOL
REMARK 923 INTER-LIGAND FREE ENERGY PREDICTED BY IDOCK:   -4.49 KCAL/MOL
REMARK 924 INTRA-LIGAND FREE ENERGY PREDICTED BY IDOCK:   -2.15 KCAL/MOL
REMARK 927      BINDING AFFINITY PREDICTED BY RF-SCORE:    0.00 PKD
ROOT
HETATM    1  C   UNL     1      -9.649   7.033  69.663  1.00  0.00    -0.150 C  
HETATM    2  C   UNL     1     -10.836   7.590  68.877  1.00  0.00    -0.037 C  
HETATM    3  C   UNL     1     -10.545   9.035  68.460  1.00  0.00    -0.196 C  
ENDROOT
BRANCH   2   4
HETATM    4  N   UNL     1     -11.138   6.820  67.662  1.00  0.00    -0.547 NA 
HETATM    5  H   UNL     1     -10.735   7.279  66.845  1.00  0.00     0.000 HD 
BRANCH   4   6
HETATM    6  C   UNL     1     -10.733   5.409  67.702  1.00  0.00    -0.042 C  
BRANCH   6   7
HETATM    7  C   UNL     1      -9.995   4.865  66.463  1.00  0.00    -0.232 C  
HETATM    8  O   UNL     1      -9.801   3.452  66.633  1.00  0.00    -0.411 OA 
HETATM    9  H   UNL     1      -9.346   3.116  65.869  1.00  0.00     0.000 HD 
BRANCH   7  10
HETATM   10  C   UNL     1      -8.634   5.540  66.263  1.00  0.00    -0.125 C  
BRANCH  10  11
HETATM   11  O   UNL     1      -8.813   6.649  65.364  1.00  0.00    -0.060 OA 
BRANCH  11  12
HETATM   12  C   UNL     1      -8.314   7.852  65.791  1.00  0.00    -0.136 A  
HETATM   13  C   UNL     1      -7.332   8.017  66.768  1.00  0.00    -0.089 A  
HETATM   14  C   UNL     1      -6.932   9.299  67.154  1.00  0.00    -0.085 A  
HETATM   15  C   UNL     1      -7.485  10.437  66.555  1.00  0.00    -0.119 A  
HETATM   16  C   UNL     1      -8.452  10.265  65.557  1.00  0.00    -0.167 A  
HETATM   17  C   UNL     1      -8.859   8.981  65.178  1.00  0.00    -0.224 A  
BRANCH  15  18
HETATM   18  C   UNL     1      -7.072  11.818  67.006  1.00  0.00    -0.132 C  
BRANCH  18  19
HETATM   19  C   UNL     1      -8.127  12.498  67.880  1.00  0.00    -0.163 C  
BRANCH  19  20
HETATM   20  O   UNL     1      -8.381  13.817  67.391  1.00  0.00    -0.174 OA 
BRANCH  20  21
HETATM   21  C   UNL     1      -9.487  13.813  66.489  1.00  0.00    -0.269 C  
BRANCH  21  22
HETATM   22  C   UNL     1     -10.585  12.980  67.064  1.00  0.00    -0.262 C  
HETATM   23  C   UNL     1     -12.019  13.413  66.876  1.00  0.00    -0.437 C  
HETATM   24  C   UNL     1     -11.508  12.187  66.173  1.00  0.00    -0.429 C  
ENDBRANCH  21  22
ENDBRANCH  20  21
ENDBRANCH  19  20
ENDBRANCH  18  19
ENDBRANCH  15  18
ENDBRANCH  11  12
ENDBRANCH  10  11
ENDBRANCH   7  10
ENDBRANCH   6   7
ENDBRANCH   4   6
ENDBRANCH   2   4
TORSDOF 11
ENDMDL
MODEL      235
REMARK 921   NORMALIZED FREE ENERGY PREDICTED BY IDOCK:   -3.22 KCAL/MOL
REMARK 922        TOTAL FREE ENERGY PREDICTED BY IDOCK:   -6.62 KCAL/MOL
REMARK 923 INTER-LIGAND FREE ENERGY PREDICTED BY IDOCK:   -5.58 KCAL/MOL
REMARK 924 INTRA-LIGAND FREE ENERGY PREDICTED BY IDOCK:   -1.05 KCAL/MOL
REMARK 927      BINDING AFFINITY PREDICTED BY RF-SCORE:    0.00 PKD
ROOT
HETATM    1  C   UNL     1     -11.512  14.170  64.954  1.00  0.00    -0.366 C  
HETATM    2  C   UNL     1     -11.941  12.704  65.011  1.00  0.00    -0.419 C  
HETATM    3  C   UNL     1     -11.687  12.039  63.654  1.00  0.00    -0.587 C  
ENDROOT
BRANCH   2   4
HETATM    4  N   UNL     1     -11.226  11.931  66.035  1.00  0.00    -0.329 NA 
HETATM    5  H   UNL     1     -10.226  12.130  65.992  1.00  0.00     0.000 HD 
BRANCH   4   6
HETATM    6  C   UNL     1     -11.718  12.109  67.407  1.00  0.00    -0.304 C  
BRANCH   6   7
HETATM    7  C   UNL     1     -11.116  11.186  68.485  1.00  0.00    -0.244 C  
HETATM    8  O   UNL     1     -10.412  11.998  69.438  1.00  0.00    -0.433 OA 
HETATM    9  H   UNL     1     -10.041  11.430  70.103  1.00  0.00     0.000 HD 
BRANCH   7  10
HETATM   10  C   UNL     1     -10.150  10.159  67.886  1.00  0.00    -0.176 C  
BRANCH  10  11
HETATM   11  O   UNL     1     -10.901   9.288  67.023  1.00  0.00    -0.186 OA 
BRANCH  11  12
HETATM   12  C   UNL     1     -10.526   7.971  67.029  1.00  0.00    -0.340 A  
HETATM   13  C   UNL     1     -11.189   6.947  67.706  1.00  0.00    -0.124 A  
HETATM   14  C   UNL     1     -10.687   5.642  67.676  1.00  0.00    -0.260 A  
HETATM   15  C   UNL     1      -9.531   5.332  66.949  1.00  0.00    -0.138 A  
HETATM   16  C   UNL     1      -8.885   6.359  66.251  1.00  0.00    -0.152 A  
HETATM   17  C   UNL     1      -9.382   7.667  66.290  1.00  0.00    -0.189 A  
BRANCH  15  18
HETATM   18  C   UNL     1      -8.977   3.927  66.954  1.00  0.00    -0.147 C  
BRANCH  18  19
HETATM   19  C   UNL     1      -9.382   3.134  68.197  1.00  0.00    -0.191 C  
BRANCH  19  20
HETATM   20  O   UNL     1      -8.623   3.582  69.323  1.00  0.00    -0.063 OA 
BRANCH  20  21
HETATM   21  C   UNL     1      -9.324   3.314  70.538  1.00  0.00    -0.158 C  
BRANCH  21  22
HETATM   22  C   UNL     1      -9.358   4.556  71.367  1.00  0.00    -0.206 C  
HETATM   23  C   UNL     1     -10.504   5.524  71.205  1.00  0.00    -0.304 C  
HETATM   24  C   UNL     1     -10.371   4.726  72.472  1.00  0.00    -0.259 C  
ENDBRANCH  21  22
ENDBRANCH  20  21
ENDBRANCH  19  20
ENDBRANCH  18  19
ENDBRANCH  15  18
ENDBRANCH  11  12
ENDBRANCH  10  11
ENDBRANCH   7  10
ENDBRANCH   6   7
ENDBRANCH   4   6
ENDBRANCH   2   4
TORSDOF 11
ENDMDL
MODEL      236
REMARK 921   NORMALIZED FREE ENERGY PREDICTED BY IDOCK:   -3.22 KCAL/MOL
REMARK 922        TOTAL FREE ENERGY PREDICTED BY IDOCK:   -6.62 KCAL/MOL
REMARK 923 INTER-LIGAND FREE ENERGY PREDICTED BY IDOCK:   -5.75 KCAL/MOL
REMARK 924 INTRA-LIGAND FREE ENERGY PREDICTED BY IDOCK:   -0.88 KCAL/MOL
REMARK 927      BINDING AFFINITY PREDICTED BY RF-SCORE:    0.00 PKD
ROOT
HETATM    1  C   UNL     1      -8.519   7.635  74.118  1.00  0.00    -0.290 C  
HETATM    2  C   UNL     1      -7.236   8.001  73.370  1.00  0.00    -0.129 C  
HETATM    3  C   UNL     1      -6.040   7.303  74.026  1.00  0.00    -0.072 C  
ENDROOT
BRANCH   2   4
HETATM    4  N   UNL     1      -7.263   7.615  71.953  1.00  0.00    -0.063 NA 
HETATM    5  H   UNL     1      -7.515   6.631  71.860  1.00  0.00     0.000 HD 
BRANCH   4   6
HETATM    6  C   UNL     1      -8.127   8.441  71.099  1.00  0.00    -0.125 C  
BRANCH   6   7
HETATM    7  C   UNL     1      -9.299   7.725  70.401  1.00  0.00    -0.160 C  
HETATM    8  O   UNL     1      -8.776   6.610  69.662  1.00  0.00    -0.137 OA 
HETATM    9  H   UNL     1      -9.499   6.168  69.231  1.00  0.00     0.000 HD 
BRANCH   7  10
HETATM   10  C   UNL     1     -10.052   8.655  69.445  1.00  0.00    -0.204 C  
BRANCH  10  11
HETATM   11  O   UNL     1      -9.584   9.997  69.664  1.00  0.00    -0.214 OA 
BRANCH  11  12
HETATM   12  C   UNL     1     -10.129  10.961  68.857  1.00  0.00    -0.198 A  
HETATM   13  C   UNL     1     -11.470  11.034  68.481  1.00  0.00    -0.379 A  
HETATM   14  C   UNL     1     -11.905  12.041  67.615  1.00  0.00    -0.294 A  
HETATM   15  C   UNL     1     -11.015  13.008  67.131  1.00  0.00    -0.293 A  
HETATM   16  C   UNL     1      -9.675  12.945  67.533  1.00  0.00    -0.205 A  
HETATM   17  C   UNL     1      -9.239  11.930  68.392  1.00  0.00    -0.173 A  
BRANCH  15  18
HETATM   18  C   UNL     1     -11.488  14.070  66.166  1.00  0.00    -0.350 C  
BRANCH  18  19
HETATM   19  C   UNL     1     -12.451  13.526  65.110  1.00  0.00    -0.451 C  
BRANCH  19  20
HETATM   20  O   UNL     1     -11.783  13.438  63.849  1.00  0.00    -0.416 OA 
BRANCH  20  21
HETATM   21  C   UNL     1     -10.512  12.805  63.998  1.00  0.00    -0.406 C  
BRANCH  21  22
HETATM   22  C   UNL     1     -10.694  11.323  63.942  1.00  0.00    -0.451 C  
HETATM   23  C   UNL     1      -9.530  10.449  63.546  1.00  0.00    -0.356 C  
HETATM   24  C   UNL     1     -10.041  10.421  64.959  1.00  0.00    -0.379 C  
ENDBRANCH  21  22
ENDBRANCH  20  21
ENDBRANCH  19  20
ENDBRANCH  18  19
ENDBRANCH  15  18
ENDBRANCH  11  12
ENDBRANCH  10  11
ENDBRANCH   7  10
ENDBRANCH   6   7
ENDBRANCH   4   6
ENDBRANCH   2   4
TORSDOF 11
ENDMDL
MODEL      237
REMARK 921   NORMALIZED FREE ENERGY PREDICTED BY IDOCK:   -3.22 KCAL/MOL
REMARK 922        TOTAL FREE ENERGY PREDICTED BY IDOCK:   -6.62 KCAL/MOL
REMARK 923 INTER-LIGAND FREE ENERGY PREDICTED BY IDOCK:   -5.72 KCAL/MOL
REMARK 924 INTRA-LIGAND FREE ENERGY PREDICTED BY IDOCK:   -0.90 KCAL/MOL
REMARK 927      BINDING AFFINITY PREDICTED BY RF-SCORE:    0.00 PKD
ROOT
HETATM    1  C   UNL     1      -8.960   7.472  74.070  1.00  0.00    -0.292 C  
HETATM    2  C   UNL     1      -7.936   8.326  73.321  1.00  0.00    -0.149 C  
HETATM    3  C   UNL     1      -6.542   8.100  73.916  1.00  0.00    -0.138 C  
ENDROOT
BRANCH   2   4
HETATM    4  N   UNL     1      -7.869   8.023  71.885  1.00  0.00    -0.097 NA 
HETATM    5  H   UNL     1      -8.191   7.070  71.711  1.00  0.00     0.000 HD 
BRANCH   4   6
HETATM    6  C   UNL     1      -8.585   8.965  71.015  1.00  0.00    -0.206 C  
BRANCH   6   7
HETATM    7  C   UNL     1      -9.995   8.548  70.554  1.00  0.00    -0.188 C  
HETATM    8  O   UNL     1      -9.954   7.168  70.155  1.00  0.00    -0.185 OA 
HETATM    9  H   UNL     1     -10.823   6.911  69.871  1.00  0.00     0.000 HD 
BRANCH   7  10
HETATM   10  C   UNL     1     -10.489   9.398  69.379  1.00  0.00    -0.220 C  
BRANCH  10  11
HETATM   11  O   UNL     1      -9.638  10.552  69.273  1.00  0.00    -0.208 OA 
BRANCH  11  12
HETATM   12  C   UNL     1     -10.167  11.626  68.606  1.00  0.00    -0.206 A  
HETATM   13  C   UNL     1     -11.419  12.190  68.849  1.00  0.00    -0.350 A  
HETATM   14  C   UNL     1     -11.872  13.260  68.072  1.00  0.00    -0.392 A  
HETATM   15  C   UNL     1     -11.074  13.802  67.058  1.00  0.00    -0.313 A  
HETATM   16  C   UNL     1      -9.807  13.249  66.836  1.00  0.00    -0.247 A  
HETATM   17  C   UNL     1      -9.358  12.171  67.607  1.00  0.00    -0.187 A  
BRANCH  15  18
HETATM   18  C   UNL     1     -11.588  14.935  66.201  1.00  0.00    -0.228 C  
BRANCH  18  19
HETATM   19  C   UNL     1     -10.622  15.315  65.077  1.00  0.00    -0.418 C  
BRANCH  19  20
HETATM   20  O   UNL     1     -10.353  16.718  65.127  1.00  0.00    -0.639 OA 
BRANCH  20  21
HETATM   21  C   UNL     1     -10.351  17.180  66.478  1.00  0.00    -0.306 C  
BRANCH  21  22
HETATM   22  C   UNL     1      -8.983  17.672  66.825  1.00  0.00    -0.272 C  
HETATM   23  C   UNL     1      -8.063  16.792  67.635  1.00  0.00    -0.188 C  
HETATM   24  C   UNL     1      -7.756  17.068  66.189  1.00  0.00    -0.292 C  
ENDBRANCH  21  22
ENDBRANCH  20  21
ENDBRANCH  19  20
ENDBRANCH  18  19
ENDBRANCH  15  18
ENDBRANCH  11  12
ENDBRANCH  10  11
ENDBRANCH   7  10
ENDBRANCH   6   7
ENDBRANCH   4   6
ENDBRANCH   2   4
TORSDOF 11
ENDMDL
MODEL      238
REMARK 921   NORMALIZED FREE ENERGY PREDICTED BY IDOCK:   -3.20 KCAL/MOL
REMARK 922        TOTAL FREE ENERGY PREDICTED BY IDOCK:   -6.60 KCAL/MOL
REMARK 923 INTER-LIGAND FREE ENERGY PREDICTED BY IDOCK:   -5.57 KCAL/MOL
REMARK 924 INTRA-LIGAND FREE ENERGY PREDICTED BY IDOCK:   -1.03 KCAL/MOL
REMARK 927      BINDING AFFINITY PREDICTED BY RF-SCORE:    0.00 PKD
ROOT
HETATM    1  C   UNL     1      -9.040  16.886  67.284  1.00  0.00    -0.225 C  
HETATM    2  C   UNL     1      -8.635  15.413  67.212  1.00  0.00    -0.195 C  
HETATM    3  C   UNL     1      -8.459  14.857  68.629  1.00  0.00    -0.166 C  
ENDROOT
BRANCH   2   4
HETATM    4  N   UNL     1      -9.622  14.575  66.517  1.00  0.00    -0.280 NA 
HETATM    5  H   UNL     1      -9.628  13.636  66.914  1.00  0.00     0.000 HD 
BRANCH   4   6
HETATM    6  C   UNL     1     -10.985  15.119  66.480  1.00  0.00    -0.318 C  
BRANCH   6   7
HETATM    7  C   UNL     1     -12.043  14.395  67.337  1.00  0.00    -0.313 C  
HETATM    8  O   UNL     1     -12.164  15.087  68.590  1.00  0.00    -0.570 OA 
HETATM    9  H   UNL     1     -12.816  14.641  69.119  1.00  0.00     0.000 HD 
BRANCH   7  10
HETATM   10  C   UNL     1     -11.665  12.934  67.602  1.00  0.00    -0.370 C  
BRANCH  10  11
HETATM   11  O   UNL     1     -11.787  12.209  66.366  1.00  0.00    -0.563 OA 
BRANCH  11  12
HETATM   12  C   UNL     1     -11.026  11.075  66.259  1.00  0.00    -0.117 A  
HETATM   13  C   UNL     1     -10.280  10.706  65.141  1.00  0.00    -0.368 A  
HETATM   14  C   UNL     1      -9.574   9.500  65.131  1.00  0.00    -0.270 A  
HETATM   15  C   UNL     1      -9.580   8.654  66.246  1.00  0.00    -0.322 A  
HETATM   16  C   UNL     1     -10.310   9.042  67.377  1.00  0.00    -0.335 A  
HETATM   17  C   UNL     1     -11.024  10.245  67.381  1.00  0.00    -0.317 A  
BRANCH  15  18
HETATM   18  C   UNL     1      -8.844   7.335  66.212  1.00  0.00    -0.179 C  
BRANCH  18  19
HETATM   19  C   UNL     1      -8.554   6.780  67.607  1.00  0.00    -0.121 C  
BRANCH  19  20
HETATM   20  O   UNL     1      -7.320   6.058  67.592  1.00  0.00    -0.075 OA 
BRANCH  20  21
HETATM   21  C   UNL     1      -7.487   4.770  68.186  1.00  0.00    -0.074 C  
BRANCH  21  22
HETATM   22  C   UNL     1      -8.127   3.853  67.196  1.00  0.00    -0.095 C  
HETATM   23  C   UNL     1      -8.027   2.361  67.396  1.00  0.00    -0.065 C  
HETATM   24  C   UNL     1      -9.352   3.051  67.558  1.00  0.00    -0.229 C  
ENDBRANCH  21  22
ENDBRANCH  20  21
ENDBRANCH  19  20
ENDBRANCH  18  19
ENDBRANCH  15  18
ENDBRANCH  11  12
ENDBRANCH  10  11
ENDBRANCH   7  10
ENDBRANCH   6   7
ENDBRANCH   4   6
ENDBRANCH   2   4
TORSDOF 11
ENDMDL
MODEL      239
REMARK 921   NORMALIZED FREE ENERGY PREDICTED BY IDOCK:   -3.19 KCAL/MOL
REMARK 922        TOTAL FREE ENERGY PREDICTED BY IDOCK:   -6.58 KCAL/MOL
REMARK 923 INTER-LIGAND FREE ENERGY PREDICTED BY IDOCK:   -5.24 KCAL/MOL
REMARK 924 INTRA-LIGAND FREE ENERGY PREDICTED BY IDOCK:   -1.33 KCAL/MOL
REMARK 927      BINDING AFFINITY PREDICTED BY RF-SCORE:    0.00 PKD
ROOT
HETATM    1  C   UNL     1      -9.892   4.677  68.589  1.00  0.00    -0.190 C  
HETATM    2  C   UNL     1      -9.148   5.979  68.889  1.00  0.00    -0.121 C  
HETATM    3  C   UNL     1     -10.121   7.159  68.805  1.00  0.00    -0.175 C  
ENDROOT
BRANCH   2   4
HETATM    4  N   UNL     1      -8.529   5.998  70.221  1.00  0.00    -0.123 NA 
HETATM    5  H   UNL     1      -9.137   6.477  70.886  1.00  0.00     0.000 HD 
BRANCH   4   6
HETATM    6  C   UNL     1      -8.143   4.682  70.747  1.00  0.00    -0.084 C  
BRANCH   6   7
HETATM    7  C   UNL     1      -8.577   4.357  72.189  1.00  0.00    -0.113 C  
HETATM    8  O   UNL     1      -7.880   3.177  72.621  1.00  0.00    -0.060 OA 
HETATM    9  H   UNL     1      -8.147   2.977  73.510  1.00  0.00     0.000 HD 
BRANCH   7  10
HETATM   10  C   UNL     1     -10.086   4.117  72.294  1.00  0.00    -0.178 C  
BRANCH  10  11
HETATM   11  O   UNL     1     -10.617   5.026  73.275  1.00  0.00    -0.191 OA 
BRANCH  11  12
HETATM   12  C   UNL     1     -11.023   6.246  72.801  1.00  0.00    -0.260 A  
HETATM   13  C   UNL     1     -10.277   7.422  72.857  1.00  0.00    -0.310 A  
HETATM   14  C   UNL     1     -10.815   8.621  72.379  1.00  0.00    -0.312 A  
HETATM   15  C   UNL     1     -12.096   8.661  71.816  1.00  0.00    -0.403 A  
HETATM   16  C   UNL     1     -12.830   7.471  71.739  1.00  0.00    -0.359 A  
HETATM   17  C   UNL     1     -12.295   6.274  72.226  1.00  0.00    -0.147 A  
BRANCH  15  18
HETATM   18  C   UNL     1     -12.682   9.968  71.337  1.00  0.00    -0.518 C  
BRANCH  18  19
HETATM   19  C   UNL     1     -11.684  10.809  70.538  1.00  0.00    -0.351 C  
BRANCH  19  20
HETATM   20  O   UNL     1     -11.917  10.633  69.138  1.00  0.00    -0.264 OA 
BRANCH  20  21
HETATM   21  C   UNL     1     -11.900  11.892  68.466  1.00  0.00    -0.297 C  
BRANCH  21  22
HETATM   22  C   UNL     1     -11.118  11.761  67.200  1.00  0.00    -0.350 C  
HETATM   23  C   UNL     1      -9.635  12.036  67.215  1.00  0.00    -0.185 C  
HETATM   24  C   UNL     1     -10.135  10.633  67.007  1.00  0.00    -0.255 C  
ENDBRANCH  21  22
ENDBRANCH  20  21
ENDBRANCH  19  20
ENDBRANCH  18  19
ENDBRANCH  15  18
ENDBRANCH  11  12
ENDBRANCH  10  11
ENDBRANCH   7  10
ENDBRANCH   6   7
ENDBRANCH   4   6
ENDBRANCH   2   4
TORSDOF 11
ENDMDL
MODEL      240
REMARK 921   NORMALIZED FREE ENERGY PREDICTED BY IDOCK:   -3.19 KCAL/MOL
REMARK 922        TOTAL FREE ENERGY PREDICTED BY IDOCK:   -6.57 KCAL/MOL
REMARK 923 INTER-LIGAND FREE ENERGY PREDICTED BY IDOCK:   -5.52 KCAL/MOL
REMARK 924 INTRA-LIGAND FREE ENERGY PREDICTED BY IDOCK:   -1.05 KCAL/MOL
REMARK 927      BINDING AFFINITY PREDICTED BY RF-SCORE:    0.00 PKD
ROOT
HETATM    1  C   UNL     1      -8.369   5.389  64.856  1.00  0.00    -0.142 C  
HETATM    2  C   UNL     1      -8.851   3.993  65.251  1.00  0.00    -0.127 C  
HETATM    3  C   UNL     1      -7.653   3.133  65.666  1.00  0.00    -0.077 C  
ENDROOT
BRANCH   2   4
HETATM    4  N   UNL     1      -9.807   4.005  66.367  1.00  0.00    -0.340 NA 
HETATM    5  H   UNL     1      -9.776   3.117  66.867  1.00  0.00     0.000 HD 
BRANCH   4   6
HETATM    6  C   UNL     1      -9.651   5.122  67.308  1.00  0.00    -0.142 C  
BRANCH   6   7
HETATM    7  C   UNL     1     -10.906   5.971  67.591  1.00  0.00    -0.295 C  
HETATM    8  O   UNL     1     -11.500   6.337  66.335  1.00  0.00    -0.612 OA 
HETATM    9  H   UNL     1     -12.274   6.860  66.509  1.00  0.00     0.000 HD 
BRANCH   7  10
HETATM   10  C   UNL     1     -10.574   7.241  68.380  1.00  0.00    -0.170 C  
BRANCH  10  11
HETATM   11  O   UNL     1      -9.757   8.084  67.548  1.00  0.00    -0.147 OA 
BRANCH  11  12
HETATM   12  C   UNL     1      -9.981   9.431  67.660  1.00  0.00    -0.190 A  
HETATM   13  C   UNL     1     -10.488  10.251  66.651  1.00  0.00    -0.260 A  
HETATM   14  C   UNL     1     -10.633  11.624  66.867  1.00  0.00    -0.276 A  
HETATM   15  C   UNL     1     -10.300  12.199  68.099  1.00  0.00    -0.214 A  
HETATM   16  C   UNL     1      -9.817  11.367  69.117  1.00  0.00     0.033 A  
HETATM   17  C   UNL     1      -9.662   9.993  68.897  1.00  0.00    -0.181 A  
BRANCH  15  18
HETATM   18  C   UNL     1     -10.426  13.689  68.309  1.00  0.00    -0.253 C  
BRANCH  18  19
HETATM   19  C   UNL     1     -11.868  14.186  68.186  1.00  0.00    -0.352 C  
BRANCH  19  20
HETATM   20  O   UNL     1     -12.179  15.039  69.290  1.00  0.00    -0.261 OA 
BRANCH  20  21
HETATM   21  C   UNL     1     -11.939  14.367  70.526  1.00  0.00    -0.325 C  
BRANCH  21  22
HETATM   22  C   UNL     1     -13.102  13.482  70.837  1.00  0.00    -0.145 C  
HETATM   23  C   UNL     1     -12.853  12.098  71.383  1.00  0.00    -0.378 C  
HETATM   24  C   UNL     1     -13.468  13.151  72.262  1.00  0.00    -0.665 C  
ENDBRANCH  21  22
ENDBRANCH  20  21
ENDBRANCH  19  20
ENDBRANCH  18  19
ENDBRANCH  15  18
ENDBRANCH  11  12
ENDBRANCH  10  11
ENDBRANCH   7  10
ENDBRANCH   6   7
ENDBRANCH   4   6
ENDBRANCH   2   4
TORSDOF 11
ENDMDL
MODEL      241
REMARK 921   NORMALIZED FREE ENERGY PREDICTED BY IDOCK:   -3.17 KCAL/MOL
REMARK 922        TOTAL FREE ENERGY PREDICTED BY IDOCK:   -6.54 KCAL/MOL
REMARK 923 INTER-LIGAND FREE ENERGY PREDICTED BY IDOCK:   -5.21 KCAL/MOL
REMARK 924 INTRA-LIGAND FREE ENERGY PREDICTED BY IDOCK:   -1.33 KCAL/MOL
REMARK 927      BINDING AFFINITY PREDICTED BY RF-SCORE:    0.00 PKD
ROOT
HETATM    1  C   UNL     1      -8.794   4.428  67.026  1.00  0.00    -0.116 C  
HETATM    2  C   UNL     1     -10.222   4.963  67.148  1.00  0.00    -0.162 C  
HETATM    3  C   UNL     1     -10.445   5.518  68.559  1.00  0.00    -0.234 C  
ENDROOT
BRANCH   2   4
HETATM    4  N   UNL     1     -10.523   6.033  66.188  1.00  0.00    -0.451 NA 
HETATM    5  H   UNL     1     -11.464   5.914  65.811  1.00  0.00     0.000 HD 
BRANCH   4   6
HETATM    6  C   UNL     1     -10.354   7.398  66.703  1.00  0.00    -0.171 C  
BRANCH   6   7
HETATM    7  C   UNL     1      -9.134   8.187  66.187  1.00  0.00    -0.183 C  
HETATM    8  O   UNL     1      -8.511   7.428  65.139  1.00  0.00    -0.268 OA 
HETATM    9  H   UNL     1      -7.759   7.914  64.821  1.00  0.00     0.000 HD 
BRANCH   7  10
HETATM   10  C   UNL     1      -8.111   8.450  67.296  1.00  0.00    -0.105 C  
BRANCH  10  11
HETATM   11  O   UNL     1      -8.752   9.228  68.322  1.00  0.00    -0.128 OA 
BRANCH  11  12
HETATM   12  C   UNL     1      -8.923  10.559  68.045  1.00  0.00    -0.135 A  
HETATM   13  C   UNL     1      -7.972  11.388  67.452  1.00  0.00    -0.139 A  
HETATM   14  C   UNL     1      -8.244  12.745  67.258  1.00  0.00    -0.181 A  
HETATM   15  C   UNL     1      -9.479  13.292  67.627  1.00  0.00    -0.211 A  
HETATM   16  C   UNL     1     -10.440  12.449  68.198  1.00  0.00    -0.228 A  
HETATM   17  C   UNL     1     -10.163  11.092  68.402  1.00  0.00    -0.200 A  
BRANCH  15  18
HETATM   18  C   UNL     1      -9.748  14.768  67.446  1.00  0.00    -0.214 C  
BRANCH  18  19
HETATM   19  C   UNL     1     -10.559  15.072  66.186  1.00  0.00    -0.310 C  
BRANCH  19  20
HETATM   20  O   UNL     1     -11.955  15.048  66.492  1.00  0.00    -0.158 OA 
BRANCH  20  21
HETATM   21  C   UNL     1     -12.683  14.385  65.459  1.00  0.00    -0.293 C  
BRANCH  21  22
HETATM   22  C   UNL     1     -11.798  13.373  64.808  1.00  0.00    -0.415 C  
HETATM   23  C   UNL     1     -12.342  11.997  64.509  1.00  0.00    -0.300 C  
HETATM   24  C   UNL     1     -12.029  12.941  63.381  1.00  0.00    -0.612 C  
ENDBRANCH  21  22
ENDBRANCH  20  21
ENDBRANCH  19  20
ENDBRANCH  18  19
ENDBRANCH  15  18
ENDBRANCH  11  12
ENDBRANCH  10  11
ENDBRANCH   7  10
ENDBRANCH   6   7
ENDBRANCH   4   6
ENDBRANCH   2   4
TORSDOF 11
ENDMDL
MODEL      242
REMARK 921   NORMALIZED FREE ENERGY PREDICTED BY IDOCK:   -3.17 KCAL/MOL
REMARK 922        TOTAL FREE ENERGY PREDICTED BY IDOCK:   -6.54 KCAL/MOL
REMARK 923 INTER-LIGAND FREE ENERGY PREDICTED BY IDOCK:   -4.99 KCAL/MOL
REMARK 924 INTRA-LIGAND FREE ENERGY PREDICTED BY IDOCK:   -1.55 KCAL/MOL
REMARK 927      BINDING AFFINITY PREDICTED BY RF-SCORE:    0.00 PKD
ROOT
HETATM    1  C   UNL     1      -9.743   9.995  64.841  1.00  0.00    -0.377 C  
HETATM    2  C   UNL     1      -9.902  10.125  66.356  1.00  0.00    -0.222 C  
HETATM    3  C   UNL     1     -10.735  11.370  66.681  1.00  0.00    -0.316 C  
ENDROOT
BRANCH   2   4
HETATM    4  N   UNL     1     -10.562   8.966  66.971  1.00  0.00    -0.265 NA 
HETATM    5  H   UNL     1     -11.547   8.942  66.708  1.00  0.00     0.000 HD 
BRANCH   4   6
HETATM    6  C   UNL     1      -9.931   7.670  66.692  1.00  0.00    -0.214 C  
BRANCH   6   7
HETATM    7  C   UNL     1     -10.811   6.418  66.870  1.00  0.00    -0.357 C  
HETATM    8  O   UNL     1     -11.569   6.562  68.083  1.00  0.00    -0.570 OA 
HETATM    9  H   UNL     1     -12.112   5.791  68.192  1.00  0.00     0.000 HD 
BRANCH   7  10
HETATM   10  C   UNL     1      -9.978   5.135  66.947  1.00  0.00    -0.201 C  
BRANCH  10  11
HETATM   11  O   UNL     1      -8.725   5.453  67.580  1.00  0.00    -0.109 OA 
BRANCH  11  12
HETATM   12  C   UNL     1      -8.601   5.067  68.888  1.00  0.00    -0.086 A  
HETATM   13  C   UNL     1      -9.563   4.370  69.619  1.00  0.00    -0.275 A  
HETATM   14  C   UNL     1      -9.343   4.068  70.965  1.00  0.00    -0.219 A  
HETATM   15  C   UNL     1      -8.149   4.433  71.599  1.00  0.00    -0.096 A  
HETATM   16  C   UNL     1      -7.176   5.109  70.854  1.00  0.00    -0.064 A  
HETATM   17  C   UNL     1      -7.402   5.420  69.508  1.00  0.00    -0.065 A  
BRANCH  15  18
HETATM   18  C   UNL     1      -7.937   4.133  73.064  1.00  0.00    -0.089 C  
BRANCH  18  19
HETATM   19  C   UNL     1      -8.947   4.843  73.967  1.00  0.00    -0.113 C  
BRANCH  19  20
HETATM   20  O   UNL     1      -8.843   6.257  73.789  1.00  0.00    -0.123 OA 
BRANCH  20  21
HETATM   21  C   UNL     1     -10.122   6.876  73.935  1.00  0.00    -0.357 C  
BRANCH  21  22
HETATM   22  C   UNL     1     -10.241   7.991  72.947  1.00  0.00    -0.384 C  
HETATM   23  C   UNL     1      -9.092   8.278  72.012  1.00  0.00    -0.267 C  
HETATM   24  C   UNL     1     -10.374   7.711  71.471  1.00  0.00    -0.223 C  
ENDBRANCH  21  22
ENDBRANCH  20  21
ENDBRANCH  19  20
ENDBRANCH  18  19
ENDBRANCH  15  18
ENDBRANCH  11  12
ENDBRANCH  10  11
ENDBRANCH   7  10
ENDBRANCH   6   7
ENDBRANCH   4   6
ENDBRANCH   2   4
TORSDOF 11
ENDMDL
MODEL      243
REMARK 921   NORMALIZED FREE ENERGY PREDICTED BY IDOCK:   -3.16 KCAL/MOL
REMARK 922        TOTAL FREE ENERGY PREDICTED BY IDOCK:   -6.53 KCAL/MOL
REMARK 923 INTER-LIGAND FREE ENERGY PREDICTED BY IDOCK:   -5.89 KCAL/MOL
REMARK 924 INTRA-LIGAND FREE ENERGY PREDICTED BY IDOCK:   -0.64 KCAL/MOL
REMARK 927      BINDING AFFINITY PREDICTED BY RF-SCORE:    0.00 PKD
ROOT
HETATM    1  C   UNL     1      -9.828   6.902  73.900  1.00  0.00    -0.340 C  
HETATM    2  C   UNL     1      -8.650   7.131  72.951  1.00  0.00    -0.118 C  
HETATM    3  C   UNL     1      -7.355   7.262  73.760  1.00  0.00    -0.104 C  
ENDROOT
BRANCH   2   4
HETATM    4  N   UNL     1      -8.469   6.044  71.980  1.00  0.00    -0.121 NA 
HETATM    5  H   UNL     1      -8.950   5.203  72.299  1.00  0.00     0.000 HD 
BRANCH   4   6
HETATM    6  C   UNL     1      -8.870   6.365  70.604  1.00  0.00    -0.144 C  
BRANCH   6   7
HETATM    7  C   UNL     1     -10.260   5.872  70.155  1.00  0.00    -0.220 C  
HETATM    8  O   UNL     1     -10.112   4.574  69.557  1.00  0.00    -0.205 OA 
HETATM    9  H   UNL     1     -10.969   4.271  69.280  1.00  0.00     0.000 HD 
BRANCH   7  10
HETATM   10  C   UNL     1     -10.906   6.823  69.142  1.00  0.00    -0.258 C  
BRANCH  10  11
HETATM   11  O   UNL     1      -9.928   7.808  68.766  1.00  0.00    -0.166 OA 
BRANCH  11  12
HETATM   12  C   UNL     1     -10.379   9.099  68.685  1.00  0.00    -0.209 A  
HETATM   13  C   UNL     1     -10.803   9.875  69.763  1.00  0.00    -0.300 A  
HETATM   14  C   UNL     1     -11.286  11.169  69.553  1.00  0.00    -0.359 A  
HETATM   15  C   UNL     1     -11.331  11.721  68.267  1.00  0.00    -0.343 A  
HETATM   16  C   UNL     1     -10.879  10.947  67.191  1.00  0.00    -0.337 A  
HETATM   17  C   UNL     1     -10.405   9.647  67.401  1.00  0.00    -0.306 A  
BRANCH  15  18
HETATM   18  C   UNL     1     -11.889  13.107  68.047  1.00  0.00    -0.398 C  
BRANCH  18  19
HETATM   19  C   UNL     1     -11.961  13.490  66.568  1.00  0.00    -0.413 C  
BRANCH  19  20
HETATM   20  O   UNL     1     -11.339  14.762  66.368  1.00  0.00    -0.345 OA 
BRANCH  20  21
HETATM   21  C   UNL     1      -9.919  14.645  66.458  1.00  0.00    -0.281 C  
BRANCH  21  22
HETATM   22  C   UNL     1      -9.287  15.793  65.742  1.00  0.00    -0.298 C  
HETATM   23  C   UNL     1      -9.472  17.192  66.276  1.00  0.00    -0.267 C  
HETATM   24  C   UNL     1      -8.120  16.537  66.343  1.00  0.00    -0.362 C  
ENDBRANCH  21  22
ENDBRANCH  20  21
ENDBRANCH  19  20
ENDBRANCH  18  19
ENDBRANCH  15  18
ENDBRANCH  11  12
ENDBRANCH  10  11
ENDBRANCH   7  10
ENDBRANCH   6   7
ENDBRANCH   4   6
ENDBRANCH   2   4
TORSDOF 11
ENDMDL
MODEL      244
REMARK 921   NORMALIZED FREE ENERGY PREDICTED BY IDOCK:   -3.15 KCAL/MOL
REMARK 922        TOTAL FREE ENERGY PREDICTED BY IDOCK:   -6.50 KCAL/MOL
REMARK 923 INTER-LIGAND FREE ENERGY PREDICTED BY IDOCK:   -5.19 KCAL/MOL
REMARK 924 INTRA-LIGAND FREE ENERGY PREDICTED BY IDOCK:   -1.31 KCAL/MOL
REMARK 927      BINDING AFFINITY PREDICTED BY RF-SCORE:    0.00 PKD
ROOT
HETATM    1  C   UNL     1     -12.906  14.300  71.654  1.00  0.00    -0.424 C  
HETATM    2  C   UNL     1     -12.040  14.136  70.404  1.00  0.00    -0.346 C  
HETATM    3  C   UNL     1     -11.911  12.649  70.058  1.00  0.00    -0.358 C  
ENDROOT
BRANCH   2   4
HETATM    4  N   UNL     1     -12.585  14.828  69.228  1.00  0.00    -0.562 NA 
HETATM    5  H   UNL     1     -13.464  15.288  69.466  1.00  0.00     0.000 HD 
BRANCH   4   6
HETATM    6  C   UNL     1     -11.671  15.783  68.588  1.00  0.00    -0.344 C  
BRANCH   6   7
HETATM    7  C   UNL     1     -10.529  16.339  69.461  1.00  0.00    -0.299 C  
HETATM    8  O   UNL     1     -10.656  17.769  69.520  1.00  0.00    -0.358 OA 
HETATM    9  H   UNL     1      -9.951  18.111  70.058  1.00  0.00     0.000 HD 
BRANCH   7  10
HETATM   10  C   UNL     1      -9.150  15.978  68.899  1.00  0.00    -0.235 C  
BRANCH  10  11
HETATM   11  O   UNL     1      -9.313  14.882  67.982  1.00  0.00    -0.188 OA 
BRANCH  11  12
HETATM   12  C   UNL     1      -8.581  13.757  68.258  1.00  0.00    -0.175 A  
HETATM   13  C   UNL     1      -7.319  13.741  68.850  1.00  0.00    -0.076 A  
HETATM   14  C   UNL     1      -6.646  12.531  69.043  1.00  0.00    -0.100 A  
HETATM   15  C   UNL     1      -7.232  11.315  68.673  1.00  0.00    -0.098 A  
HETATM   16  C   UNL     1      -8.511  11.335  68.103  1.00  0.00    -0.145 A  
HETATM   17  C   UNL     1      -9.179  12.547  67.901  1.00  0.00    -0.200 A  
BRANCH  15  18
HETATM   18  C   UNL     1      -6.482  10.016  68.853  1.00  0.00    -0.048 C  
BRANCH  18  19
HETATM   19  C   UNL     1      -7.224   8.815  68.266  1.00  0.00    -0.082 C  
BRANCH  19  20
HETATM   20  O   UNL     1      -7.712   7.986  69.324  1.00  0.00    -0.098 OA 
BRANCH  20  21
HETATM   21  C   UNL     1      -9.126   8.130  69.461  1.00  0.00    -0.151 C  
BRANCH  21  22
HETATM   22  C   UNL     1      -9.418   8.995  70.643  1.00  0.00    -0.286 C  
HETATM   23  C   UNL     1     -10.323   8.478  71.734  1.00  0.00    -0.354 C  
HETATM   24  C   UNL     1      -8.856   8.667  72.005  1.00  0.00    -0.264 C  
ENDBRANCH  21  22
ENDBRANCH  20  21
ENDBRANCH  19  20
ENDBRANCH  18  19
ENDBRANCH  15  18
ENDBRANCH  11  12
ENDBRANCH  10  11
ENDBRANCH   7  10
ENDBRANCH   6   7
ENDBRANCH   4   6
ENDBRANCH   2   4
TORSDOF 11
ENDMDL
MODEL      245
REMARK 921   NORMALIZED FREE ENERGY PREDICTED BY IDOCK:   -3.14 KCAL/MOL
REMARK 922        TOTAL FREE ENERGY PREDICTED BY IDOCK:   -6.49 KCAL/MOL
REMARK 923 INTER-LIGAND FREE ENERGY PREDICTED BY IDOCK:   -5.05 KCAL/MOL
REMARK 924 INTRA-LIGAND FREE ENERGY PREDICTED BY IDOCK:   -1.44 KCAL/MOL
REMARK 927      BINDING AFFINITY PREDICTED BY RF-SCORE:    0.00 PKD
ROOT
HETATM    1  C   UNL     1     -10.441  15.582  69.949  1.00  0.00    -0.323 C  
HETATM    2  C   UNL     1     -11.633  15.367  69.016  1.00  0.00    -0.347 C  
HETATM    3  C   UNL     1     -11.131  15.058  67.601  1.00  0.00    -0.317 C  
ENDROOT
BRANCH   2   4
HETATM    4  N   UNL     1     -12.507  14.263  69.437  1.00  0.00    -0.520 NA 
HETATM    5  H   UNL     1     -12.422  13.480  68.789  1.00  0.00     0.000 HD 
BRANCH   4   6
HETATM    6  C   UNL     1     -12.306  13.803  70.817  1.00  0.00    -0.379 C  
BRANCH   6   7
HETATM    7  C   UNL     1     -13.109  12.563  71.258  1.00  0.00    -0.132 C  
HETATM    8  O   UNL     1     -13.321  12.638  72.677  1.00  0.00    -0.530 OA 
HETATM    9  H   UNL     1     -13.816  11.874  72.948  1.00  0.00     0.000 HD 
BRANCH   7  10
HETATM   10  C   UNL     1     -12.379  11.258  70.925  1.00  0.00    -0.388 C  
BRANCH  10  11
HETATM   11  O   UNL     1     -12.464  11.047  69.505  1.00  0.00    -0.293 OA 
BRANCH  11  12
HETATM   12  C   UNL     1     -11.276  11.077  68.824  1.00  0.00    -0.266 A  
HETATM   13  C   UNL     1     -10.015  10.892  69.391  1.00  0.00    -0.085 A  
HETATM   14  C   UNL     1      -8.866  10.988  68.601  1.00  0.00    -0.164 A  
HETATM   15  C   UNL     1      -8.956  11.243  67.228  1.00  0.00    -0.149 A  
HETATM   16  C   UNL     1     -10.225  11.401  66.658  1.00  0.00    -0.258 A  
HETATM   17  C   UNL     1     -11.375  11.315  67.452  1.00  0.00    -0.349 A  
BRANCH  15  18
HETATM   18  C   UNL     1      -7.706  11.381  66.391  1.00  0.00    -0.051 C  
BRANCH  18  19
HETATM   19  C   UNL     1      -6.468  10.794  67.071  1.00  0.00    -0.083 C  
BRANCH  19  20
HETATM   20  O   UNL     1      -6.111   9.561  66.441  1.00  0.00    -0.058 OA 
BRANCH  20  21
HETATM   21  C   UNL     1      -6.501   9.568  65.068  1.00  0.00    -0.084 C  
BRANCH  21  22
HETATM   22  C   UNL     1      -7.293   8.336  64.776  1.00  0.00    -0.088 C  
HETATM   23  C   UNL     1      -6.909   7.036  65.439  1.00  0.00    -0.052 C  
HETATM   24  C   UNL     1      -8.190   7.723  65.823  1.00  0.00    -0.132 C  
ENDBRANCH  21  22
ENDBRANCH  20  21
ENDBRANCH  19  20
ENDBRANCH  18  19
ENDBRANCH  15  18
ENDBRANCH  11  12
ENDBRANCH  10  11
ENDBRANCH   7  10
ENDBRANCH   6   7
ENDBRANCH   4   6
ENDBRANCH   2   4
TORSDOF 11
ENDMDL
MODEL      246
REMARK 921   NORMALIZED FREE ENERGY PREDICTED BY IDOCK:   -3.12 KCAL/MOL
REMARK 922        TOTAL FREE ENERGY PREDICTED BY IDOCK:   -6.46 KCAL/MOL
REMARK 923 INTER-LIGAND FREE ENERGY PREDICTED BY IDOCK:   -5.75 KCAL/MOL
REMARK 924 INTRA-LIGAND FREE ENERGY PREDICTED BY IDOCK:   -0.71 KCAL/MOL
REMARK 927      BINDING AFFINITY PREDICTED BY RF-SCORE:    0.00 PKD
ROOT
HETATM    1  C   UNL     1      -8.636   6.193  68.033  1.00  0.00    -0.115 C  
HETATM    2  C   UNL     1      -9.499   6.086  66.775  1.00  0.00    -0.144 C  
HETATM    3  C   UNL     1     -10.962   6.378  67.127  1.00  0.00    -0.476 C  
ENDROOT
BRANCH   2   4
HETATM    4  N   UNL     1      -9.095   7.018  65.714  1.00  0.00    -0.373 NA 
HETATM    5  H   UNL     1      -9.557   7.919  65.842  1.00  0.00     0.000 HD 
BRANCH   4   6
HETATM    6  C   UNL     1      -7.646   7.208  65.571  1.00  0.00    -0.098 C  
BRANCH   6   7
HETATM    7  C   UNL     1      -7.158   8.647  65.314  1.00  0.00    -0.082 C  
HETATM    8  O   UNL     1      -6.002   8.890  66.132  1.00  0.00    -0.053 OA 
HETATM    9  H   UNL     1      -5.701   9.777  65.974  1.00  0.00     0.000 HD 
BRANCH   7  10
HETATM   10  C   UNL     1      -8.235   9.686  65.643  1.00  0.00    -0.120 C  
BRANCH  10  11
HETATM   11  O   UNL     1      -7.577  10.901  66.043  1.00  0.00    -0.148 OA 
BRANCH  11  12
HETATM   12  C   UNL     1      -8.356  11.815  66.702  1.00  0.00    -0.136 A  
HETATM   13  C   UNL     1      -7.883  12.829  67.533  1.00  0.00    -0.171 A  
HETATM   14  C   UNL     1      -8.779  13.678  68.189  1.00  0.00    -0.177 A  
HETATM   15  C   UNL     1     -10.161  13.546  68.007  1.00  0.00    -0.244 A  
HETATM   16  C   UNL     1     -10.629  12.543  67.150  1.00  0.00    -0.247 A  
HETATM   17  C   UNL     1      -9.732  11.687  66.502  1.00  0.00    -0.227 A  
BRANCH  15  18
HETATM   18  C   UNL     1     -11.121  14.445  68.750  1.00  0.00    -0.275 C  
BRANCH  18  19
HETATM   19  C   UNL     1     -12.266  13.675  69.408  1.00  0.00    -0.259 C  
BRANCH  19  20
HETATM   20  O   UNL     1     -12.039  13.584  70.817  1.00  0.00    -0.339 OA 
BRANCH  20  21
HETATM   21  C   UNL     1     -13.213  13.122  71.485  1.00  0.00    -0.282 C  
BRANCH  21  22
HETATM   22  C   UNL     1     -13.629  14.137  72.500  1.00  0.00    -0.644 C  
HETATM   23  C   UNL     1     -12.912  15.463  72.558  1.00  0.00    -0.500 C  
HETATM   24  C   UNL     1     -14.338  15.403  72.088  1.00  0.00    -0.642 C  
ENDBRANCH  21  22
ENDBRANCH  20  21
ENDBRANCH  19  20
ENDBRANCH  18  19
ENDBRANCH  15  18
ENDBRANCH  11  12
ENDBRANCH  10  11
ENDBRANCH   7  10
ENDBRANCH   6   7
ENDBRANCH   4   6
ENDBRANCH   2   4
TORSDOF 11
ENDMDL
MODEL      247
REMARK 921   NORMALIZED FREE ENERGY PREDICTED BY IDOCK:   -3.12 KCAL/MOL
REMARK 922        TOTAL FREE ENERGY PREDICTED BY IDOCK:   -6.46 KCAL/MOL
REMARK 923 INTER-LIGAND FREE ENERGY PREDICTED BY IDOCK:   -6.00 KCAL/MOL
REMARK 924 INTRA-LIGAND FREE ENERGY PREDICTED BY IDOCK:   -0.46 KCAL/MOL
REMARK 927      BINDING AFFINITY PREDICTED BY RF-SCORE:    0.00 PKD
ROOT
HETATM    1  C   UNL     1      -7.615  15.880  67.199  1.00  0.00    -0.255 C  
HETATM    2  C   UNL     1      -7.330  14.385  67.348  1.00  0.00    -0.142 C  
HETATM    3  C   UNL     1      -6.902  14.083  68.788  1.00  0.00    -0.103 C  
ENDROOT
BRANCH   2   4
HETATM    4  N   UNL     1      -8.491  13.541  67.035  1.00  0.00    -0.368 NA 
HETATM    5  H   UNL     1      -8.826  13.076  67.879  1.00  0.00     0.000 HD 
BRANCH   4   6
HETATM    6  C   UNL     1      -9.599  14.231  66.362  1.00  0.00    -0.298 C  
BRANCH   6   7
HETATM    7  C   UNL     1     -10.907  14.385  67.163  1.00  0.00    -0.292 C  
HETATM    8  O   UNL     1     -11.191  15.786  67.304  1.00  0.00    -0.263 OA 
HETATM    9  H   UNL     1     -11.997  15.882  67.798  1.00  0.00     0.000 HD 
BRANCH   7  10
HETATM   10  C   UNL     1     -10.807  13.748  68.552  1.00  0.00    -0.263 C  
BRANCH  10  11
HETATM   11  O   UNL     1     -12.068  13.123  68.849  1.00  0.00    -0.301 OA 
BRANCH  11  12
HETATM   12  C   UNL     1     -12.016  12.036  69.681  1.00  0.00    -0.293 A  
HETATM   13  C   UNL     1     -12.785  11.863  70.832  1.00  0.00    -0.301 A  
HETATM   14  C   UNL     1     -12.613  10.729  71.630  1.00  0.00    -0.456 A  
HETATM   15  C   UNL     1     -11.691   9.735  71.281  1.00  0.00    -0.472 A  
HETATM   16  C   UNL     1     -10.940   9.901  70.110  1.00  0.00    -0.356 A  
HETATM   17  C   UNL     1     -11.106  11.043  69.317  1.00  0.00    -0.312 A  
BRANCH  15  18
HETATM   18  C   UNL     1     -11.488   8.531  72.170  1.00  0.00    -0.446 C  
BRANCH  18  19
HETATM   19  C   UNL     1     -11.006   7.300  71.401  1.00  0.00    -0.232 C  
BRANCH  19  20
HETATM   20  O   UNL     1     -10.983   6.166  72.272  1.00  0.00    -0.234 OA 
BRANCH  20  21
HETATM   21  C   UNL     1      -9.685   6.000  72.843  1.00  0.00    -0.155 C  
BRANCH  21  22
HETATM   22  C   UNL     1      -8.783   7.074  72.329  1.00  0.00    -0.134 C  
HETATM   23  C   UNL     1      -8.086   7.986  73.308  1.00  0.00    -0.240 C  
HETATM   24  C   UNL     1      -7.288   6.989  72.516  1.00  0.00    -0.080 C  
ENDBRANCH  21  22
ENDBRANCH  20  21
ENDBRANCH  19  20
ENDBRANCH  18  19
ENDBRANCH  15  18
ENDBRANCH  11  12
ENDBRANCH  10  11
ENDBRANCH   7  10
ENDBRANCH   6   7
ENDBRANCH   4   6
ENDBRANCH   2   4
TORSDOF 11
ENDMDL
MODEL      248
REMARK 921   NORMALIZED FREE ENERGY PREDICTED BY IDOCK:   -3.12 KCAL/MOL
REMARK 922        TOTAL FREE ENERGY PREDICTED BY IDOCK:   -6.45 KCAL/MOL
REMARK 923 INTER-LIGAND FREE ENERGY PREDICTED BY IDOCK:   -5.63 KCAL/MOL
REMARK 924 INTRA-LIGAND FREE ENERGY PREDICTED BY IDOCK:   -0.82 KCAL/MOL
REMARK 927      BINDING AFFINITY PREDICTED BY RF-SCORE:    0.00 PKD
ROOT
HETATM    1  C   UNL     1      -9.681  14.165  68.033  1.00  0.00    -0.226 C  
HETATM    2  C   UNL     1     -11.204  14.061  67.940  1.00  0.00    -0.273 C  
HETATM    3  C   UNL     1     -11.848  15.206  68.730  1.00  0.00    -0.329 C  
ENDROOT
BRANCH   2   4
HETATM    4  N   UNL     1     -11.705  14.127  66.560  1.00  0.00    -0.379 NA 
HETATM    5  H   UNL     1     -11.250  14.888  66.056  1.00  0.00     0.000 HD 
BRANCH   4   6
HETATM    6  C   UNL     1     -11.594  12.877  65.798  1.00  0.00    -0.368 C  
BRANCH   6   7
HETATM    7  C   UNL     1     -10.282  12.653  65.021  1.00  0.00    -0.273 C  
HETATM    8  O   UNL     1     -10.314  13.457  63.831  1.00  0.00    -0.635 OA 
HETATM    9  H   UNL     1      -9.505  13.319  63.352  1.00  0.00     0.000 HD 
BRANCH   7  10
HETATM   10  C   UNL     1     -10.088  11.184  64.632  1.00  0.00    -0.302 C  
BRANCH  10  11
HETATM   11  O   UNL     1     -10.779  10.371  65.597  1.00  0.00    -0.093 OA 
BRANCH  11  12
HETATM   12  C   UNL     1     -10.013   9.451  66.263  1.00  0.00    -0.283 A  
HETATM   13  C   UNL     1      -8.824   8.897  65.790  1.00  0.00    -0.223 A  
HETATM   14  C   UNL     1      -8.150   7.931  66.542  1.00  0.00    -0.107 A  
HETATM   15  C   UNL     1      -8.634   7.521  67.790  1.00  0.00    -0.120 A  
HETATM   16  C   UNL     1      -9.814   8.101  68.272  1.00  0.00    -0.191 A  
HETATM   17  C   UNL     1     -10.495   9.061  67.513  1.00  0.00    -0.338 A  
BRANCH  15  18
HETATM   18  C   UNL     1      -7.917   6.451  68.577  1.00  0.00    -0.106 C  
BRANCH  18  19
HETATM   19  C   UNL     1      -8.785   5.842  69.679  1.00  0.00    -0.128 C  
BRANCH  19  20
HETATM   20  O   UNL     1      -8.347   6.317  70.955  1.00  0.00    -0.123 OA 
BRANCH  20  21
HETATM   21  C   UNL     1      -9.426   6.933  71.658  1.00  0.00    -0.157 C  
BRANCH  21  22
HETATM   22  C   UNL     1     -10.719   6.376  71.155  1.00  0.00    -0.293 C  
HETATM   23  C   UNL     1     -11.815   6.048  72.139  1.00  0.00    -0.304 C  
HETATM   24  C   UNL     1     -11.983   7.198  71.185  1.00  0.00    -0.381 C  
ENDBRANCH  21  22
ENDBRANCH  20  21
ENDBRANCH  19  20
ENDBRANCH  18  19
ENDBRANCH  15  18
ENDBRANCH  11  12
ENDBRANCH  10  11
ENDBRANCH   7  10
ENDBRANCH   6   7
ENDBRANCH   4   6
ENDBRANCH   2   4
TORSDOF 11
ENDMDL
MODEL      249
REMARK 921   NORMALIZED FREE ENERGY PREDICTED BY IDOCK:   -3.11 KCAL/MOL
REMARK 922        TOTAL FREE ENERGY PREDICTED BY IDOCK:   -6.45 KCAL/MOL
REMARK 923 INTER-LIGAND FREE ENERGY PREDICTED BY IDOCK:   -5.90 KCAL/MOL
REMARK 924 INTRA-LIGAND FREE ENERGY PREDICTED BY IDOCK:   -0.54 KCAL/MOL
REMARK 927      BINDING AFFINITY PREDICTED BY RF-SCORE:    0.00 PKD
ROOT
HETATM    1  C   UNL     1      -9.057  15.399  68.164  1.00  0.00    -0.184 C  
HETATM    2  C   UNL     1     -10.314  15.557  67.306  1.00  0.00    -0.267 C  
HETATM    3  C   UNL     1     -10.167  16.784  66.400  1.00  0.00    -0.329 C  
ENDROOT
BRANCH   2   4
HETATM    4  N   UNL     1     -10.582  14.393  66.452  1.00  0.00    -0.292 NA 
HETATM    5  H   UNL     1     -11.442  13.930  66.748  1.00  0.00     0.000 HD 
BRANCH   4   6
HETATM    6  C   UNL     1     -10.630  14.676  65.011  1.00  0.00    -0.439 C  
BRANCH   6   7
HETATM    7  C   UNL     1     -11.420  13.683  64.136  1.00  0.00    -0.329 C  
HETATM    8  O   UNL     1     -12.658  14.302  63.749  1.00  0.00    -0.909 OA 
HETATM    9  H   UNL     1     -13.145  13.691  63.210  1.00  0.00     0.000 HD 
BRANCH   7  10
HETATM   10  C   UNL     1     -11.721  12.377  64.878  1.00  0.00    -0.365 C  
BRANCH  10  11
HETATM   11  O   UNL     1     -10.708  11.419  64.524  1.00  0.00    -0.312 OA 
BRANCH  11  12
HETATM   12  C   UNL     1     -10.065  10.814  65.572  1.00  0.00    -0.274 A  
HETATM   13  C   UNL     1     -10.284   9.507  66.007  1.00  0.00    -0.242 A  
HETATM   14  C   UNL     1      -9.598   9.010  67.118  1.00  0.00    -0.218 A  
HETATM   15  C   UNL     1      -8.663   9.798  67.799  1.00  0.00    -0.129 A  
HETATM   16  C   UNL     1      -8.427  11.101  67.342  1.00  0.00    -0.134 A  
HETATM   17  C   UNL     1      -9.123  11.601  66.235  1.00  0.00    -0.219 A  
BRANCH  15  18
HETATM   18  C   UNL     1      -7.954   9.264  69.021  1.00  0.00    -0.097 C  
BRANCH  18  19
HETATM   19  C   UNL     1      -8.872   8.445  69.929  1.00  0.00    -0.137 C  
BRANCH  19  20
HETATM   20  O   UNL     1      -8.823   8.965  71.260  1.00  0.00    -0.206 OA 
BRANCH  20  21
HETATM   21  C   UNL     1      -8.234   8.014  72.147  1.00  0.00    -0.137 C  
BRANCH  21  22
HETATM   22  C   UNL     1      -9.243   6.964  72.480  1.00  0.00    -0.149 C  
HETATM   23  C   UNL     1      -9.068   6.139  73.731  1.00  0.00    -0.131 C  
HETATM   24  C   UNL     1     -10.190   7.135  73.641  1.00  0.00    -0.402 C  
ENDBRANCH  21  22
ENDBRANCH  20  21
ENDBRANCH  19  20
ENDBRANCH  18  19
ENDBRANCH  15  18
ENDBRANCH  11  12
ENDBRANCH  10  11
ENDBRANCH   7  10
ENDBRANCH   6   7
ENDBRANCH   4   6
ENDBRANCH   2   4
TORSDOF 11
ENDMDL
MODEL      250
REMARK 921   NORMALIZED FREE ENERGY PREDICTED BY IDOCK:   -3.11 KCAL/MOL
REMARK 922        TOTAL FREE ENERGY PREDICTED BY IDOCK:   -6.45 KCAL/MOL
REMARK 923 INTER-LIGAND FREE ENERGY PREDICTED BY IDOCK:   -5.02 KCAL/MOL
REMARK 924 INTRA-LIGAND FREE ENERGY PREDICTED BY IDOCK:   -1.43 KCAL/MOL
REMARK 927      BINDING AFFINITY PREDICTED BY RF-SCORE:    0.00 PKD
ROOT
HETATM    1  C   UNL     1      -8.984  11.475  66.548  1.00  0.00    -0.190 C  
HETATM    2  C   UNL     1     -10.127  10.868  65.732  1.00  0.00    -0.252 C  
HETATM    3  C   UNL     1     -10.296  11.648  64.424  1.00  0.00    -0.362 C  
ENDROOT
BRANCH   2   4
HETATM    4  N   UNL     1      -9.909   9.456  65.392  1.00  0.00    -0.445 NA 
HETATM    5  H   UNL     1     -10.609   9.144  64.718  1.00  0.00     0.000 HD 
BRANCH   4   6
HETATM    6  C   UNL     1      -8.561   9.133  64.907  1.00  0.00    -0.184 C  
BRANCH   6   7
HETATM    7  C   UNL     1      -8.025   7.726  65.235  1.00  0.00    -0.127 C  
HETATM    8  O   UNL     1      -8.669   6.779  64.366  1.00  0.00    -0.321 OA 
HETATM    9  H   UNL     1      -8.339   5.912  64.568  1.00  0.00     0.000 HD 
BRANCH   7  10
HETATM   10  C   UNL     1      -8.293   7.335  66.692  1.00  0.00    -0.121 C  
BRANCH  10  11
HETATM   11  O   UNL     1      -9.700   7.075  66.834  1.00  0.00    -0.157 OA 
BRANCH  11  12
HETATM   12  C   UNL     1     -10.177   7.051  68.118  1.00  0.00    -0.181 A  
HETATM   13  C   UNL     1     -11.091   6.125  68.622  1.00  0.00    -0.378 A  
HETATM   14  C   UNL     1     -11.540   6.226  69.942  1.00  0.00    -0.361 A  
HETATM   15  C   UNL     1     -11.067   7.235  70.789  1.00  0.00    -0.290 A  
HETATM   16  C   UNL     1     -10.129   8.146  70.285  1.00  0.00    -0.192 A  
HETATM   17  C   UNL     1      -9.688   8.050  68.961  1.00  0.00    -0.159 A  
BRANCH  15  18
HETATM   18  C   UNL     1     -11.587   7.357  72.202  1.00  0.00    -0.331 C  
BRANCH  18  19
HETATM   19  C   UNL     1     -10.475   7.596  73.225  1.00  0.00    -0.355 C  
BRANCH  19  20
HETATM   20  O   UNL     1      -9.396   6.690  72.984  1.00  0.00    -0.135 OA 
BRANCH  20  21
HETATM   21  C   UNL     1      -9.748   5.370  73.399  1.00  0.00    -0.150 C  
BRANCH  21  22
HETATM   22  C   UNL     1      -9.095   4.380  72.490  1.00  0.00    -0.137 C  
HETATM   23  C   UNL     1      -8.373   4.871  71.259  1.00  0.00    -0.115 C  
HETATM   24  C   UNL     1      -7.593   4.279  72.400  1.00  0.00    -0.074 C  
ENDBRANCH  21  22
ENDBRANCH  20  21
ENDBRANCH  19  20
ENDBRANCH  18  19
ENDBRANCH  15  18
ENDBRANCH  11  12
ENDBRANCH  10  11
ENDBRANCH   7  10
ENDBRANCH   6   7
ENDBRANCH   4   6
ENDBRANCH   2   4
TORSDOF 11
ENDMDL
MODEL      251
REMARK 921   NORMALIZED FREE ENERGY PREDICTED BY IDOCK:   -3.11 KCAL/MOL
REMARK 922        TOTAL FREE ENERGY PREDICTED BY IDOCK:   -6.44 KCAL/MOL
REMARK 923 INTER-LIGAND FREE ENERGY PREDICTED BY IDOCK:   -4.93 KCAL/MOL
REMARK 924 INTRA-LIGAND FREE ENERGY PREDICTED BY IDOCK:   -1.51 KCAL/MOL
REMARK 927      BINDING AFFINITY PREDICTED BY RF-SCORE:    0.00 PKD
ROOT
HETATM    1  C   UNL     1     -11.292   6.663  70.632  1.00  0.00    -0.401 C  
HETATM    2  C   UNL     1     -10.303   7.503  69.823  1.00  0.00    -0.221 C  
HETATM    3  C   UNL     1     -10.075   8.847  70.524  1.00  0.00    -0.248 C  
ENDROOT
BRANCH   2   4
HETATM    4  N   UNL     1      -8.996   6.854  69.653  1.00  0.00    -0.144 NA 
HETATM    5  H   UNL     1      -8.752   6.328  70.492  1.00  0.00     0.000 HD 
BRANCH   4   6
HETATM    6  C   UNL     1      -8.877   5.997  68.466  1.00  0.00    -0.112 C  
BRANCH   6   7
HETATM    7  C   UNL     1      -9.895   6.236  67.334  1.00  0.00    -0.131 C  
HETATM    8  O   UNL     1     -10.287   4.962  66.798  1.00  0.00    -0.237 OA 
HETATM    9  H   UNL     1     -10.914   5.109  66.100  1.00  0.00     0.000 HD 
BRANCH   7  10
HETATM   10  C   UNL     1      -9.311   7.098  66.210  1.00  0.00    -0.104 C  
BRANCH  10  11
HETATM   11  O   UNL     1      -8.195   7.833  66.743  1.00  0.00    -0.115 OA 
BRANCH  11  12
HETATM   12  C   UNL     1      -8.339   9.195  66.780  1.00  0.00    -0.123 A  
HETATM   13  C   UNL     1      -7.294  10.114  66.872  1.00  0.00    -0.092 A  
HETATM   14  C   UNL     1      -7.566  11.483  66.947  1.00  0.00    -0.151 A  
HETATM   15  C   UNL     1      -8.881  11.960  66.906  1.00  0.00    -0.197 A  
HETATM   16  C   UNL     1      -9.925  11.034  66.787  1.00  0.00    -0.240 A  
HETATM   17  C   UNL     1      -9.653   9.662  66.723  1.00  0.00    -0.225 A  
BRANCH  15  18
HETATM   18  C   UNL     1      -9.164  13.439  67.024  1.00  0.00    -0.242 C  
BRANCH  18  19
HETATM   19  C   UNL     1     -10.282  13.751  68.020  1.00  0.00    -0.248 C  
BRANCH  19  20
HETATM   20  O   UNL     1     -11.442  14.202  67.317  1.00  0.00    -0.315 OA 
BRANCH  20  21
HETATM   21  C   UNL     1     -11.105  14.571  65.980  1.00  0.00    -0.329 C  
BRANCH  21  22
HETATM   22  C   UNL     1     -12.223  14.180  65.068  1.00  0.00    -0.450 C  
HETATM   23  C   UNL     1     -11.964  14.072  63.585  1.00  0.00    -0.109 C  
HETATM   24  C   UNL     1     -12.238  12.832  64.391  1.00  0.00    -0.499 C  
ENDBRANCH  21  22
ENDBRANCH  20  21
ENDBRANCH  19  20
ENDBRANCH  18  19
ENDBRANCH  15  18
ENDBRANCH  11  12
ENDBRANCH  10  11
ENDBRANCH   7  10
ENDBRANCH   6   7
ENDBRANCH   4   6
ENDBRANCH   2   4
TORSDOF 11
ENDMDL
MODEL      252
REMARK 921   NORMALIZED FREE ENERGY PREDICTED BY IDOCK:   -3.11 KCAL/MOL
REMARK 922        TOTAL FREE ENERGY PREDICTED BY IDOCK:   -6.44 KCAL/MOL
REMARK 923 INTER-LIGAND FREE ENERGY PREDICTED BY IDOCK:   -5.78 KCAL/MOL
REMARK 924 INTRA-LIGAND FREE ENERGY PREDICTED BY IDOCK:   -0.66 KCAL/MOL
REMARK 927      BINDING AFFINITY PREDICTED BY RF-SCORE:    0.00 PKD
ROOT
HETATM    1  C   UNL     1      -9.620   4.467  68.751  1.00  0.00    -0.224 C  
HETATM    2  C   UNL     1      -9.139   4.987  67.396  1.00  0.00    -0.115 C  
HETATM    3  C   UNL     1     -10.344   5.221  66.477  1.00  0.00    -0.332 C  
ENDROOT
BRANCH   2   4
HETATM    4  N   UNL     1      -8.392   6.248  67.492  1.00  0.00    -0.113 NA 
HETATM    5  H   UNL     1      -8.718   6.906  66.783  1.00  0.00     0.000 HD 
BRANCH   4   6
HETATM    6  C   UNL     1      -8.409   6.882  68.817  1.00  0.00    -0.121 C  
BRANCH   6   7
HETATM    7  C   UNL     1      -9.393   8.052  69.012  1.00  0.00    -0.147 C  
HETATM    8  O   UNL     1     -10.683   7.512  69.342  1.00  0.00    -0.231 OA 
HETATM    9  H   UNL     1     -11.289   8.232  69.463  1.00  0.00     0.000 HD 
BRANCH   7  10
HETATM   10  C   UNL     1      -9.515   8.916  67.754  1.00  0.00    -0.141 C  
BRANCH  10  11
HETATM   11  O   UNL     1     -10.891   9.311  67.614  1.00  0.00    -0.250 OA 
BRANCH  11  12
HETATM   12  C   UNL     1     -11.123  10.660  67.558  1.00  0.00    -0.300 A  
HETATM   13  C   UNL     1     -11.121  11.432  66.396  1.00  0.00    -0.301 A  
HETATM   14  C   UNL     1     -11.329  12.812  66.467  1.00  0.00    -0.369 A  
HETATM   15  C   UNL     1     -11.569  13.442  67.694  1.00  0.00    -0.377 A  
HETATM   16  C   UNL     1     -11.596  12.659  68.854  1.00  0.00    -0.363 A  
HETATM   17  C   UNL     1     -11.377  11.278  68.783  1.00  0.00    -0.335 A  
BRANCH  15  18
HETATM   18  C   UNL     1     -11.755  14.940  67.762  1.00  0.00    -0.340 C  
BRANCH  18  19
HETATM   19  C   UNL     1     -10.678  15.708  66.995  1.00  0.00    -0.314 C  
BRANCH  19  20
HETATM   20  O   UNL     1     -10.430  16.961  67.638  1.00  0.00    -0.315 OA 
BRANCH  20  21
HETATM   21  C   UNL     1      -9.771  17.860  66.745  1.00  0.00    -0.314 C  
BRANCH  21  22
HETATM   22  C   UNL     1      -8.445  17.287  66.364  1.00  0.00    -0.304 C  
HETATM   23  C   UNL     1      -7.303  18.218  66.039  1.00  0.00    -0.281 C  
HETATM   24  C   UNL     1      -7.259  17.388  67.291  1.00  0.00    -0.192 C  
ENDBRANCH  21  22
ENDBRANCH  20  21
ENDBRANCH  19  20
ENDBRANCH  18  19
ENDBRANCH  15  18
ENDBRANCH  11  12
ENDBRANCH  10  11
ENDBRANCH   7  10
ENDBRANCH   6   7
ENDBRANCH   4   6
ENDBRANCH   2   4
TORSDOF 11
ENDMDL
MODEL      253
REMARK 921   NORMALIZED FREE ENERGY PREDICTED BY IDOCK:   -3.10 KCAL/MOL
REMARK 922        TOTAL FREE ENERGY PREDICTED BY IDOCK:   -6.43 KCAL/MOL
REMARK 923 INTER-LIGAND FREE ENERGY PREDICTED BY IDOCK:   -5.87 KCAL/MOL
REMARK 924 INTRA-LIGAND FREE ENERGY PREDICTED BY IDOCK:   -0.57 KCAL/MOL
REMARK 927      BINDING AFFINITY PREDICTED BY RF-SCORE:    0.00 PKD
ROOT
HETATM    1  C   UNL     1      -9.091   3.626  72.264  1.00  0.00    -0.149 C  
HETATM    2  C   UNL     1     -10.459   4.228  72.587  1.00  0.00    -0.171 C  
HETATM    3  C   UNL     1     -10.594   4.417  74.102  1.00  0.00    -0.329 C  
ENDROOT
BRANCH   2   4
HETATM    4  N   UNL     1     -10.683   5.531  71.947  1.00  0.00    -0.233 NA 
HETATM    5  H   UNL     1     -10.627   5.439  70.932  1.00  0.00     0.000 HD 
BRANCH   4   6
HETATM    6  C   UNL     1     -11.933   6.204  72.325  1.00  0.00    -0.232 C  
BRANCH   6   7
HETATM    7  C   UNL     1     -12.319   7.456  71.514  1.00  0.00    -0.353 C  
HETATM    8  O   UNL     1     -13.592   7.221  70.892  1.00  0.00    -0.597 OA 
HETATM    9  H   UNL     1     -13.830   7.993  70.391  1.00  0.00     0.000 HD 
BRANCH   7  10
HETATM   10  C   UNL     1     -11.283   7.782  70.434  1.00  0.00    -0.237 C  
BRANCH  10  11
HETATM   11  O   UNL     1     -10.398   8.792  70.952  1.00  0.00    -0.199 OA 
BRANCH  11  12
HETATM   12  C   UNL     1      -9.977   9.736  70.054  1.00  0.00    -0.254 A  
HETATM   13  C   UNL     1      -8.652   9.959  69.679  1.00  0.00    -0.207 A  
HETATM   14  C   UNL     1      -8.336  10.984  68.783  1.00  0.00    -0.144 A  
HETATM   15  C   UNL     1      -9.338  11.787  68.226  1.00  0.00    -0.193 A  
HETATM   16  C   UNL     1     -10.669  11.542  68.586  1.00  0.00    -0.242 A  
HETATM   17  C   UNL     1     -10.984  10.522  69.491  1.00  0.00    -0.312 A  
BRANCH  15  18
HETATM   18  C   UNL     1      -8.982  12.916  67.287  1.00  0.00    -0.208 C  
BRANCH  18  19
HETATM   19  C   UNL     1      -9.834  14.166  67.512  1.00  0.00    -0.235 C  
BRANCH  19  20
HETATM   20  O   UNL     1     -10.047  14.835  66.266  1.00  0.00    -0.262 OA 
BRANCH  20  21
HETATM   21  C   UNL     1     -10.754  16.059  66.469  1.00  0.00    -0.238 C  
BRANCH  21  22
HETATM   22  C   UNL     1      -9.796  17.200  66.363  1.00  0.00    -0.312 C  
HETATM   23  C   UNL     1     -10.331  18.609  66.275  1.00  0.00    -0.483 C  
HETATM   24  C   UNL     1      -9.600  18.160  67.510  1.00  0.00    -0.280 C  
ENDBRANCH  21  22
ENDBRANCH  20  21
ENDBRANCH  19  20
ENDBRANCH  18  19
ENDBRANCH  15  18
ENDBRANCH  11  12
ENDBRANCH  10  11
ENDBRANCH   7  10
ENDBRANCH   6   7
ENDBRANCH   4   6
ENDBRANCH   2   4
TORSDOF 11
ENDMDL
MODEL      254
REMARK 921   NORMALIZED FREE ENERGY PREDICTED BY IDOCK:   -3.10 KCAL/MOL
REMARK 922        TOTAL FREE ENERGY PREDICTED BY IDOCK:   -6.43 KCAL/MOL
REMARK 923 INTER-LIGAND FREE ENERGY PREDICTED BY IDOCK:   -5.75 KCAL/MOL
REMARK 924 INTRA-LIGAND FREE ENERGY PREDICTED BY IDOCK:   -0.68 KCAL/MOL
REMARK 927      BINDING AFFINITY PREDICTED BY RF-SCORE:    0.00 PKD
ROOT
HETATM    1  C   UNL     1      -6.029  13.795  69.343  1.00  0.00    -0.101 C  
HETATM    2  C   UNL     1      -7.117  13.351  68.365  1.00  0.00    -0.108 C  
HETATM    3  C   UNL     1      -6.485  12.555  67.218  1.00  0.00    -0.124 C  
ENDROOT
BRANCH   2   4
HETATM    4  N   UNL     1      -8.147  12.507  68.987  1.00  0.00    -0.323 NA 
HETATM    5  H   UNL     1      -8.634  13.028  69.717  1.00  0.00     0.000 HD 
BRANCH   4   6
HETATM    6  C   UNL     1      -9.115  11.917  68.055  1.00  0.00    -0.189 C  
BRANCH   6   7
HETATM    7  C   UNL     1     -10.589  12.331  68.232  1.00  0.00    -0.227 C  
HETATM    8  O   UNL     1     -10.654  13.367  69.225  1.00  0.00    -0.438 OA 
HETATM    9  H   UNL     1     -11.563  13.622  69.335  1.00  0.00     0.000 HD 
BRANCH   7  10
HETATM   10  C   UNL     1     -11.467  11.155  68.670  1.00  0.00    -0.298 C  
BRANCH  10  11
HETATM   11  O   UNL     1     -11.750  11.307  70.072  1.00  0.00    -0.296 OA 
BRANCH  11  12
HETATM   12  C   UNL     1     -11.647  10.170  70.830  1.00  0.00    -0.357 A  
HETATM   13  C   UNL     1     -12.715   9.490  71.415  1.00  0.00    -0.445 A  
HETATM   14  C   UNL     1     -12.483   8.361  72.206  1.00  0.00    -0.417 A  
HETATM   15  C   UNL     1     -11.185   7.876  72.405  1.00  0.00    -0.409 A  
HETATM   16  C   UNL     1     -10.119   8.546  71.793  1.00  0.00    -0.351 A  
HETATM   17  C   UNL     1     -10.351   9.683  71.010  1.00  0.00    -0.292 A  
BRANCH  15  18
HETATM   18  C   UNL     1     -10.944   6.677  73.291  1.00  0.00    -0.237 C  
BRANCH  18  19
HETATM   19  C   UNL     1     -10.924   5.359  72.514  1.00  0.00    -0.256 C  
BRANCH  19  20
HETATM   20  O   UNL     1      -9.940   4.485  73.073  1.00  0.00    -0.140 OA 
BRANCH  20  21
HETATM   21  C   UNL     1     -10.395   3.946  74.314  1.00  0.00    -0.206 C  
BRANCH  21  22
HETATM   22  C   UNL     1     -10.207   2.464  74.303  1.00  0.00    -0.179 C  
HETATM   23  C   UNL     1     -11.023   1.622  73.352  1.00  0.00    -0.251 C  
HETATM   24  C   UNL     1      -9.542   1.774  73.138  1.00  0.00    -0.106 C  
ENDBRANCH  21  22
ENDBRANCH  20  21
ENDBRANCH  19  20
ENDBRANCH  18  19
ENDBRANCH  15  18
ENDBRANCH  11  12
ENDBRANCH  10  11
ENDBRANCH   7  10
ENDBRANCH   6   7
ENDBRANCH   4   6
ENDBRANCH   2   4
TORSDOF 11
ENDMDL
MODEL      255
REMARK 921   NORMALIZED FREE ENERGY PREDICTED BY IDOCK:   -3.10 KCAL/MOL
REMARK 922        TOTAL FREE ENERGY PREDICTED BY IDOCK:   -6.43 KCAL/MOL
REMARK 923 INTER-LIGAND FREE ENERGY PREDICTED BY IDOCK:   -5.22 KCAL/MOL
REMARK 924 INTRA-LIGAND FREE ENERGY PREDICTED BY IDOCK:   -1.21 KCAL/MOL
REMARK 927      BINDING AFFINITY PREDICTED BY RF-SCORE:    0.00 PKD
ROOT
HETATM    1  C   UNL     1     -12.155  15.561  70.667  1.00  0.00    -0.430 C  
HETATM    2  C   UNL     1     -12.414  14.547  71.783  1.00  0.00    -0.348 C  
HETATM    3  C   UNL     1     -13.792  14.805  72.403  1.00  0.00    -0.578 C  
ENDROOT
BRANCH   2   4
HETATM    4  N   UNL     1     -12.381  13.154  71.318  1.00  0.00    -0.323 NA 
HETATM    5  H   UNL     1     -11.426  12.796  71.344  1.00  0.00     0.000 HD 
BRANCH   4   6
HETATM    6  C   UNL     1     -13.284  12.239  72.028  1.00  0.00    -0.403 C  
BRANCH   6   7
HETATM    7  C   UNL     1     -13.362  10.793  71.501  1.00  0.00    -0.226 C  
HETATM    8  O   UNL     1     -13.063   9.897  72.583  1.00  0.00    -0.459 OA 
HETATM    9  H   UNL     1     -13.110   9.005  72.258  1.00  0.00     0.000 HD 
BRANCH   7  10
HETATM   10  C   UNL     1     -12.375  10.547  70.356  1.00  0.00    -0.324 C  
BRANCH  10  11
HETATM   11  O   UNL     1     -11.129  10.106  70.925  1.00  0.00    -0.338 OA 
BRANCH  11  12
HETATM   12  C   UNL     1     -10.102   9.914  70.040  1.00  0.00    -0.260 A  
HETATM   13  C   UNL     1      -9.904  10.637  68.864  1.00  0.00    -0.210 A  
HETATM   14  C   UNL     1      -8.840  10.322  68.014  1.00  0.00    -0.122 A  
HETATM   15  C   UNL     1      -7.941   9.298  68.335  1.00  0.00    -0.102 A  
HETATM   16  C   UNL     1      -8.128   8.594  69.530  1.00  0.00    -0.110 A  
HETATM   17  C   UNL     1      -9.200   8.903  70.376  1.00  0.00    -0.222 A  
BRANCH  15  18
HETATM   18  C   UNL     1      -6.816   8.942  67.391  1.00  0.00    -0.070 C  
BRANCH  18  19
HETATM   19  C   UNL     1      -6.721   7.440  67.122  1.00  0.00    -0.069 C  
BRANCH  19  20
HETATM   20  O   UNL     1      -7.896   6.997  66.438  1.00  0.00    -0.101 OA 
BRANCH  20  21
HETATM   21  C   UNL     1      -8.155   5.623  66.726  1.00  0.00    -0.102 C  
BRANCH  21  22
HETATM   22  C   UNL     1      -9.235   5.533  67.755  1.00  0.00    -0.110 C  
HETATM   23  C   UNL     1      -9.649   4.179  68.277  1.00  0.00    -0.191 C  
HETATM   24  C   UNL     1      -8.923   5.139  69.177  1.00  0.00    -0.125 C  
ENDBRANCH  21  22
ENDBRANCH  20  21
ENDBRANCH  19  20
ENDBRANCH  18  19
ENDBRANCH  15  18
ENDBRANCH  11  12
ENDBRANCH  10  11
ENDBRANCH   7  10
ENDBRANCH   6   7
ENDBRANCH   4   6
ENDBRANCH   2   4
TORSDOF 11
ENDMDL
MODEL      256
REMARK 921   NORMALIZED FREE ENERGY PREDICTED BY IDOCK:   -3.10 KCAL/MOL
REMARK 922        TOTAL FREE ENERGY PREDICTED BY IDOCK:   -6.42 KCAL/MOL
REMARK 923 INTER-LIGAND FREE ENERGY PREDICTED BY IDOCK:   -5.48 KCAL/MOL
REMARK 924 INTRA-LIGAND FREE ENERGY PREDICTED BY IDOCK:   -0.94 KCAL/MOL
REMARK 927      BINDING AFFINITY PREDICTED BY RF-SCORE:    0.00 PKD
ROOT
HETATM    1  C   UNL     1      -9.072  16.986  66.534  1.00  0.00    -0.291 C  
HETATM    2  C   UNL     1      -8.577  15.539  66.544  1.00  0.00    -0.285 C  
HETATM    3  C   UNL     1      -8.512  15.026  67.986  1.00  0.00    -0.149 C  
ENDROOT
BRANCH   2   4
HETATM    4  N   UNL     1      -9.438  14.627  65.778  1.00  0.00    -0.518 NA 
HETATM    5  H   UNL     1      -9.443  13.703  66.209  1.00  0.00     0.000 HD 
BRANCH   4   6
HETATM    6  C   UNL     1     -10.814  15.097  65.571  1.00  0.00    -0.364 C  
BRANCH   6   7
HETATM    7  C   UNL     1     -11.926  14.330  66.312  1.00  0.00    -0.412 C  
HETATM    8  O   UNL     1     -12.272  15.062  67.499  1.00  0.00    -0.429 OA 
HETATM    9  H   UNL     1     -12.958  14.589  67.955  1.00  0.00     0.000 HD 
BRANCH   7  10
HETATM   10  C   UNL     1     -11.486  12.916  66.703  1.00  0.00    -0.343 C  
BRANCH  10  11
HETATM   11  O   UNL     1     -11.403  12.125  65.504  1.00  0.00    -0.328 OA 
BRANCH  11  12
HETATM   12  C   UNL     1     -10.531  11.070  65.542  1.00  0.00    -0.238 A  
HETATM   13  C   UNL     1      -9.615  10.743  64.542  1.00  0.00    -0.322 A  
HETATM   14  C   UNL     1      -8.803   9.613  64.673  1.00  0.00    -0.253 A  
HETATM   15  C   UNL     1      -8.873   8.804  65.813  1.00  0.00    -0.233 A  
HETATM   16  C   UNL     1      -9.776   9.152  66.826  1.00  0.00    -0.271 A  
HETATM   17  C   UNL     1     -10.595  10.278  66.690  1.00  0.00    -0.232 A  
BRANCH  15  18
HETATM   18  C   UNL     1      -8.017   7.565  65.927  1.00  0.00    -0.117 C  
BRANCH  18  19
HETATM   19  C   UNL     1      -8.112   6.663  64.696  1.00  0.00    -0.088 C  
BRANCH  19  20
HETATM   20  O   UNL     1      -7.948   5.297  65.085  1.00  0.00    -0.098 OA 
BRANCH  20  21
HETATM   21  C   UNL     1      -9.170   4.577  64.914  1.00  0.00    -0.156 C  
BRANCH  21  22
HETATM   22  C   UNL     1      -8.988   3.551  63.843  1.00  0.00    -0.095 C  
HETATM   23  C   UNL     1      -9.945   2.388  63.763  1.00  0.00    -0.142 C  
HETATM   24  C   UNL     1      -9.960   3.445  62.695  1.00  0.00    -0.115 C  
ENDBRANCH  21  22
ENDBRANCH  20  21
ENDBRANCH  19  20
ENDBRANCH  18  19
ENDBRANCH  15  18
ENDBRANCH  11  12
ENDBRANCH  10  11
ENDBRANCH   7  10
ENDBRANCH   6   7
ENDBRANCH   4   6
ENDBRANCH   2   4
TORSDOF 11
ENDMDL
MODEL      257
REMARK 921   NORMALIZED FREE ENERGY PREDICTED BY IDOCK:   -3.10 KCAL/MOL
REMARK 922        TOTAL FREE ENERGY PREDICTED BY IDOCK:   -6.42 KCAL/MOL
REMARK 923 INTER-LIGAND FREE ENERGY PREDICTED BY IDOCK:   -5.43 KCAL/MOL
REMARK 924 INTRA-LIGAND FREE ENERGY PREDICTED BY IDOCK:   -0.99 KCAL/MOL
REMARK 927      BINDING AFFINITY PREDICTED BY RF-SCORE:    0.00 PKD
ROOT
HETATM    1  C   UNL     1      -6.702  11.398  66.886  1.00  0.00    -0.145 C  
HETATM    2  C   UNL     1      -6.834  10.277  67.918  1.00  0.00    -0.074 C  
HETATM    3  C   UNL     1      -7.079  10.881  69.305  1.00  0.00    -0.124 C  
ENDROOT
BRANCH   2   4
HETATM    4  N   UNL     1      -7.937   9.350  67.628  1.00  0.00    -0.099 NA 
HETATM    5  H   UNL     1      -7.569   8.465  67.278  1.00  0.00     0.000 HD 
BRANCH   4   6
HETATM    6  C   UNL     1      -8.858   9.109  68.746  1.00  0.00    -0.132 C  
BRANCH   6   7
HETATM    7  C   UNL     1     -10.314   8.759  68.380  1.00  0.00    -0.204 C  
HETATM    8  O   UNL     1     -10.383   8.518  66.965  1.00  0.00    -0.275 OA 
HETATM    9  H   UNL     1     -11.280   8.302  66.740  1.00  0.00     0.000 HD 
BRANCH   7  10
HETATM   10  C   UNL     1     -11.285   9.885  68.747  1.00  0.00    -0.072 C  
BRANCH  10  11
HETATM   11  O   UNL     1     -10.530  10.944  69.363  1.00  0.00    -0.219 OA 
BRANCH  11  12
HETATM   12  C   UNL     1     -10.758  12.203  68.875  1.00  0.00    -0.175 A  
HETATM   13  C   UNL     1     -11.725  13.089  69.349  1.00  0.00    -0.386 A  
HETATM   14  C   UNL     1     -11.896  14.337  68.741  1.00  0.00    -0.377 A  
HETATM   15  C   UNL     1     -11.088  14.732  67.668  1.00  0.00    -0.311 A  
HETATM   16  C   UNL     1     -10.100  13.849  67.214  1.00  0.00    -0.242 A  
HETATM   17  C   UNL     1      -9.937  12.596  67.816  1.00  0.00    -0.218 A  
BRANCH  15  18
HETATM   18  C   UNL     1     -11.305  16.067  66.996  1.00  0.00     0.149 C  
BRANCH  18  19
HETATM   19  C   UNL     1     -10.109  16.508  66.151  1.00  0.00    -0.348 C  
BRANCH  19  20
HETATM   20  O   UNL     1     -10.476  17.631  65.346  1.00  0.00    -0.648 OA 
BRANCH  20  21
HETATM   21  C   UNL     1     -10.477  18.827  66.126  1.00  0.00    -0.446 C  
BRANCH  21  22
HETATM   22  C   UNL     1      -9.195  18.916  66.889  1.00  0.00    -0.322 C  
HETATM   23  C   UNL     1      -8.002  19.587  66.254  1.00  0.00    -0.332 C  
HETATM   24  C   UNL     1      -8.696  20.237  67.418  1.00  0.00    -0.428 C  
ENDBRANCH  21  22
ENDBRANCH  20  21
ENDBRANCH  19  20
ENDBRANCH  18  19
ENDBRANCH  15  18
ENDBRANCH  11  12
ENDBRANCH  10  11
ENDBRANCH   7  10
ENDBRANCH   6   7
ENDBRANCH   4   6
ENDBRANCH   2   4
TORSDOF 11
ENDMDL
MODEL      258
REMARK 921   NORMALIZED FREE ENERGY PREDICTED BY IDOCK:   -3.09 KCAL/MOL
REMARK 922        TOTAL FREE ENERGY PREDICTED BY IDOCK:   -6.42 KCAL/MOL
REMARK 923 INTER-LIGAND FREE ENERGY PREDICTED BY IDOCK:   -5.18 KCAL/MOL
REMARK 924 INTRA-LIGAND FREE ENERGY PREDICTED BY IDOCK:   -1.24 KCAL/MOL
REMARK 927      BINDING AFFINITY PREDICTED BY RF-SCORE:    0.00 PKD
ROOT
HETATM    1  C   UNL     1     -11.980  12.999  63.667  1.00  0.00    -0.608 C  
HETATM    2  C   UNL     1     -10.907  13.270  64.723  1.00  0.00    -0.360 C  
HETATM    3  C   UNL     1     -10.811  14.777  64.985  1.00  0.00    -0.440 C  
ENDROOT
BRANCH   2   4
HETATM    4  N   UNL     1     -11.175  12.604  66.005  1.00  0.00    -0.293 NA 
HETATM    5  H   UNL     1     -10.453  11.910  66.198  1.00  0.00     0.000 HD 
BRANCH   4   6
HETATM    6  C   UNL     1     -11.330  13.506  67.154  1.00  0.00    -0.321 C  
BRANCH   6   7
HETATM    7  C   UNL     1     -10.660  13.070  68.471  1.00  0.00    -0.258 C  
HETATM    8  O   UNL     1      -9.926  14.187  68.999  1.00  0.00    -0.377 OA 
HETATM    9  H   UNL     1      -9.512  13.919  69.812  1.00  0.00     0.000 HD 
BRANCH   7  10
HETATM   10  C   UNL     1      -9.705  11.890  68.267  1.00  0.00    -0.200 C  
BRANCH  10  11
HETATM   11  O   UNL     1     -10.494  10.713  68.024  1.00  0.00    -0.175 OA 
BRANCH  11  12
HETATM   12  C   UNL     1      -9.890   9.518  68.314  1.00  0.00    -0.155 A  
HETATM   13  C   UNL     1      -9.797   8.429  67.447  1.00  0.00    -0.249 A  
HETATM   14  C   UNL     1      -9.194   7.241  67.869  1.00  0.00    -0.131 A  
HETATM   15  C   UNL     1      -8.650   7.127  69.154  1.00  0.00    -0.133 A  
HETATM   16  C   UNL     1      -8.722   8.232  70.011  1.00  0.00    -0.133 A  
HETATM   17  C   UNL     1      -9.336   9.418  69.591  1.00  0.00    -0.199 A  
BRANCH  15  18
HETATM   18  C   UNL     1      -8.033   5.827  69.612  1.00  0.00    -0.100 C  
BRANCH  18  19
HETATM   19  C   UNL     1      -7.990   5.695  71.135  1.00  0.00    -0.112 C  
BRANCH  19  20
HETATM   20  O   UNL     1      -8.632   4.481  71.532  1.00  0.00    -0.110 OA 
BRANCH  20  21
HETATM   21  C   UNL     1      -9.881   4.758  72.164  1.00  0.00    -0.172 C  
BRANCH  21  22
HETATM   22  C   UNL     1      -9.788   6.067  72.878  1.00  0.00    -0.177 C  
HETATM   23  C   UNL     1     -10.968   7.008  72.856  1.00  0.00    -0.337 C  
HETATM   24  C   UNL     1     -10.580   6.324  74.137  1.00  0.00    -0.136 C  
ENDBRANCH  21  22
ENDBRANCH  20  21
ENDBRANCH  19  20
ENDBRANCH  18  19
ENDBRANCH  15  18
ENDBRANCH  11  12
ENDBRANCH  10  11
ENDBRANCH   7  10
ENDBRANCH   6   7
ENDBRANCH   4   6
ENDBRANCH   2   4
TORSDOF 11
ENDMDL
MODEL      259
REMARK 921   NORMALIZED FREE ENERGY PREDICTED BY IDOCK:   -3.08 KCAL/MOL
REMARK 922        TOTAL FREE ENERGY PREDICTED BY IDOCK:   -6.40 KCAL/MOL
REMARK 923 INTER-LIGAND FREE ENERGY PREDICTED BY IDOCK:   -5.93 KCAL/MOL
REMARK 924 INTRA-LIGAND FREE ENERGY PREDICTED BY IDOCK:   -0.47 KCAL/MOL
REMARK 927      BINDING AFFINITY PREDICTED BY RF-SCORE:    0.00 PKD
ROOT
HETATM    1  C   UNL     1     -11.552  12.322  68.439  1.00  0.00    -0.377 C  
HETATM    2  C   UNL     1     -11.536  12.805  66.988  1.00  0.00    -0.360 C  
HETATM    3  C   UNL     1     -12.082  14.235  66.915  1.00  0.00    -0.440 C  
ENDROOT
BRANCH   2   4
HETATM    4  N   UNL     1     -10.194  12.803  66.391  1.00  0.00    -0.249 NA 
HETATM    5  H   UNL     1      -9.543  12.294  66.991  1.00  0.00     0.000 HD 
BRANCH   4   6
HETATM    6  C   UNL     1     -10.124  12.288  65.017  1.00  0.00    -0.253 C  
BRANCH   6   7
HETATM    7  C   UNL     1      -9.667  10.826  64.848  1.00  0.00    -0.276 C  
HETATM    8  O   UNL     1     -10.059  10.376  63.540  1.00  0.00    -0.452 OA 
HETATM    9  H   UNL     1      -9.777   9.474  63.436  1.00  0.00     0.000 HD 
BRANCH   7  10
HETATM   10  C   UNL     1     -10.286   9.905  65.904  1.00  0.00    -0.194 C  
BRANCH  10  11
HETATM   11  O   UNL     1      -9.466   8.728  66.006  1.00  0.00    -0.227 OA 
BRANCH  11  12
HETATM   12  C   UNL     1      -9.798   7.853  67.006  1.00  0.00    -0.225 A  
HETATM   13  C   UNL     1     -10.881   6.974  66.983  1.00  0.00    -0.413 A  
HETATM   14  C   UNL     1     -11.148   6.155  68.084  1.00  0.00    -0.328 A  
HETATM   15  C   UNL     1     -10.324   6.180  69.216  1.00  0.00    -0.276 A  
HETATM   16  C   UNL     1      -9.223   7.045  69.223  1.00  0.00    -0.139 A  
HETATM   17  C   UNL     1      -8.963   7.872  68.124  1.00  0.00    -0.131 A  
BRANCH  15  18
HETATM   18  C   UNL     1     -10.643   5.319  70.415  1.00  0.00    -0.278 C  
BRANCH  18  19
HETATM   19  C   UNL     1     -10.965   6.137  71.666  1.00  0.00    -0.267 C  
BRANCH  19  20
HETATM   20  O   UNL     1     -10.378   5.516  72.813  1.00  0.00    -0.180 OA 
BRANCH  20  21
HETATM   21  C   UNL     1     -11.276   4.561  73.379  1.00  0.00    -0.315 C  
BRANCH  21  22
HETATM   22  C   UNL     1     -10.537   3.289  73.641  1.00  0.00    -0.277 C  
HETATM   23  C   UNL     1      -9.659   2.709  72.560  1.00  0.00    -0.179 C  
HETATM   24  C   UNL     1      -9.037   3.281  73.803  1.00  0.00    -0.093 C  
ENDBRANCH  21  22
ENDBRANCH  20  21
ENDBRANCH  19  20
ENDBRANCH  18  19
ENDBRANCH  15  18
ENDBRANCH  11  12
ENDBRANCH  10  11
ENDBRANCH   7  10
ENDBRANCH   6   7
ENDBRANCH   4   6
ENDBRANCH   2   4
TORSDOF 11
ENDMDL
MODEL      260
REMARK 921   NORMALIZED FREE ENERGY PREDICTED BY IDOCK:   -3.07 KCAL/MOL
REMARK 922        TOTAL FREE ENERGY PREDICTED BY IDOCK:   -6.38 KCAL/MOL
REMARK 923 INTER-LIGAND FREE ENERGY PREDICTED BY IDOCK:   -5.34 KCAL/MOL
REMARK 924 INTRA-LIGAND FREE ENERGY PREDICTED BY IDOCK:   -1.04 KCAL/MOL
REMARK 927      BINDING AFFINITY PREDICTED BY RF-SCORE:    0.00 PKD
ROOT
HETATM    1  C   UNL     1     -12.471  14.225  64.606  1.00  0.00    -0.371 C  
HETATM    2  C   UNL     1     -12.567  12.709  64.779  1.00  0.00    -0.454 C  
HETATM    3  C   UNL     1     -12.501  12.029  63.407  1.00  0.00    -0.625 C  
ENDROOT
BRANCH   2   4
HETATM    4  N   UNL     1     -11.493  12.151  65.612  1.00  0.00    -0.359 NA 
HETATM    5  H   UNL     1     -10.601  12.585  65.373  1.00  0.00     0.000 HD 
BRANCH   4   6
HETATM    6  C   UNL     1     -11.723  12.233  67.061  1.00  0.00    -0.329 C  
BRANCH   6   7
HETATM    7  C   UNL     1     -11.298  11.011  67.899  1.00  0.00    -0.311 C  
HETATM    8  O   UNL     1     -12.386  10.655  68.768  1.00  0.00    -0.814 OA 
HETATM    9  H   UNL     1     -12.124   9.902  69.285  1.00  0.00     0.000 HD 
BRANCH   7  10
HETATM   10  C   UNL     1     -10.053  11.299  68.743  1.00  0.00    -0.194 C  
BRANCH  10  11
HETATM   11  O   UNL     1      -8.952  10.563  68.182  1.00  0.00    -0.132 OA 
BRANCH  11  12
HETATM   12  C   UNL     1      -8.842   9.257  68.578  1.00  0.00    -0.129 A  
HETATM   13  C   UNL     1      -9.323   8.734  69.779  1.00  0.00    -0.163 A  
HETATM   14  C   UNL     1      -9.112   7.389  70.096  1.00  0.00    -0.148 A  
HETATM   15  C   UNL     1      -8.442   6.537  69.210  1.00  0.00    -0.127 A  
HETATM   16  C   UNL     1      -7.985   7.060  67.995  1.00  0.00    -0.115 A  
HETATM   17  C   UNL     1      -8.187   8.410  67.682  1.00  0.00    -0.126 A  
BRANCH  15  18
HETATM   18  C   UNL     1      -8.189   5.094  69.579  1.00  0.00    -0.093 C  
BRANCH  18  19
HETATM   19  C   UNL     1      -9.455   4.238  69.534  1.00  0.00    -0.187 C  
BRANCH  19  20
HETATM   20  O   UNL     1      -9.851   4.035  68.175  1.00  0.00    -0.107 OA 
BRANCH  20  21
HETATM   21  C   UNL     1      -8.875   3.258  67.480  1.00  0.00    -0.133 C  
BRANCH  21  22
HETATM   22  C   UNL     1      -8.656   3.846  66.124  1.00  0.00    -0.112 C  
HETATM   23  C   UNL     1      -9.563   3.442  64.988  1.00  0.00    -0.141 C  
HETATM   24  C   UNL     1      -9.631   4.838  65.540  1.00  0.00    -0.172 C  
ENDBRANCH  21  22
ENDBRANCH  20  21
ENDBRANCH  19  20
ENDBRANCH  18  19
ENDBRANCH  15  18
ENDBRANCH  11  12
ENDBRANCH  10  11
ENDBRANCH   7  10
ENDBRANCH   6   7
ENDBRANCH   4   6
ENDBRANCH   2   4
TORSDOF 11
ENDMDL
MODEL      261
REMARK 921   NORMALIZED FREE ENERGY PREDICTED BY IDOCK:   -3.07 KCAL/MOL
REMARK 922        TOTAL FREE ENERGY PREDICTED BY IDOCK:   -6.38 KCAL/MOL
REMARK 923 INTER-LIGAND FREE ENERGY PREDICTED BY IDOCK:   -4.88 KCAL/MOL
REMARK 924 INTRA-LIGAND FREE ENERGY PREDICTED BY IDOCK:   -1.50 KCAL/MOL
REMARK 927      BINDING AFFINITY PREDICTED BY RF-SCORE:    0.00 PKD
ROOT
HETATM    1  C   UNL     1     -10.715   9.570  67.562  1.00  0.00    -0.311 C  
HETATM    2  C   UNL     1     -10.535   8.058  67.699  1.00  0.00    -0.232 C  
HETATM    3  C   UNL     1      -9.622   7.544  66.581  1.00  0.00    -0.263 C  
ENDROOT
BRANCH   2   4
HETATM    4  N   UNL     1      -9.946   7.658  68.984  1.00  0.00    -0.176 NA 
HETATM    5  H   UNL     1      -9.461   6.766  68.887  1.00  0.00     0.000 HD 
BRANCH   4   6
HETATM    6  C   UNL     1      -9.058   8.654  69.598  1.00  0.00    -0.149 C  
BRANCH   6   7
HETATM    7  C   UNL     1      -7.557   8.539  69.268  1.00  0.00    -0.095 C  
HETATM    8  O   UNL     1      -6.960   7.604  70.181  1.00  0.00    -0.049 OA 
HETATM    9  H   UNL     1      -6.034   7.533  69.978  1.00  0.00     0.000 HD 
BRANCH   7  10
HETATM   10  C   UNL     1      -6.838   9.886  69.385  1.00  0.00    -0.060 C  
BRANCH  10  11
HETATM   11  O   UNL     1      -6.602  10.385  68.057  1.00  0.00    -0.060 OA 
BRANCH  11  12
HETATM   12  C   UNL     1      -7.466  11.353  67.619  1.00  0.00    -0.103 A  
HETATM   13  C   UNL     1      -8.088  11.375  66.370  1.00  0.00    -0.106 A  
HETATM   14  C   UNL     1      -8.920  12.441  66.016  1.00  0.00     0.106 A  
HETATM   15  C   UNL     1      -9.166  13.490  66.910  1.00  0.00    -0.254 A  
HETATM   16  C   UNL     1      -8.561  13.449  68.172  1.00  0.00    -0.174 A  
HETATM   17  C   UNL     1      -7.720  12.387  68.522  1.00  0.00    -0.120 A  
BRANCH  15  18
HETATM   18  C   UNL     1     -10.037  14.655  66.503  1.00  0.00    -0.286 C  
BRANCH  18  19
HETATM   19  C   UNL     1     -11.449  14.572  67.086  1.00  0.00    -0.368 C  
BRANCH  19  20
HETATM   20  O   UNL     1     -12.321  13.935  66.148  1.00  0.00    -0.452 OA 
BRANCH  20  21
HETATM   21  C   UNL     1     -12.162  14.507  64.849  1.00  0.00    -0.402 C  
BRANCH  21  22
HETATM   22  C   UNL     1     -12.353  13.441  63.819  1.00  0.00    -0.418 C  
HETATM   23  C   UNL     1     -11.182  12.574  63.426  1.00  0.00    -0.460 C  
HETATM   24  C   UNL     1     -12.328  11.981  64.197  1.00  0.00    -0.452 C  
ENDBRANCH  21  22
ENDBRANCH  20  21
ENDBRANCH  19  20
ENDBRANCH  18  19
ENDBRANCH  15  18
ENDBRANCH  11  12
ENDBRANCH  10  11
ENDBRANCH   7  10
ENDBRANCH   6   7
ENDBRANCH   4   6
ENDBRANCH   2   4
TORSDOF 11
ENDMDL
MODEL      262
REMARK 921   NORMALIZED FREE ENERGY PREDICTED BY IDOCK:   -3.06 KCAL/MOL
REMARK 922        TOTAL FREE ENERGY PREDICTED BY IDOCK:   -6.36 KCAL/MOL
REMARK 923 INTER-LIGAND FREE ENERGY PREDICTED BY IDOCK:   -5.14 KCAL/MOL
REMARK 924 INTRA-LIGAND FREE ENERGY PREDICTED BY IDOCK:   -1.21 KCAL/MOL
REMARK 927      BINDING AFFINITY PREDICTED BY RF-SCORE:    0.00 PKD
ROOT
HETATM    1  C   UNL     1     -11.190   9.145  70.225  1.00  0.00    -0.249 C  
HETATM    2  C   UNL     1     -11.043   8.008  71.238  1.00  0.00    -0.247 C  
HETATM    3  C   UNL     1     -11.419   6.678  70.577  1.00  0.00    -0.432 C  
ENDROOT
BRANCH   2   4
HETATM    4  N   UNL     1      -9.679   7.879  71.769  1.00  0.00    -0.163 NA 
HETATM    5  H   UNL     1      -9.344   6.923  71.650  1.00  0.00     0.000 HD 
BRANCH   4   6
HETATM    6  C   UNL     1      -8.704   8.830  71.218  1.00  0.00    -0.215 C  
BRANCH   6   7
HETATM    7  C   UNL     1      -7.648   8.257  70.252  1.00  0.00    -0.072 C  
HETATM    8  O   UNL     1      -6.584   7.684  71.028  1.00  0.00    -0.038 OA 
HETATM    9  H   UNL     1      -5.933   7.331  70.432  1.00  0.00     0.000 HD 
BRANCH   7  10
HETATM   10  C   UNL     1      -7.074   9.334  69.326  1.00  0.00    -0.057 C  
BRANCH  10  11
HETATM   11  O   UNL     1      -7.059   8.811  67.986  1.00  0.00    -0.077 OA 
BRANCH  11  12
HETATM   12  C   UNL     1      -7.923   9.403  67.103  1.00  0.00    -0.102 A  
HETATM   13  C   UNL     1      -8.744   8.727  66.201  1.00  0.00    -0.184 A  
HETATM   14  C   UNL     1      -9.555   9.442  65.315  1.00  0.00    -0.251 A  
HETATM   15  C   UNL     1      -9.581  10.842  65.332  1.00  0.00    -0.272 A  
HETATM   16  C   UNL     1      -8.775  11.515  66.258  1.00  0.00    -0.159 A  
HETATM   17  C   UNL     1      -7.955  10.798  67.138  1.00  0.00    -0.124 A  
BRANCH  15  18
HETATM   18  C   UNL     1     -10.434  11.604  64.346  1.00  0.00    -0.374 C  
BRANCH  18  19
HETATM   19  C   UNL     1     -10.342  13.120  64.529  1.00  0.00    -0.368 C  
BRANCH  19  20
HETATM   20  O   UNL     1     -11.649  13.694  64.455  1.00  0.00    -0.360 OA 
BRANCH  20  21
HETATM   21  C   UNL     1     -12.302  13.617  65.723  1.00  0.00    -0.482 C  
BRANCH  21  22
HETATM   22  C   UNL     1     -11.388  14.149  66.778  1.00  0.00    -0.353 C  
HETATM   23  C   UNL     1     -11.976  14.769  68.022  1.00  0.00    -0.261 C  
HETATM   24  C   UNL     1     -11.251  13.455  68.110  1.00  0.00    -0.304 C  
ENDBRANCH  21  22
ENDBRANCH  20  21
ENDBRANCH  19  20
ENDBRANCH  18  19
ENDBRANCH  15  18
ENDBRANCH  11  12
ENDBRANCH  10  11
ENDBRANCH   7  10
ENDBRANCH   6   7
ENDBRANCH   4   6
ENDBRANCH   2   4
TORSDOF 11
ENDMDL
MODEL      263
REMARK 921   NORMALIZED FREE ENERGY PREDICTED BY IDOCK:   -3.04 KCAL/MOL
REMARK 922        TOTAL FREE ENERGY PREDICTED BY IDOCK:   -6.32 KCAL/MOL
REMARK 923 INTER-LIGAND FREE ENERGY PREDICTED BY IDOCK:   -5.40 KCAL/MOL
REMARK 924 INTRA-LIGAND FREE ENERGY PREDICTED BY IDOCK:   -0.92 KCAL/MOL
REMARK 927      BINDING AFFINITY PREDICTED BY RF-SCORE:    0.00 PKD
ROOT
HETATM    1  C   UNL     1      -7.199   3.217  68.753  1.00  0.00    -0.049 C  
HETATM    2  C   UNL     1      -7.150   4.732  68.548  1.00  0.00    -0.057 C  
HETATM    3  C   UNL     1      -7.201   5.051  67.050  1.00  0.00    -0.077 C  
ENDROOT
BRANCH   2   4
HETATM    4  N   UNL     1      -8.260   5.441  69.199  1.00  0.00    -0.093 NA 
HETATM    5  H   UNL     1      -7.899   6.130  69.859  1.00  0.00     0.000 HD 
BRANCH   4   6
HETATM    6  C   UNL     1      -9.219   6.071  68.283  1.00  0.00    -0.117 C  
BRANCH   6   7
HETATM    7  C   UNL     1     -10.678   6.171  68.769  1.00  0.00    -0.308 C  
HETATM    8  O   UNL     1     -11.467   6.763  67.723  1.00  0.00    -0.607 OA 
HETATM    9  H   UNL     1     -12.367   6.825  68.023  1.00  0.00     0.000 HD 
BRANCH   7  10
HETATM   10  C   UNL     1     -10.804   7.021  70.037  1.00  0.00    -0.261 C  
BRANCH  10  11
HETATM   11  O   UNL     1      -9.811   8.060  69.980  1.00  0.00    -0.183 OA 
BRANCH  11  12
HETATM   12  C   UNL     1     -10.278   9.320  69.718  1.00  0.00    -0.211 A  
HETATM   13  C   UNL     1      -9.565  10.327  69.068  1.00  0.00    -0.210 A  
HETATM   14  C   UNL     1     -10.131  11.593  68.894  1.00  0.00    -0.109 A  
HETATM   15  C   UNL     1     -11.428  11.869  69.343  1.00  0.00    -0.366 A  
HETATM   16  C   UNL     1     -12.150  10.847  69.971  1.00  0.00    -0.433 A  
HETATM   17  C   UNL     1     -11.578   9.582  70.154  1.00  0.00    -0.156 A  
BRANCH  15  18
HETATM   18  C   UNL     1     -12.016  13.251  69.183  1.00  0.00    -0.343 C  
BRANCH  18  19
HETATM   19  C   UNL     1     -11.154  14.166  68.312  1.00  0.00    -0.254 C  
BRANCH  19  20
HETATM   20  O   UNL     1     -11.638  14.147  66.967  1.00  0.00    -0.343 OA 
BRANCH  20  21
HETATM   21  C   UNL     1     -10.582  13.834  66.059  1.00  0.00    -0.290 C  
BRANCH  21  22
HETATM   22  C   UNL     1     -10.661  14.751  64.881  1.00  0.00    -0.438 C  
HETATM   23  C   UNL     1     -12.012  15.108  64.312  1.00  0.00    -0.276 C  
HETATM   24  C   UNL     1     -11.198  16.153  65.023  1.00  0.00    -0.225 C  
ENDBRANCH  21  22
ENDBRANCH  20  21
ENDBRANCH  19  20
ENDBRANCH  18  19
ENDBRANCH  15  18
ENDBRANCH  11  12
ENDBRANCH  10  11
ENDBRANCH   7  10
ENDBRANCH   6   7
ENDBRANCH   4   6
ENDBRANCH   2   4
TORSDOF 11
ENDMDL
MODEL      264
REMARK 921   NORMALIZED FREE ENERGY PREDICTED BY IDOCK:   -3.03 KCAL/MOL
REMARK 922        TOTAL FREE ENERGY PREDICTED BY IDOCK:   -6.32 KCAL/MOL
REMARK 923 INTER-LIGAND FREE ENERGY PREDICTED BY IDOCK:   -5.64 KCAL/MOL
REMARK 924 INTRA-LIGAND FREE ENERGY PREDICTED BY IDOCK:   -0.68 KCAL/MOL
REMARK 927      BINDING AFFINITY PREDICTED BY RF-SCORE:    0.00 PKD
ROOT
HETATM    1  C   UNL     1     -12.327  13.418  65.616  1.00  0.00    -0.521 C  
HETATM    2  C   UNL     1     -11.330  14.316  64.884  1.00  0.00    -0.372 C  
HETATM    3  C   UNL     1     -10.436  15.032  65.903  1.00  0.00    -0.341 C  
ENDROOT
BRANCH   2   4
HETATM    4  N   UNL     1     -10.459  13.580  63.957  1.00  0.00    -0.619 NA 
HETATM    5  H   UNL     1      -9.511  13.528  64.331  1.00  0.00     0.000 HD 
BRANCH   4   6
HETATM    6  C   UNL     1     -10.932  12.239  63.591  1.00  0.00    -0.471 C  
BRANCH   6   7
HETATM    7  C   UNL     1      -9.862  11.137  63.464  1.00  0.00    -0.353 C  
HETATM    8  O   UNL     1     -10.186  10.316  62.330  1.00  0.00    -0.673 OA 
HETATM    9  H   UNL     1      -9.526   9.637  62.252  1.00  0.00     0.000 HD 
BRANCH   7  10
HETATM   10  C   UNL     1      -9.791  10.259  64.717  1.00  0.00    -0.334 C  
BRANCH  10  11
HETATM   11  O   UNL     1      -8.997   9.100  64.407  1.00  0.00    -0.173 OA 
BRANCH  11  12
HETATM   12  C   UNL     1      -8.447   8.448  65.479  1.00  0.00    -0.168 A  
HETATM   13  C   UNL     1      -7.193   7.838  65.495  1.00  0.00    -0.064 A  
HETATM   14  C   UNL     1      -6.754   7.161  66.637  1.00  0.00    -0.060 A  
HETATM   15  C   UNL     1      -7.546   7.104  67.789  1.00  0.00    -0.111 A  
HETATM   16  C   UNL     1      -8.793   7.741  67.776  1.00  0.00    -0.126 A  
HETATM   17  C   UNL     1      -9.237   8.409  66.629  1.00  0.00    -0.226 A  
BRANCH  15  18
HETATM   18  C   UNL     1      -7.077   6.339  69.004  1.00  0.00    -0.081 C  
BRANCH  18  19
HETATM   19  C   UNL     1      -8.130   5.365  69.536  1.00  0.00    -0.096 C  
BRANCH  19  20
HETATM   20  O   UNL     1      -8.178   5.439  70.963  1.00  0.00    -0.113 OA 
BRANCH  20  21
HETATM   21  C   UNL     1      -9.229   6.309  71.385  1.00  0.00    -0.149 C  
BRANCH  21  22
HETATM   22  C   UNL     1      -8.984   6.723  72.799  1.00  0.00    -0.139 C  
HETATM   23  C   UNL     1      -7.755   7.534  73.131  1.00  0.00    -0.123 C  
HETATM   24  C   UNL     1      -9.117   8.165  73.222  1.00  0.00    -0.327 C  
ENDBRANCH  21  22
ENDBRANCH  20  21
ENDBRANCH  19  20
ENDBRANCH  18  19
ENDBRANCH  15  18
ENDBRANCH  11  12
ENDBRANCH  10  11
ENDBRANCH   7  10
ENDBRANCH   6   7
ENDBRANCH   4   6
ENDBRANCH   2   4
TORSDOF 11
ENDMDL
MODEL      265
REMARK 921   NORMALIZED FREE ENERGY PREDICTED BY IDOCK:   -3.03 KCAL/MOL
REMARK 922        TOTAL FREE ENERGY PREDICTED BY IDOCK:   -6.32 KCAL/MOL
REMARK 923 INTER-LIGAND FREE ENERGY PREDICTED BY IDOCK:   -4.64 KCAL/MOL
REMARK 924 INTRA-LIGAND FREE ENERGY PREDICTED BY IDOCK:   -1.68 KCAL/MOL
REMARK 927      BINDING AFFINITY PREDICTED BY RF-SCORE:    0.00 PKD
ROOT
HETATM    1  C   UNL     1     -10.807   6.903  69.863  1.00  0.00    -0.294 C  
HETATM    2  C   UNL     1     -10.750   5.735  68.878  1.00  0.00    -0.263 C  
HETATM    3  C   UNL     1     -11.033   6.243  67.460  1.00  0.00    -0.444 C  
ENDROOT
BRANCH   2   4
HETATM    4  N   UNL     1      -9.449   5.053  68.863  1.00  0.00    -0.130 NA 
HETATM    5  H   UNL     1      -9.256   4.684  67.932  1.00  0.00     0.000 HD 
BRANCH   4   6
HETATM    6  C   UNL     1      -8.316   5.862  69.332  1.00  0.00    -0.114 C  
BRANCH   6   7
HETATM    7  C   UNL     1      -7.209   6.165  68.304  1.00  0.00    -0.084 C  
HETATM    8  O   UNL     1      -5.944   6.170  68.986  1.00  0.00    -0.022 OA 
HETATM    9  H   UNL     1      -5.261   6.357  68.353  1.00  0.00     0.000 HD 
BRANCH   7  10
HETATM   10  C   UNL     1      -7.417   7.518  67.617  1.00  0.00    -0.104 C  
BRANCH  10  11
HETATM   11  O   UNL     1      -7.397   8.541  68.629  1.00  0.00    -0.084 OA 
BRANCH  11  12
HETATM   12  C   UNL     1      -8.103   9.679  68.341  1.00  0.00    -0.104 A  
HETATM   13  C   UNL     1      -7.676  10.981  68.604  1.00  0.00    -0.132 A  
HETATM   14  C   UNL     1      -8.504  12.067  68.306  1.00  0.00    -0.167 A  
HETATM   15  C   UNL     1      -9.759  11.876  67.716  1.00  0.00    -0.189 A  
HETATM   16  C   UNL     1     -10.171  10.568  67.430  1.00  0.00    -0.253 A  
HETATM   17  C   UNL     1      -9.346   9.480  67.739  1.00  0.00    -0.143 A  
BRANCH  15  18
HETATM   18  C   UNL     1     -10.660  13.054  67.432  1.00  0.00    -0.239 C  
BRANCH  18  19
HETATM   19  C   UNL     1     -11.905  13.077  68.320  1.00  0.00    -0.343 C  
BRANCH  19  20
HETATM   20  O   UNL     1     -11.520  12.963  69.692  1.00  0.00    -0.250 OA 
BRANCH  20  21
HETATM   21  C   UNL     1     -12.649  12.637  70.504  1.00  0.00    -0.100 C  
BRANCH  21  22
HETATM   22  C   UNL     1     -12.303  11.479  71.382  1.00  0.00    -0.236 C  
HETATM   23  C   UNL     1     -12.998  10.157  71.170  1.00  0.00    -0.488 C  
HETATM   24  C   UNL     1     -11.538  10.296  70.842  1.00  0.00    -0.454 C  
ENDBRANCH  21  22
ENDBRANCH  20  21
ENDBRANCH  19  20
ENDBRANCH  18  19
ENDBRANCH  15  18
ENDBRANCH  11  12
ENDBRANCH  10  11
ENDBRANCH   7  10
ENDBRANCH   6   7
ENDBRANCH   4   6
ENDBRANCH   2   4
TORSDOF 11
ENDMDL
MODEL      266
REMARK 921   NORMALIZED FREE ENERGY PREDICTED BY IDOCK:   -3.03 KCAL/MOL
REMARK 922        TOTAL FREE ENERGY PREDICTED BY IDOCK:   -6.30 KCAL/MOL
REMARK 923 INTER-LIGAND FREE ENERGY PREDICTED BY IDOCK:   -5.94 KCAL/MOL
REMARK 924 INTRA-LIGAND FREE ENERGY PREDICTED BY IDOCK:   -0.36 KCAL/MOL
REMARK 927      BINDING AFFINITY PREDICTED BY RF-SCORE:    0.00 PKD
ROOT
HETATM    1  C   UNL     1     -12.224  14.272  64.304  1.00  0.00    -0.451 C  
HETATM    2  C   UNL     1     -10.742  14.469  64.621  1.00  0.00    -0.310 C  
HETATM    3  C   UNL     1     -10.593  15.355  65.862  1.00  0.00    -0.349 C  
ENDROOT
BRANCH   2   4
HETATM    4  N   UNL     1     -10.033  13.208  64.879  1.00  0.00    -0.551 NA 
HETATM    5  H   UNL     1      -9.379  13.324  65.653  1.00  0.00     0.000 HD 
BRANCH   4   6
HETATM    6  C   UNL     1     -10.898  12.045  65.116  1.00  0.00    -0.300 C  
BRANCH   6   7
HETATM    7  C   UNL     1     -11.009  11.549  66.571  1.00  0.00    -0.293 C  
HETATM    8  O   UNL     1     -12.266  11.990  67.108  1.00  0.00    -0.505 OA 
HETATM    9  H   UNL     1     -12.335  11.685  68.005  1.00  0.00     0.000 HD 
BRANCH   7  10
HETATM   10  C   UNL     1      -9.872  12.083  67.448  1.00  0.00    -0.184 C  
BRANCH  10  11
HETATM   11  O   UNL     1     -10.359  12.189  68.797  1.00  0.00    -0.215 OA 
BRANCH  11  12
HETATM   12  C   UNL     1     -10.325  11.037  69.538  1.00  0.00    -0.040 A  
HETATM   13  C   UNL     1     -11.414  10.471  70.199  1.00  0.00    -0.405 A  
HETATM   14  C   UNL     1     -11.249   9.312  70.963  1.00  0.00    -0.392 A  
HETATM   15  C   UNL     1     -10.002   8.685  71.060  1.00  0.00    -0.272 A  
HETATM   16  C   UNL     1      -8.917   9.243  70.373  1.00  0.00    -0.278 A  
HETATM   17  C   UNL     1      -9.081  10.409  69.616  1.00  0.00    -0.074 A  
BRANCH  15  18
HETATM   18  C   UNL     1      -9.827   7.454  71.919  1.00  0.00    -0.187 C  
BRANCH  18  19
HETATM   19  C   UNL     1     -10.755   6.309  71.510  1.00  0.00    -0.245 C  
BRANCH  19  20
HETATM   20  O   UNL     1     -11.640   5.997  72.589  1.00  0.00    -0.279 OA 
BRANCH  20  21
HETATM   21  C   UNL     1     -11.497   4.630  72.974  1.00  0.00    -0.162 C  
BRANCH  21  22
HETATM   22  C   UNL     1     -10.114   4.170  72.645  1.00  0.00    -0.225 C  
HETATM   23  C   UNL     1      -8.980   4.507  73.582  1.00  0.00    -0.103 C  
HETATM   24  C   UNL     1      -9.444   3.084  73.449  1.00  0.00    -0.119 C  
ENDBRANCH  21  22
ENDBRANCH  20  21
ENDBRANCH  19  20
ENDBRANCH  18  19
ENDBRANCH  15  18
ENDBRANCH  11  12
ENDBRANCH  10  11
ENDBRANCH   7  10
ENDBRANCH   6   7
ENDBRANCH   4   6
ENDBRANCH   2   4
TORSDOF 11
ENDMDL
MODEL      267
REMARK 921   NORMALIZED FREE ENERGY PREDICTED BY IDOCK:   -3.02 KCAL/MOL
REMARK 922        TOTAL FREE ENERGY PREDICTED BY IDOCK:   -6.30 KCAL/MOL
REMARK 923 INTER-LIGAND FREE ENERGY PREDICTED BY IDOCK:   -4.73 KCAL/MOL
REMARK 924 INTRA-LIGAND FREE ENERGY PREDICTED BY IDOCK:   -1.57 KCAL/MOL
REMARK 927      BINDING AFFINITY PREDICTED BY RF-SCORE:    0.00 PKD
ROOT
HETATM    1  C   UNL     1     -12.013  13.695  68.167  1.00  0.00    -0.390 C  
HETATM    2  C   UNL     1     -11.012  12.651  68.662  1.00  0.00    -0.256 C  
HETATM    3  C   UNL     1     -11.678  11.271  68.689  1.00  0.00    -0.391 C  
ENDROOT
BRANCH   2   4
HETATM    4  N   UNL     1      -9.810  12.557  67.823  1.00  0.00    -0.199 NA 
HETATM    5  H   UNL     1      -9.236  13.393  67.935  1.00  0.00     0.000 HD 
BRANCH   4   6
HETATM    6  C   UNL     1      -8.997  11.352  68.033  1.00  0.00    -0.163 C  
BRANCH   6   7
HETATM    7  C   UNL     1      -8.062  10.938  66.879  1.00  0.00    -0.137 C  
HETATM    8  O   UNL     1      -8.525  11.562  65.671  1.00  0.00    -0.380 OA 
HETATM    9  H   UNL     1      -7.949  11.306  64.960  1.00  0.00     0.000 HD 
BRANCH   7  10
HETATM   10  C   UNL     1      -8.032   9.419  66.683  1.00  0.00    -0.108 C  
BRANCH  10  11
HETATM   11  O   UNL     1      -9.250   8.874  67.219  1.00  0.00    -0.135 OA 
BRANCH  11  12
HETATM   12  C   UNL     1      -9.122   7.708  67.927  1.00  0.00    -0.134 A  
HETATM   13  C   UNL     1      -9.643   6.472  67.546  1.00  0.00    -0.137 A  
HETATM   14  C   UNL     1      -9.487   5.356  68.374  1.00  0.00    -0.153 A  
HETATM   15  C   UNL     1      -8.787   5.449  69.583  1.00  0.00    -0.123 A  
HETATM   16  C   UNL     1      -8.243   6.687  69.948  1.00  0.00    -0.127 A  
HETATM   17  C   UNL     1      -8.409   7.806  69.123  1.00  0.00    -0.134 A  
BRANCH  15  18
HETATM   18  C   UNL     1      -8.655   4.246  70.487  1.00  0.00    -0.109 C  
BRANCH  18  19
HETATM   19  C   UNL     1      -9.264   4.475  71.871  1.00  0.00    -0.136 C  
BRANCH  19  20
HETATM   20  O   UNL     1     -10.667   4.723  71.746  1.00  0.00    -0.111 OA 
BRANCH  20  21
HETATM   21  C   UNL     1     -11.090   5.696  72.701  1.00  0.00    -0.282 C  
BRANCH  21  22
HETATM   22  C   UNL     1     -11.384   6.979  71.995  1.00  0.00    -0.300 C  
HETATM   23  C   UNL     1     -11.908   6.943  70.581  1.00  0.00    -0.418 C  
HETATM   24  C   UNL     1     -12.803   7.398  71.700  1.00  0.00    -0.406 C  
ENDBRANCH  21  22
ENDBRANCH  20  21
ENDBRANCH  19  20
ENDBRANCH  18  19
ENDBRANCH  15  18
ENDBRANCH  11  12
ENDBRANCH  10  11
ENDBRANCH   7  10
ENDBRANCH   6   7
ENDBRANCH   4   6
ENDBRANCH   2   4
TORSDOF 11
ENDMDL
MODEL      268
REMARK 921   NORMALIZED FREE ENERGY PREDICTED BY IDOCK:   -3.02 KCAL/MOL
REMARK 922        TOTAL FREE ENERGY PREDICTED BY IDOCK:   -6.30 KCAL/MOL
REMARK 923 INTER-LIGAND FREE ENERGY PREDICTED BY IDOCK:   -5.37 KCAL/MOL
REMARK 924 INTRA-LIGAND FREE ENERGY PREDICTED BY IDOCK:   -0.93 KCAL/MOL
REMARK 927      BINDING AFFINITY PREDICTED BY RF-SCORE:    0.00 PKD
ROOT
HETATM    1  C   UNL     1     -10.760   7.136  69.937  1.00  0.00    -0.258 C  
HETATM    2  C   UNL     1     -10.684   5.960  68.961  1.00  0.00    -0.309 C  
HETATM    3  C   UNL     1     -11.246   6.384  67.600  1.00  0.00    -0.269 C  
ENDROOT
BRANCH   2   4
HETATM    4  N   UNL     1      -9.315   5.469  68.752  1.00  0.00    -0.122 NA 
HETATM    5  H   UNL     1      -9.266   4.920  67.894  1.00  0.00     0.000 HD 
BRANCH   4   6
HETATM    6  C   UNL     1      -8.275   6.506  68.751  1.00  0.00    -0.119 C  
BRANCH   6   7
HETATM    7  C   UNL     1      -7.529   6.736  67.422  1.00  0.00    -0.096 C  
HETATM    8  O   UNL     1      -6.163   7.071  67.719  1.00  0.00    -0.038 OA 
HETATM    9  H   UNL     1      -5.703   7.213  66.900  1.00  0.00     0.000 HD 
BRANCH   7  10
HETATM   10  C   UNL     1      -8.157   7.864  66.599  1.00  0.00    -0.107 C  
BRANCH  10  11
HETATM   11  O   UNL     1      -8.025   9.088  67.343  1.00  0.00    -0.099 OA 
BRANCH  11  12
HETATM   12  C   UNL     1      -8.940  10.066  67.054  1.00  0.00    -0.138 A  
HETATM   13  C   UNL     1      -8.749  11.107  66.145  1.00  0.00    -0.188 A  
HETATM   14  C   UNL     1      -9.741  12.075  65.964  1.00  0.00    -0.256 A  
HETATM   15  C   UNL     1     -10.950  12.006  66.666  1.00  0.00    -0.330 A  
HETATM   16  C   UNL     1     -11.148  10.944  67.557  1.00  0.00    -0.375 A  
HETATM   17  C   UNL     1     -10.150   9.981  67.745  1.00  0.00    -0.222 A  
BRANCH  15  18
HETATM   18  C   UNL     1     -12.000  13.078  66.490  1.00  0.00    -0.457 C  
BRANCH  18  19
HETATM   19  C   UNL     1     -12.011  14.092  67.634  1.00  0.00    -0.368 C  
BRANCH  19  20
HETATM   20  O   UNL     1     -10.791  14.837  67.630  1.00  0.00    -0.272 OA 
BRANCH  20  21
HETATM   21  C   UNL     1     -10.724  15.681  66.480  1.00  0.00    -0.293 C  
BRANCH  21  22
HETATM   22  C   UNL     1      -9.851  16.855  66.786  1.00  0.00    -0.284 C  
HETATM   23  C   UNL     1     -10.366  18.249  66.519  1.00  0.00    -0.410 C  
HETATM   24  C   UNL     1     -10.167  17.781  67.934  1.00  0.00    -0.362 C  
ENDBRANCH  21  22
ENDBRANCH  20  21
ENDBRANCH  19  20
ENDBRANCH  18  19
ENDBRANCH  15  18
ENDBRANCH  11  12
ENDBRANCH  10  11
ENDBRANCH   7  10
ENDBRANCH   6   7
ENDBRANCH   4   6
ENDBRANCH   2   4
TORSDOF 11
ENDMDL
MODEL      269
REMARK 921   NORMALIZED FREE ENERGY PREDICTED BY IDOCK:   -3.02 KCAL/MOL
REMARK 922        TOTAL FREE ENERGY PREDICTED BY IDOCK:   -6.30 KCAL/MOL
REMARK 923 INTER-LIGAND FREE ENERGY PREDICTED BY IDOCK:   -5.17 KCAL/MOL
REMARK 924 INTRA-LIGAND FREE ENERGY PREDICTED BY IDOCK:   -1.13 KCAL/MOL
REMARK 927      BINDING AFFINITY PREDICTED BY RF-SCORE:    0.00 PKD
ROOT
HETATM    1  C   UNL     1     -12.505  11.985  63.357  1.00  0.00    -0.625 C  
HETATM    2  C   UNL     1     -11.806  12.874  64.386  1.00  0.00    -0.383 C  
HETATM    3  C   UNL     1     -11.930  14.342  63.967  1.00  0.00    -0.288 C  
ENDROOT
BRANCH   2   4
HETATM    4  N   UNL     1     -12.364  12.741  65.739  1.00  0.00    -0.594 NA 
HETATM    5  H   UNL     1     -12.003  11.899  66.187  1.00  0.00     0.000 HD 
BRANCH   4   6
HETATM    6  C   UNL     1     -12.164  13.905  66.612  1.00  0.00    -0.424 C  
BRANCH   6   7
HETATM    7  C   UNL     1     -11.934  13.618  68.108  1.00  0.00    -0.355 C  
HETATM    8  O   UNL     1     -12.374  14.758  68.864  1.00  0.00    -0.568 OA 
HETATM    9  H   UNL     1     -12.232  14.581  69.787  1.00  0.00     0.000 HD 
BRANCH   7  10
HETATM   10  C   UNL     1     -10.460  13.345  68.420  1.00  0.00    -0.250 C  
BRANCH  10  11
HETATM   11  O   UNL     1      -9.758  13.197  67.173  1.00  0.00    -0.224 OA 
BRANCH  11  12
HETATM   12  C   UNL     1      -8.979  12.077  67.054  1.00  0.00    -0.198 A  
HETATM   13  C   UNL     1      -9.116  11.099  66.068  1.00  0.00    -0.217 A  
HETATM   14  C   UNL     1      -8.288   9.973  66.073  1.00  0.00    -0.126 A  
HETATM   15  C   UNL     1      -7.293   9.815  67.044  1.00  0.00    -0.091 A  
HETATM   16  C   UNL     1      -7.142  10.813  68.016  1.00  0.00    -0.081 A  
HETATM   17  C   UNL     1      -7.979  11.935  68.017  1.00  0.00    -0.147 A  
BRANCH  15  18
HETATM   18  C   UNL     1      -6.428   8.577  67.062  1.00  0.00    -0.057 C  
BRANCH  18  19
HETATM   19  C   UNL     1      -6.883   7.550  68.099  1.00  0.00    -0.063 C  
BRANCH  19  20
HETATM   20  O   UNL     1      -7.326   6.361  67.439  1.00  0.00    -0.083 OA 
BRANCH  20  21
HETATM   21  C   UNL     1      -6.891   6.352  66.079  1.00  0.00    -0.057 C  
BRANCH  21  22
HETATM   22  C   UNL     1      -8.026   5.927  65.205  1.00  0.00    -0.115 C  
HETATM   23  C   UNL     1      -7.839   4.762  64.265  1.00  0.00    -0.086 C  
HETATM   24  C   UNL     1      -8.752   4.628  65.452  1.00  0.00    -0.134 C  
ENDBRANCH  21  22
ENDBRANCH  20  21
ENDBRANCH  19  20
ENDBRANCH  18  19
ENDBRANCH  15  18
ENDBRANCH  11  12
ENDBRANCH  10  11
ENDBRANCH   7  10
ENDBRANCH   6   7
ENDBRANCH   4   6
ENDBRANCH   2   4
TORSDOF 11
ENDMDL
MODEL      270
REMARK 921   NORMALIZED FREE ENERGY PREDICTED BY IDOCK:   -3.00 KCAL/MOL
REMARK 922        TOTAL FREE ENERGY PREDICTED BY IDOCK:   -6.27 KCAL/MOL
REMARK 923 INTER-LIGAND FREE ENERGY PREDICTED BY IDOCK:   -5.72 KCAL/MOL
REMARK 924 INTRA-LIGAND FREE ENERGY PREDICTED BY IDOCK:   -0.54 KCAL/MOL
REMARK 927      BINDING AFFINITY PREDICTED BY RF-SCORE:    0.00 PKD
ROOT
HETATM    1  C   UNL     1      -8.998   5.194  67.955  1.00  0.00    -0.117 C  
HETATM    2  C   UNL     1     -10.399   5.635  67.532  1.00  0.00    -0.222 C  
HETATM    3  C   UNL     1     -11.201   6.060  68.767  1.00  0.00    -0.212 C  
ENDROOT
BRANCH   2   4
HETATM    4  N   UNL     1     -10.392   6.761  66.588  1.00  0.00    -0.443 NA 
HETATM    5  H   UNL     1     -11.063   6.597  65.838  1.00  0.00     0.000 HD 
BRANCH   4   6
HETATM    6  C   UNL     1     -10.621   8.081  67.192  1.00  0.00    -0.297 C  
BRANCH   6   7
HETATM    7  C   UNL     1      -9.623   9.195  66.821  1.00  0.00    -0.195 C  
HETATM    8  O   UNL     1      -8.703   8.676  65.847  1.00  0.00    -0.151 OA 
HETATM    9  H   UNL     1      -8.088   9.363  65.618  1.00  0.00     0.000 HD 
BRANCH   7  10
HETATM   10  C   UNL     1      -8.840   9.694  68.039  1.00  0.00    -0.119 C  
BRANCH  10  11
HETATM   11  O   UNL     1      -9.661  10.644  68.740  1.00  0.00    -0.173 OA 
BRANCH  11  12
HETATM   12  C   UNL     1      -9.607  11.934  68.283  1.00  0.00    -0.201 A  
HETATM   13  C   UNL     1     -10.688  12.813  68.219  1.00  0.00    -0.257 A  
HETATM   14  C   UNL     1     -10.522  14.097  67.691  1.00  0.00    -0.245 A  
HETATM   15  C   UNL     1      -9.270  14.534  67.241  1.00  0.00    -0.213 A  
HETATM   16  C   UNL     1      -8.183  13.655  67.332  1.00  0.00    -0.187 A  
HETATM   17  C   UNL     1      -8.352  12.367  67.852  1.00  0.00    -0.165 A  
BRANCH  15  18
HETATM   18  C   UNL     1      -9.109  15.909  66.638  1.00  0.00    -0.290 C  
BRANCH  18  19
HETATM   19  C   UNL     1     -10.410  16.713  66.639  1.00  0.00    -0.296 C  
BRANCH  19  20
HETATM   20  O   UNL     1     -10.323  17.771  67.597  1.00  0.00    -0.342 OA 
BRANCH  20  21
HETATM   21  C   UNL     1     -10.740  19.007  67.017  1.00  0.00    -0.432 C  
BRANCH  21  22
HETATM   22  C   UNL     1      -9.555  19.692  66.418  1.00  0.00    -0.490 C  
HETATM   23  C   UNL     1      -8.697  20.580  67.286  1.00  0.00    -0.387 C  
HETATM   24  C   UNL     1      -8.151  19.274  66.780  1.00  0.00    -0.290 C  
ENDBRANCH  21  22
ENDBRANCH  20  21
ENDBRANCH  19  20
ENDBRANCH  18  19
ENDBRANCH  15  18
ENDBRANCH  11  12
ENDBRANCH  10  11
ENDBRANCH   7  10
ENDBRANCH   6   7
ENDBRANCH   4   6
ENDBRANCH   2   4
TORSDOF 11
ENDMDL
MODEL      271
REMARK 921   NORMALIZED FREE ENERGY PREDICTED BY IDOCK:   -3.00 KCAL/MOL
REMARK 922        TOTAL FREE ENERGY PREDICTED BY IDOCK:   -6.27 KCAL/MOL
REMARK 923 INTER-LIGAND FREE ENERGY PREDICTED BY IDOCK:   -4.98 KCAL/MOL
REMARK 924 INTRA-LIGAND FREE ENERGY PREDICTED BY IDOCK:   -1.28 KCAL/MOL
REMARK 927      BINDING AFFINITY PREDICTED BY RF-SCORE:    0.00 PKD
ROOT
HETATM    1  C   UNL     1     -11.768  11.580  69.392  1.00  0.00    -0.413 C  
HETATM    2  C   UNL     1     -11.730  12.308  68.048  1.00  0.00    -0.356 C  
HETATM    3  C   UNL     1     -11.913  13.813  68.273  1.00  0.00    -0.392 C  
ENDROOT
BRANCH   2   4
HETATM    4  N   UNL     1     -10.470  12.111  67.318  1.00  0.00    -0.215 NA 
HETATM    5  H   UNL     1      -9.778  11.669  67.924  1.00  0.00     0.000 HD 
BRANCH   4   6
HETATM    6  C   UNL     1     -10.591  11.364  66.059  1.00  0.00    -0.266 C  
BRANCH   6   7
HETATM    7  C   UNL     1      -9.729  10.094  65.922  1.00  0.00    -0.232 C  
HETATM    8  O   UNL     1      -9.771   9.660  64.553  1.00  0.00    -0.422 OA 
HETATM    9  H   UNL     1      -9.240   8.877  64.468  1.00  0.00     0.000 HD 
BRANCH   7  10
HETATM   10  C   UNL     1     -10.228   8.961  66.824  1.00  0.00    -0.278 C  
BRANCH  10  11
HETATM   11  O   UNL     1      -9.118   8.089  67.102  1.00  0.00    -0.131 OA 
BRANCH  11  12
HETATM   12  C   UNL     1      -8.687   8.064  68.403  1.00  0.00    -0.130 A  
HETATM   13  C   UNL     1      -7.865   7.087  68.962  1.00  0.00    -0.115 A  
HETATM   14  C   UNL     1      -7.525   7.142  70.317  1.00  0.00    -0.085 A  
HETATM   15  C   UNL     1      -7.979   8.187  71.130  1.00  0.00    -0.103 A  
HETATM   16  C   UNL     1      -8.783   9.181  70.557  1.00  0.00    -0.258 A  
HETATM   17  C   UNL     1      -9.131   9.118  69.203  1.00  0.00    -0.144 A  
BRANCH  15  18
HETATM   18  C   UNL     1      -7.636   8.218  72.601  1.00  0.00    -0.160 C  
BRANCH  18  19
HETATM   19  C   UNL     1      -8.344   7.121  73.398  1.00  0.00    -0.118 C  
BRANCH  19  20
HETATM   20  O   UNL     1      -9.698   7.506  73.648  1.00  0.00    -0.270 OA 
BRANCH  20  21
HETATM   21  C   UNL     1     -10.599   6.511  73.161  1.00  0.00    -0.265 C  
BRANCH  21  22
HETATM   22  C   UNL     1      -9.813   5.371  72.600  1.00  0.00    -0.184 C  
HETATM   23  C   UNL     1     -10.457   4.010  72.494  1.00  0.00    -0.190 C  
HETATM   24  C   UNL     1     -10.143   4.790  71.247  1.00  0.00    -0.258 C  
ENDBRANCH  21  22
ENDBRANCH  20  21
ENDBRANCH  19  20
ENDBRANCH  18  19
ENDBRANCH  15  18
ENDBRANCH  11  12
ENDBRANCH  10  11
ENDBRANCH   7  10
ENDBRANCH   6   7
ENDBRANCH   4   6
ENDBRANCH   2   4
TORSDOF 11
ENDMDL
MODEL      272
REMARK 921   NORMALIZED FREE ENERGY PREDICTED BY IDOCK:   -2.99 KCAL/MOL
REMARK 922        TOTAL FREE ENERGY PREDICTED BY IDOCK:   -6.25 KCAL/MOL
REMARK 923 INTER-LIGAND FREE ENERGY PREDICTED BY IDOCK:   -5.68 KCAL/MOL
REMARK 924 INTRA-LIGAND FREE ENERGY PREDICTED BY IDOCK:   -0.58 KCAL/MOL
REMARK 927      BINDING AFFINITY PREDICTED BY RF-SCORE:    0.00 PKD
ROOT
HETATM    1  C   UNL     1      -9.283  14.231  67.494  1.00  0.00    -0.197 C  
HETATM    2  C   UNL     1     -10.492  14.737  68.281  1.00  0.00    -0.241 C  
HETATM    3  C   UNL     1     -11.755  14.611  67.423  1.00  0.00    -0.413 C  
ENDROOT
BRANCH   2   4
HETATM    4  N   UNL     1     -10.719  14.000  69.532  1.00  0.00    -0.444 NA 
HETATM    5  H   UNL     1     -10.830  14.651  70.309  1.00  0.00     0.000 HD 
BRANCH   4   6
HETATM    6  C   UNL     1     -11.842  13.053  69.501  1.00  0.00    -0.323 C  
BRANCH   6   7
HETATM    7  C   UNL     1     -11.498  11.582  69.196  1.00  0.00    -0.297 C  
HETATM    8  O   UNL     1     -12.152  11.205  67.973  1.00  0.00    -0.674 OA 
HETATM    9  H   UNL     1     -11.940  10.298  67.785  1.00  0.00     0.000 HD 
BRANCH   7  10
HETATM   10  C   UNL     1     -11.951  10.642  70.318  1.00  0.00    -0.339 C  
BRANCH  10  11
HETATM   11  O   UNL     1     -10.779  10.046  70.902  1.00  0.00    -0.300 OA 
BRANCH  11  12
HETATM   12  C   UNL     1     -10.491   8.770  70.493  1.00  0.00    -0.209 A  
HETATM   13  C   UNL     1      -9.432   8.410  69.661  1.00  0.00    -0.166 A  
HETATM   14  C   UNL     1      -9.261   7.078  69.274  1.00  0.00    -0.139 A  
HETATM   15  C   UNL     1     -10.128   6.079  69.733  1.00  0.00    -0.246 A  
HETATM   16  C   UNL     1     -11.174   6.442  70.590  1.00  0.00    -0.400 A  
HETATM   17  C   UNL     1     -11.350   7.778  70.968  1.00  0.00    -0.287 A  
BRANCH  15  18
HETATM   18  C   UNL     1      -9.956   4.648  69.279  1.00  0.00    -0.231 C  
BRANCH  18  19
HETATM   19  C   UNL     1      -8.509   4.310  68.917  1.00  0.00    -0.082 C  
BRANCH  19  20
HETATM   20  O   UNL     1      -8.316   4.466  67.509  1.00  0.00    -0.099 OA 
BRANCH  20  21
HETATM   21  C   UNL     1      -9.547   4.277  66.811  1.00  0.00    -0.202 C  
BRANCH  21  22
HETATM   22  C   UNL     1      -9.348   4.609  65.368  1.00  0.00    -0.160 C  
HETATM   23  C   UNL     1      -8.084   4.162  64.674  1.00  0.00    -0.090 C  
HETATM   24  C   UNL     1      -9.400   3.535  64.309  1.00  0.00    -0.138 C  
ENDBRANCH  21  22
ENDBRANCH  20  21
ENDBRANCH  19  20
ENDBRANCH  18  19
ENDBRANCH  15  18
ENDBRANCH  11  12
ENDBRANCH  10  11
ENDBRANCH   7  10
ENDBRANCH   6   7
ENDBRANCH   4   6
ENDBRANCH   2   4
TORSDOF 11
ENDMDL
MODEL      273
REMARK 921   NORMALIZED FREE ENERGY PREDICTED BY IDOCK:   -2.99 KCAL/MOL
REMARK 922        TOTAL FREE ENERGY PREDICTED BY IDOCK:   -6.25 KCAL/MOL
REMARK 923 INTER-LIGAND FREE ENERGY PREDICTED BY IDOCK:   -5.34 KCAL/MOL
REMARK 924 INTRA-LIGAND FREE ENERGY PREDICTED BY IDOCK:   -0.91 KCAL/MOL
REMARK 927      BINDING AFFINITY PREDICTED BY RF-SCORE:    0.00 PKD
ROOT
HETATM    1  C   UNL     1     -12.032   6.726  70.449  1.00  0.00    -0.343 C  
HETATM    2  C   UNL     1     -10.771   7.263  69.772  1.00  0.00    -0.239 C  
HETATM    3  C   UNL     1     -10.141   8.352  70.647  1.00  0.00    -0.220 C  
ENDROOT
BRANCH   2   4
HETATM    4  N   UNL     1      -9.755   6.229  69.536  1.00  0.00    -0.145 NA 
HETATM    5  H   UNL     1      -9.770   5.542  70.289  1.00  0.00     0.000 HD 
BRANCH   4   6
HETATM    6  C   UNL     1      -9.843   5.555  68.234  1.00  0.00    -0.144 C  
BRANCH   6   7
HETATM    7  C   UNL     1     -10.480   6.356  67.081  1.00  0.00    -0.277 C  
HETATM    8  O   UNL     1     -11.200   5.443  66.236  1.00  0.00    -0.709 OA 
HETATM    9  H   UNL     1     -11.592   5.937  65.525  1.00  0.00     0.000 HD 
BRANCH   7  10
HETATM   10  C   UNL     1      -9.430   7.095  66.247  1.00  0.00    -0.067 C  
BRANCH  10  11
HETATM   11  O   UNL     1      -8.588   7.839  67.145  1.00  0.00    -0.125 OA 
BRANCH  11  12
HETATM   12  C   UNL     1      -8.803   9.191  67.184  1.00  0.00    -0.119 A  
HETATM   13  C   UNL     1      -8.234  10.072  68.103  1.00  0.00    -0.109 A  
HETATM   14  C   UNL     1      -8.564  11.430  68.074  1.00  0.00    -0.147 A  
HETATM   15  C   UNL     1      -9.445  11.937  67.112  1.00  0.00    -0.180 A  
HETATM   16  C   UNL     1      -9.993  11.052  66.175  1.00  0.00    -0.277 A  
HETATM   17  C   UNL     1      -9.671   9.691  66.211  1.00  0.00    -0.303 A  
BRANCH  15  18
HETATM   18  C   UNL     1      -9.822  13.400  67.112  1.00  0.00    -0.237 C  
BRANCH  18  19
HETATM   19  C   UNL     1     -11.308  13.629  66.836  1.00  0.00    -0.327 C  
BRANCH  19  20
HETATM   20  O   UNL     1     -11.586  15.032  66.830  1.00  0.00    -0.312 OA 
BRANCH  20  21
HETATM   21  C   UNL     1     -11.010  15.662  67.974  1.00  0.00    -0.318 C  
BRANCH  21  22
HETATM   22  C   UNL     1     -10.065  16.728  67.523  1.00  0.00    -0.276 C  
HETATM   23  C   UNL     1      -9.096  17.325  68.513  1.00  0.00    -0.269 C  
HETATM   24  C   UNL     1      -8.587  16.454  67.398  1.00  0.00    -0.193 C  
ENDBRANCH  21  22
ENDBRANCH  20  21
ENDBRANCH  19  20
ENDBRANCH  18  19
ENDBRANCH  15  18
ENDBRANCH  11  12
ENDBRANCH  10  11
ENDBRANCH   7  10
ENDBRANCH   6   7
ENDBRANCH   4   6
ENDBRANCH   2   4
TORSDOF 11
ENDMDL
MODEL      274
REMARK 921   NORMALIZED FREE ENERGY PREDICTED BY IDOCK:   -2.99 KCAL/MOL
REMARK 922        TOTAL FREE ENERGY PREDICTED BY IDOCK:   -6.25 KCAL/MOL
REMARK 923 INTER-LIGAND FREE ENERGY PREDICTED BY IDOCK:   -4.81 KCAL/MOL
REMARK 924 INTRA-LIGAND FREE ENERGY PREDICTED BY IDOCK:   -1.44 KCAL/MOL
REMARK 927      BINDING AFFINITY PREDICTED BY RF-SCORE:    0.00 PKD
ROOT
HETATM    1  C   UNL     1     -11.615  10.720  69.300  1.00  0.00    -0.376 C  
HETATM    2  C   UNL     1     -11.128  12.072  68.775  1.00  0.00    -0.249 C  
HETATM    3  C   UNL     1     -11.855  13.202  69.512  1.00  0.00    -0.383 C  
ENDROOT
BRANCH   2   4
HETATM    4  N   UNL     1      -9.683  12.274  68.949  1.00  0.00    -0.417 NA 
HETATM    5  H   UNL     1      -9.259  11.444  69.363  1.00  0.00     0.000 HD 
BRANCH   4   6
HETATM    6  C   UNL     1      -8.958  12.660  67.732  1.00  0.00    -0.189 C  
BRANCH   6   7
HETATM    7  C   UNL     1      -8.268  11.527  66.948  1.00  0.00    -0.167 C  
HETATM    8  O   UNL     1      -7.031  12.028  66.417  1.00  0.00    -0.356 OA 
HETATM    9  H   UNL     1      -6.606  11.329  65.934  1.00  0.00     0.000 HD 
BRANCH   7  10
HETATM   10  C   UNL     1      -9.139  11.013  65.797  1.00  0.00    -0.202 C  
BRANCH  10  11
HETATM   11  O   UNL     1      -8.627   9.733  65.386  1.00  0.00    -0.135 OA 
BRANCH  11  12
HETATM   12  C   UNL     1      -8.877   8.688  66.234  1.00  0.00    -0.157 A  
HETATM   13  C   UNL     1      -7.913   7.832  66.767  1.00  0.00    -0.107 A  
HETATM   14  C   UNL     1      -8.292   6.769  67.591  1.00  0.00    -0.123 A  
HETATM   15  C   UNL     1      -9.637   6.556  67.918  1.00  0.00    -0.119 A  
HETATM   16  C   UNL     1     -10.598   7.434  67.402  1.00  0.00    -0.371 A  
HETATM   17  C   UNL     1     -10.218   8.492  66.569  1.00  0.00    -0.286 A  
BRANCH  15  18
HETATM   18  C   UNL     1     -10.039   5.382  68.779  1.00  0.00    -0.255 C  
BRANCH  18  19
HETATM   19  C   UNL     1      -9.109   4.179  68.615  1.00  0.00    -0.133 C  
BRANCH  19  20
HETATM   20  O   UNL     1      -9.740   3.190  67.797  1.00  0.00    -0.139 OA 
BRANCH  20  21
HETATM   21  C   UNL     1      -8.896   2.832  66.702  1.00  0.00    -0.144 C  
BRANCH  21  22
HETATM   22  C   UNL     1      -9.095   3.810  65.590  1.00  0.00    -0.147 C  
HETATM   23  C   UNL     1      -9.663   3.332  64.277  1.00  0.00    -0.162 C  
HETATM   24  C   UNL     1     -10.479   4.231  65.163  1.00  0.00    -0.195 C  
ENDBRANCH  21  22
ENDBRANCH  20  21
ENDBRANCH  19  20
ENDBRANCH  18  19
ENDBRANCH  15  18
ENDBRANCH  11  12
ENDBRANCH  10  11
ENDBRANCH   7  10
ENDBRANCH   6   7
ENDBRANCH   4   6
ENDBRANCH   2   4
TORSDOF 11
ENDMDL
MODEL      275
REMARK 921   NORMALIZED FREE ENERGY PREDICTED BY IDOCK:   -2.98 KCAL/MOL
REMARK 922        TOTAL FREE ENERGY PREDICTED BY IDOCK:   -6.23 KCAL/MOL
REMARK 923 INTER-LIGAND FREE ENERGY PREDICTED BY IDOCK:   -5.37 KCAL/MOL
REMARK 924 INTRA-LIGAND FREE ENERGY PREDICTED BY IDOCK:   -0.86 KCAL/MOL
REMARK 927      BINDING AFFINITY PREDICTED BY RF-SCORE:    0.00 PKD
ROOT
HETATM    1  C   UNL     1      -8.020  15.062  67.590  1.00  0.00    -0.178 C  
HETATM    2  C   UNL     1      -8.247  15.646  68.985  1.00  0.00    -0.233 C  
HETATM    3  C   UNL     1      -8.121  17.172  68.932  1.00  0.00    -0.203 C  
ENDROOT
BRANCH   2   4
HETATM    4  N   UNL     1      -9.567  15.320  69.542  1.00  0.00    -0.361 NA 
HETATM    5  H   UNL     1     -10.164  16.147  69.538  1.00  0.00     0.000 HD 
BRANCH   4   6
HETATM    6  C   UNL     1     -10.256  14.196  68.894  1.00  0.00    -0.175 C  
BRANCH   6   7
HETATM    7  C   UNL     1     -11.535  14.530  68.102  1.00  0.00    -0.312 C  
HETATM    8  O   UNL     1     -12.647  14.530  69.012  1.00  0.00    -0.568 OA 
HETATM    9  H   UNL     1     -13.435  14.737  68.524  1.00  0.00     0.000 HD 
BRANCH   7  10
HETATM   10  C   UNL     1     -11.799  13.517  66.984  1.00  0.00    -0.402 C  
BRANCH  10  11
HETATM   11  O   UNL     1     -12.085  12.245  67.591  1.00  0.00    -0.502 OA 
BRANCH  11  12
HETATM   12  C   UNL     1     -11.291  11.201  67.196  1.00  0.00    -0.181 A  
HETATM   13  C   UNL     1     -11.023  10.060  67.951  1.00  0.00    -0.311 A  
HETATM   14  C   UNL     1     -10.159   9.077  67.460  1.00  0.00    -0.285 A  
HETATM   15  C   UNL     1      -9.569   9.203  66.197  1.00  0.00    -0.333 A  
HETATM   16  C   UNL     1      -9.863  10.338  65.431  1.00  0.00    -0.362 A  
HETATM   17  C   UNL     1     -10.720  11.327  65.928  1.00  0.00    -0.291 A  
BRANCH  15  18
HETATM   18  C   UNL     1      -8.609   8.152  65.691  1.00  0.00    -0.181 C  
BRANCH  18  19
HETATM   19  C   UNL     1      -9.063   6.728  66.014  1.00  0.00    -0.072 C  
BRANCH  19  20
HETATM   20  O   UNL     1      -8.111   6.102  66.877  1.00  0.00    -0.107 OA 
BRANCH  20  21
HETATM   21  C   UNL     1      -7.056   7.008  67.200  1.00  0.00    -0.083 C  
BRANCH  21  22
HETATM   22  C   UNL     1      -6.832   6.994  68.677  1.00  0.00    -0.076 C  
HETATM   23  C   UNL     1      -7.887   6.401  69.579  1.00  0.00    -0.101 C  
HETATM   24  C   UNL     1      -6.566   5.702  69.410  1.00  0.00    -0.054 C  
ENDBRANCH  21  22
ENDBRANCH  20  21
ENDBRANCH  19  20
ENDBRANCH  18  19
ENDBRANCH  15  18
ENDBRANCH  11  12
ENDBRANCH  10  11
ENDBRANCH   7  10
ENDBRANCH   6   7
ENDBRANCH   4   6
ENDBRANCH   2   4
TORSDOF 11
ENDMDL
MODEL      276
REMARK 921   NORMALIZED FREE ENERGY PREDICTED BY IDOCK:   -2.97 KCAL/MOL
REMARK 922        TOTAL FREE ENERGY PREDICTED BY IDOCK:   -6.22 KCAL/MOL
REMARK 923 INTER-LIGAND FREE ENERGY PREDICTED BY IDOCK:   -5.17 KCAL/MOL
REMARK 924 INTRA-LIGAND FREE ENERGY PREDICTED BY IDOCK:   -1.04 KCAL/MOL
REMARK 927      BINDING AFFINITY PREDICTED BY RF-SCORE:    0.00 PKD
ROOT
HETATM    1  C   UNL     1     -10.963   4.153  72.903  1.00  0.00    -0.178 C  
HETATM    2  C   UNL     1      -9.648   3.482  73.303  1.00  0.00    -0.109 C  
HETATM    3  C   UNL     1      -9.635   2.035  72.798  1.00  0.00    -0.139 C  
ENDROOT
BRANCH   2   4
HETATM    4  N   UNL     1      -8.463   4.160  72.761  1.00  0.00    -0.100 NA 
HETATM    5  H   UNL     1      -7.911   4.562  73.519  1.00  0.00     0.000 HD 
BRANCH   4   6
HETATM    6  C   UNL     1      -7.612   3.332  71.898  1.00  0.00    -0.053 C  
BRANCH   6   7
HETATM    7  C   UNL     1      -7.591   3.687  70.399  1.00  0.00    -0.041 C  
HETATM    8  O   UNL     1      -6.288   4.194  70.068  1.00  0.00    -0.026 OA 
HETATM    9  H   UNL     1      -6.276   4.413  69.143  1.00  0.00     0.000 HD 
BRANCH   7  10
HETATM   10  C   UNL     1      -8.646   4.739  70.044  1.00  0.00    -0.082 C  
BRANCH  10  11
HETATM   11  O   UNL     1      -8.219   6.002  70.585  1.00  0.00    -0.116 OA 
BRANCH  11  12
HETATM   12  C   UNL     1      -9.182   6.971  70.675  1.00  0.00    -0.158 A  
HETATM   13  C   UNL     1      -8.955   8.306  71.010  1.00  0.00    -0.183 A  
HETATM   14  C   UNL     1     -10.026   9.198  71.114  1.00  0.00    -0.377 A  
HETATM   15  C   UNL     1     -11.338   8.781  70.860  1.00  0.00    -0.322 A  
HETATM   16  C   UNL     1     -11.557   7.446  70.498  1.00  0.00    -0.256 A  
HETATM   17  C   UNL     1     -10.485   6.551  70.404  1.00  0.00    -0.256 A  
BRANCH  15  18
HETATM   18  C   UNL     1     -12.492   9.744  71.010  1.00  0.00    -0.414 C  
BRANCH  18  19
HETATM   19  C   UNL     1     -12.301  11.029  70.203  1.00  0.00    -0.311 C  
BRANCH  19  20
HETATM   20  O   UNL     1     -12.194  12.145  71.090  1.00  0.00    -0.248 OA 
BRANCH  20  21
HETATM   21  C   UNL     1     -13.334  12.214  71.948  1.00  0.00    -0.318 C  
BRANCH  21  22
HETATM   22  C   UNL     1     -13.853  13.615  71.961  1.00  0.00    -0.565 C  
HETATM   23  C   UNL     1     -12.997  14.716  72.537  1.00  0.00    -0.492 C  
HETATM   24  C   UNL     1     -13.263  14.670  71.059  1.00  0.00    -0.431 C  
ENDBRANCH  21  22
ENDBRANCH  20  21
ENDBRANCH  19  20
ENDBRANCH  18  19
ENDBRANCH  15  18
ENDBRANCH  11  12
ENDBRANCH  10  11
ENDBRANCH   7  10
ENDBRANCH   6   7
ENDBRANCH   4   6
ENDBRANCH   2   4
TORSDOF 11
ENDMDL
MODEL      277
REMARK 921   NORMALIZED FREE ENERGY PREDICTED BY IDOCK:   -2.96 KCAL/MOL
REMARK 922        TOTAL FREE ENERGY PREDICTED BY IDOCK:   -6.20 KCAL/MOL
REMARK 923 INTER-LIGAND FREE ENERGY PREDICTED BY IDOCK:   -6.06 KCAL/MOL
REMARK 924 INTRA-LIGAND FREE ENERGY PREDICTED BY IDOCK:   -0.13 KCAL/MOL
REMARK 927      BINDING AFFINITY PREDICTED BY RF-SCORE:    0.00 PKD
ROOT
HETATM    1  C   UNL     1      -9.007   3.066  67.287  1.00  0.00    -0.184 C  
HETATM    2  C   UNL     1      -8.595   3.596  65.913  1.00  0.00    -0.114 C  
HETATM    3  C   UNL     1      -9.846   3.944  65.099  1.00  0.00    -0.184 C  
ENDROOT
BRANCH   2   4
HETATM    4  N   UNL     1      -7.753   4.798  65.985  1.00  0.00    -0.090 NA 
HETATM    5  H   UNL     1      -6.907   4.668  65.430  1.00  0.00     0.000 HD 
BRANCH   4   6
HETATM    6  C   UNL     1      -8.422   6.049  65.604  1.00  0.00    -0.151 C  
BRANCH   6   7
HETATM    7  C   UNL     1      -9.175   6.799  66.720  1.00  0.00    -0.150 C  
HETATM    8  O   UNL     1     -10.382   7.347  66.166  1.00  0.00    -0.392 OA 
HETATM    9  H   UNL     1     -10.847   7.809  66.854  1.00  0.00     0.000 HD 
BRANCH   7  10
HETATM   10  C   UNL     1      -8.336   7.932  67.318  1.00  0.00    -0.122 C  
BRANCH  10  11
HETATM   11  O   UNL     1      -9.153   9.115  67.371  1.00  0.00    -0.126 OA 
BRANCH  11  12
HETATM   12  C   UNL     1      -9.881   9.288  68.519  1.00  0.00    -0.158 A  
HETATM   13  C   UNL     1      -9.904   8.408  69.600  1.00  0.00    -0.184 A  
HETATM   14  C   UNL     1     -10.721   8.669  70.704  1.00  0.00    -0.259 A  
HETATM   15  C   UNL     1     -11.509   9.825  70.758  1.00  0.00    -0.417 A  
HETATM   16  C   UNL     1     -11.462  10.719  69.681  1.00  0.00    -0.376 A  
HETATM   17  C   UNL     1     -10.651  10.451  68.572  1.00  0.00    -0.237 A  
BRANCH  15  18
HETATM   18  C   UNL     1     -12.416  10.079  71.939  1.00  0.00    -0.408 C  
BRANCH  18  19
HETATM   19  C   UNL     1     -13.453  11.170  71.667  1.00  0.00    -0.057 C  
BRANCH  19  20
HETATM   20  O   UNL     1     -13.304  12.225  72.621  1.00  0.00    -0.250 OA 
BRANCH  20  21
HETATM   21  C   UNL     1     -13.862  13.439  72.116  1.00  0.00    -0.511 C  
BRANCH  21  22
HETATM   22  C   UNL     1     -12.893  14.554  72.340  1.00  0.00    -0.443 C  
HETATM   23  C   UNL     1     -13.347  15.791  73.075  1.00  0.00    -0.679 C  
HETATM   24  C   UNL     1     -12.362  14.856  73.720  1.00  0.00    -0.570 C  
ENDBRANCH  21  22
ENDBRANCH  20  21
ENDBRANCH  19  20
ENDBRANCH  18  19
ENDBRANCH  15  18
ENDBRANCH  11  12
ENDBRANCH  10  11
ENDBRANCH   7  10
ENDBRANCH   6   7
ENDBRANCH   4   6
ENDBRANCH   2   4
TORSDOF 11
ENDMDL
MODEL      278
REMARK 921   NORMALIZED FREE ENERGY PREDICTED BY IDOCK:   -2.94 KCAL/MOL
REMARK 922        TOTAL FREE ENERGY PREDICTED BY IDOCK:   -6.17 KCAL/MOL
REMARK 923 INTER-LIGAND FREE ENERGY PREDICTED BY IDOCK:   -4.95 KCAL/MOL
REMARK 924 INTRA-LIGAND FREE ENERGY PREDICTED BY IDOCK:   -1.22 KCAL/MOL
REMARK 927      BINDING AFFINITY PREDICTED BY RF-SCORE:    0.00 PKD
ROOT
HETATM    1  C   UNL     1      -8.388   8.761  63.602  1.00  0.00    -0.146 C  
HETATM    2  C   UNL     1      -7.900   7.756  64.646  1.00  0.00    -0.130 C  
HETATM    3  C   UNL     1      -8.227   8.273  66.051  1.00  0.00    -0.119 C  
ENDROOT
BRANCH   2   4
HETATM    4  N   UNL     1      -8.510   6.427  64.500  1.00  0.00    -0.344 NA 
HETATM    5  H   UNL     1      -7.855   5.787  64.052  1.00  0.00     0.000 HD 
BRANCH   4   6
HETATM    6  C   UNL     1      -9.023   5.838  65.744  1.00  0.00    -0.135 C  
BRANCH   6   7
HETATM    7  C   UNL     1      -9.823   4.527  65.611  1.00  0.00    -0.216 C  
HETATM    8  O   UNL     1     -11.224   4.841  65.660  1.00  0.00    -0.888 OA 
HETATM    9  H   UNL     1     -11.717   4.033  65.578  1.00  0.00     0.000 HD 
BRANCH   7  10
HETATM   10  C   UNL     1      -9.489   3.535  66.729  1.00  0.00    -0.165 C  
BRANCH  10  11
HETATM   11  O   UNL     1      -8.314   4.008  67.411  1.00  0.00    -0.098 OA 
BRANCH  11  12
HETATM   12  C   UNL     1      -8.461   4.263  68.749  1.00  0.00    -0.083 A  
HETATM   13  C   UNL     1      -7.417   4.481  69.648  1.00  0.00    -0.051 A  
HETATM   14  C   UNL     1      -7.687   4.689  71.004  1.00  0.00    -0.080 A  
HETATM   15  C   UNL     1      -9.003   4.709  71.481  1.00  0.00    -0.165 A  
HETATM   16  C   UNL     1     -10.048   4.516  70.570  1.00  0.00    -0.233 A  
HETATM   17  C   UNL     1      -9.776   4.298  69.214  1.00  0.00    -0.240 A  
BRANCH  15  18
HETATM   18  C   UNL     1      -9.281   4.898  72.954  1.00  0.00    -0.141 C  
BRANCH  18  19
HETATM   19  C   UNL     1      -8.533   6.092  73.550  1.00  0.00    -0.119 C  
BRANCH  19  20
HETATM   20  O   UNL     1      -9.183   7.307  73.169  1.00  0.00    -0.138 OA 
BRANCH  20  21
HETATM   21  C   UNL     1     -10.582   7.235  73.445  1.00  0.00    -0.389 C  
BRANCH  21  22
HETATM   22  C   UNL     1     -11.317   8.107  72.479  1.00  0.00    -0.469 C  
HETATM   23  C   UNL     1     -10.657   8.488  71.177  1.00  0.00    -0.277 C  
HETATM   24  C   UNL     1     -11.837   7.557  71.175  1.00  0.00    -0.324 C  
ENDBRANCH  21  22
ENDBRANCH  20  21
ENDBRANCH  19  20
ENDBRANCH  18  19
ENDBRANCH  15  18
ENDBRANCH  11  12
ENDBRANCH  10  11
ENDBRANCH   7  10
ENDBRANCH   6   7
ENDBRANCH   4   6
ENDBRANCH   2   4
TORSDOF 11
ENDMDL
MODEL      279
REMARK 921   NORMALIZED FREE ENERGY PREDICTED BY IDOCK:   -2.92 KCAL/MOL
REMARK 922        TOTAL FREE ENERGY PREDICTED BY IDOCK:   -6.13 KCAL/MOL
REMARK 923 INTER-LIGAND FREE ENERGY PREDICTED BY IDOCK:   -5.31 KCAL/MOL
REMARK 924 INTRA-LIGAND FREE ENERGY PREDICTED BY IDOCK:   -0.82 KCAL/MOL
REMARK 927      BINDING AFFINITY PREDICTED BY RF-SCORE:    0.00 PKD
ROOT
HETATM    1  C   UNL     1      -9.258   5.275  66.258  1.00  0.00    -0.152 C  
HETATM    2  C   UNL     1      -9.463   6.116  67.519  1.00  0.00    -0.112 C  
HETATM    3  C   UNL     1     -10.956   6.186  67.855  1.00  0.00    -0.399 C  
ENDROOT
BRANCH   2   4
HETATM    4  N   UNL     1      -8.759   5.580  68.693  1.00  0.00    -0.108 NA 
HETATM    5  H   UNL     1      -8.409   4.643  68.495  1.00  0.00     0.000 HD 
BRANCH   4   6
HETATM    6  C   UNL     1      -7.677   6.427  69.210  1.00  0.00    -0.101 C  
BRANCH   6   7
HETATM    7  C   UNL     1      -7.564   7.845  68.618  1.00  0.00    -0.101 C  
HETATM    8  O   UNL     1      -6.191   8.084  68.267  1.00  0.00    -0.047 OA 
HETATM    9  H   UNL     1      -6.121   8.959  67.902  1.00  0.00     0.000 HD 
BRANCH   7  10
HETATM   10  C   UNL     1      -8.025   8.919  69.609  1.00  0.00    -0.092 C  
BRANCH  10  11
HETATM   11  O   UNL     1      -9.463   8.944  69.605  1.00  0.00    -0.162 OA 
BRANCH  11  12
HETATM   12  C   UNL     1     -10.042   9.916  68.833  1.00  0.00    -0.184 A  
HETATM   13  C   UNL     1     -10.333  11.214  69.253  1.00  0.00    -0.148 A  
HETATM   14  C   UNL     1     -10.968  12.109  68.388  1.00  0.00    -0.271 A  
HETATM   15  C   UNL     1     -11.299  11.734  67.080  1.00  0.00    -0.387 A  
HETATM   16  C   UNL     1     -10.980  10.439  66.655  1.00  0.00    -0.067 A  
HETATM   17  C   UNL     1     -10.354   9.539  67.525  1.00  0.00    -0.306 A  
BRANCH  15  18
HETATM   18  C   UNL     1     -12.017  12.698  66.165  1.00  0.00    -0.458 C  
BRANCH  18  19
HETATM   19  C   UNL     1     -11.831  12.362  64.685  1.00  0.00    -0.380 C  
BRANCH  19  20
HETATM   20  O   UNL     1     -11.742  13.569  63.924  1.00  0.00    -0.408 OA 
BRANCH  20  21
HETATM   21  C   UNL     1     -12.131  14.691  64.717  1.00  0.00    -0.421 C  
BRANCH  21  22
HETATM   22  C   UNL     1     -10.983  15.641  64.818  1.00  0.00    -0.418 C  
HETATM   23  C   UNL     1     -10.629  16.234  66.160  1.00  0.00    -0.272 C  
HETATM   24  C   UNL     1      -9.703  15.243  65.511  1.00  0.00    -0.313 C  
ENDBRANCH  21  22
ENDBRANCH  20  21
ENDBRANCH  19  20
ENDBRANCH  18  19
ENDBRANCH  15  18
ENDBRANCH  11  12
ENDBRANCH  10  11
ENDBRANCH   7  10
ENDBRANCH   6   7
ENDBRANCH   4   6
ENDBRANCH   2   4
TORSDOF 11
ENDMDL
MODEL      280
REMARK 921   NORMALIZED FREE ENERGY PREDICTED BY IDOCK:   -2.92 KCAL/MOL
REMARK 922        TOTAL FREE ENERGY PREDICTED BY IDOCK:   -6.13 KCAL/MOL
REMARK 923 INTER-LIGAND FREE ENERGY PREDICTED BY IDOCK:   -4.82 KCAL/MOL
REMARK 924 INTRA-LIGAND FREE ENERGY PREDICTED BY IDOCK:   -1.31 KCAL/MOL
REMARK 927      BINDING AFFINITY PREDICTED BY RF-SCORE:    0.00 PKD
ROOT
HETATM    1  C   UNL     1     -12.439  12.466  63.357  1.00  0.00    -0.554 C  
HETATM    2  C   UNL     1     -11.529  13.436  64.112  1.00  0.00    -0.383 C  
HETATM    3  C   UNL     1     -12.174  14.826  64.146  1.00  0.00    -0.321 C  
ENDROOT
BRANCH   2   4
HETATM    4  N   UNL     1     -11.267  13.024  65.498  1.00  0.00    -0.285 NA 
HETATM    5  H   UNL     1     -10.269  13.086  65.700  1.00  0.00     0.000 HD 
BRANCH   4   6
HETATM    6  C   UNL     1     -12.036  13.748  66.518  1.00  0.00    -0.443 C  
BRANCH   6   7
HETATM    7  C   UNL     1     -11.966  13.200  67.957  1.00  0.00    -0.304 C  
HETATM    8  O   UNL     1     -12.650  14.117  68.827  1.00  0.00    -0.471 OA 
HETATM    9  H   UNL     1     -12.607  13.779  69.714  1.00  0.00     0.000 HD 
BRANCH   7  10
HETATM   10  C   UNL     1     -10.522  13.032  68.437  1.00  0.00    -0.252 C  
BRANCH  10  11
HETATM   11  O   UNL     1      -9.904  12.001  67.646  1.00  0.00    -0.184 OA 
BRANCH  11  12
HETATM   12  C   UNL     1      -9.087  11.136  68.324  1.00  0.00    -0.162 A  
HETATM   13  C   UNL     1      -7.765  10.845  67.990  1.00  0.00    -0.101 A  
HETATM   14  C   UNL     1      -7.040   9.909  68.732  1.00  0.00    -0.067 A  
HETATM   15  C   UNL     1      -7.613   9.265  69.836  1.00  0.00    -0.093 A  
HETATM   16  C   UNL     1      -8.932   9.580  70.183  1.00  0.00    -0.269 A  
HETATM   17  C   UNL     1      -9.661  10.511  69.432  1.00  0.00    -0.170 A  
BRANCH  15  18
HETATM   18  C   UNL     1      -6.833   8.228  70.608  1.00  0.00    -0.038 C  
BRANCH  18  19
HETATM   19  C   UNL     1      -7.429   6.825  70.487  1.00  0.00    -0.086 C  
BRANCH  19  20
HETATM   20  O   UNL     1      -6.726   6.087  69.484  1.00  0.00    -0.051 OA 
BRANCH  20  21
HETATM   21  C   UNL     1      -7.561   5.865  68.347  1.00  0.00    -0.090 C  
BRANCH  21  22
HETATM   22  C   UNL     1      -8.988   6.073  68.740  1.00  0.00    -0.118 C  
HETATM   23  C   UNL     1      -9.895   6.871  67.836  1.00  0.00    -0.155 C  
HETATM   24  C   UNL     1     -10.107   5.391  67.994  1.00  0.00    -0.224 C  
ENDBRANCH  21  22
ENDBRANCH  20  21
ENDBRANCH  19  20
ENDBRANCH  18  19
ENDBRANCH  15  18
ENDBRANCH  11  12
ENDBRANCH  10  11
ENDBRANCH   7  10
ENDBRANCH   6   7
ENDBRANCH   4   6
ENDBRANCH   2   4
TORSDOF 11
ENDMDL
MODEL      281
REMARK 921   NORMALIZED FREE ENERGY PREDICTED BY IDOCK:   -2.91 KCAL/MOL
REMARK 922        TOTAL FREE ENERGY PREDICTED BY IDOCK:   -6.11 KCAL/MOL
REMARK 923 INTER-LIGAND FREE ENERGY PREDICTED BY IDOCK:   -5.65 KCAL/MOL
REMARK 924 INTRA-LIGAND FREE ENERGY PREDICTED BY IDOCK:   -0.46 KCAL/MOL
REMARK 927      BINDING AFFINITY PREDICTED BY RF-SCORE:    0.00 PKD
ROOT
HETATM    1  C   UNL     1     -12.558  13.098  64.932  1.00  0.00    -0.468 C  
HETATM    2  C   UNL     1     -11.285  13.794  65.414  1.00  0.00    -0.302 C  
HETATM    3  C   UNL     1     -11.219  15.209  64.829  1.00  0.00    -0.396 C  
ENDROOT
BRANCH   2   4
HETATM    4  N   UNL     1     -11.205  13.905  66.877  1.00  0.00    -0.304 NA 
HETATM    5  H   UNL     1     -11.961  14.493  67.228  1.00  0.00     0.000 HD 
BRANCH   4   6
HETATM    6  C   UNL     1     -11.183  12.626  67.598  1.00  0.00    -0.283 C  
BRANCH   6   7
HETATM    7  C   UNL     1     -11.904  12.586  68.960  1.00  0.00    -0.296 C  
HETATM    8  O   UNL     1     -11.040  13.165  69.951  1.00  0.00    -0.477 OA 
HETATM    9  H   UNL     1     -11.484  13.140  70.790  1.00  0.00     0.000 HD 
BRANCH   7  10
HETATM   10  C   UNL     1     -12.262  11.156  69.377  1.00  0.00    -0.259 C  
BRANCH  10  11
HETATM   11  O   UNL     1     -11.748  10.935  70.703  1.00  0.00    -0.331 OA 
BRANCH  11  12
HETATM   12  C   UNL     1     -11.647   9.626  71.094  1.00  0.00    -0.381 A  
HETATM   13  C   UNL     1     -12.523   8.974  71.961  1.00  0.00    -0.460 A  
HETATM   14  C   UNL     1     -12.294   7.644  72.325  1.00  0.00    -0.227 A  
HETATM   15  C   UNL     1     -11.202   6.934  71.810  1.00  0.00    -0.284 A  
HETATM   16  C   UNL     1     -10.340   7.587  70.920  1.00  0.00    -0.203 A  
HETATM   17  C   UNL     1     -10.565   8.922  70.564  1.00  0.00    -0.262 A  
BRANCH  15  18
HETATM   18  C   UNL     1     -10.943   5.509  72.238  1.00  0.00    -0.296 C  
BRANCH  18  19
HETATM   19  C   UNL     1      -9.814   5.394  73.264  1.00  0.00    -0.162 C  
BRANCH  19  20
HETATM   20  O   UNL     1      -9.045   4.217  73.003  1.00  0.00    -0.110 OA 
BRANCH  20  21
HETATM   21  C   UNL     1      -7.704   4.382  73.465  1.00  0.00    -0.083 C  
BRANCH  21  22
HETATM   22  C   UNL     1      -6.814   3.432  72.733  1.00  0.00    -0.038 C  
HETATM   23  C   UNL     1      -6.594   3.617  71.251  1.00  0.00    -0.026 C  
HETATM   24  C   UNL     1      -5.468   3.873  72.213  1.00  0.00     0.000 C  
ENDBRANCH  21  22
ENDBRANCH  20  21
ENDBRANCH  19  20
ENDBRANCH  18  19
ENDBRANCH  15  18
ENDBRANCH  11  12
ENDBRANCH  10  11
ENDBRANCH   7  10
ENDBRANCH   6   7
ENDBRANCH   4   6
ENDBRANCH   2   4
TORSDOF 11
ENDMDL
MODEL      282
REMARK 921   NORMALIZED FREE ENERGY PREDICTED BY IDOCK:   -2.90 KCAL/MOL
REMARK 922        TOTAL FREE ENERGY PREDICTED BY IDOCK:   -6.10 KCAL/MOL
REMARK 923 INTER-LIGAND FREE ENERGY PREDICTED BY IDOCK:   -5.81 KCAL/MOL
REMARK 924 INTRA-LIGAND FREE ENERGY PREDICTED BY IDOCK:   -0.29 KCAL/MOL
REMARK 927      BINDING AFFINITY PREDICTED BY RF-SCORE:    0.00 PKD
ROOT
HETATM    1  C   UNL     1     -10.653  17.181  68.206  1.00  0.00    -0.375 C  
HETATM    2  C   UNL     1     -10.353  16.032  69.169  1.00  0.00    -0.247 C  
HETATM    3  C   UNL     1     -11.185  16.198  70.445  1.00  0.00    -0.394 C  
ENDROOT
BRANCH   2   4
HETATM    4  N   UNL     1     -10.652  14.710  68.603  1.00  0.00    -0.244 NA 
HETATM    5  H   UNL     1     -11.285  14.198  69.219  1.00  0.00     0.000 HD 
BRANCH   4   6
HETATM    6  C   UNL     1     -11.180  14.724  67.233  1.00  0.00    -0.346 C  
BRANCH   6   7
HETATM    7  C   UNL     1     -10.616  13.668  66.262  1.00  0.00    -0.289 C  
HETATM    8  O   UNL     1     -11.102  13.958  64.941  1.00  0.00    -0.335 OA 
HETATM    9  H   UNL     1     -10.755  13.308  64.343  1.00  0.00     0.000 HD 
BRANCH   7  10
HETATM   10  C   UNL     1     -11.035  12.248  66.652  1.00  0.00    -0.278 C  
BRANCH  10  11
HETATM   11  O   UNL     1     -12.050  12.343  67.667  1.00  0.00    -0.470 OA 
BRANCH  11  12
HETATM   12  C   UNL     1     -11.907  11.501  68.738  1.00  0.00    -0.330 A  
HETATM   13  C   UNL     1     -12.592  11.610  69.948  1.00  0.00    -0.002 A  
HETATM   14  C   UNL     1     -12.330  10.715  70.989  1.00  0.00    -0.507 A  
HETATM   15  C   UNL     1     -11.400   9.681  70.832  1.00  0.00    -0.431 A  
HETATM   16  C   UNL     1     -10.734   9.560  69.606  1.00  0.00    -0.257 A  
HETATM   17  C   UNL     1     -10.989  10.463  68.568  1.00  0.00    -0.302 A  
BRANCH  15  18
HETATM   18  C   UNL     1     -11.099   8.742  71.976  1.00  0.00    -0.441 C  
BRANCH  18  19
HETATM   19  C   UNL     1     -10.382   7.468  71.525  1.00  0.00    -0.196 C  
BRANCH  19  20
HETATM   20  O   UNL     1      -9.091   7.799  71.009  1.00  0.00    -0.145 OA 
BRANCH  20  21
HETATM   21  C   UNL     1      -8.159   6.751  71.281  1.00  0.00    -0.111 C  
BRANCH  21  22
HETATM   22  C   UNL     1      -6.991   6.883  70.359  1.00  0.00    -0.063 C  
HETATM   23  C   UNL     1      -5.871   7.830  70.714  1.00  0.00    -0.034 C  
HETATM   24  C   UNL     1      -5.634   6.346  70.742  1.00  0.00    -0.019 C  
ENDBRANCH  21  22
ENDBRANCH  20  21
ENDBRANCH  19  20
ENDBRANCH  18  19
ENDBRANCH  15  18
ENDBRANCH  11  12
ENDBRANCH  10  11
ENDBRANCH   7  10
ENDBRANCH   6   7
ENDBRANCH   4   6
ENDBRANCH   2   4
TORSDOF 11
ENDMDL
MODEL      283
REMARK 921   NORMALIZED FREE ENERGY PREDICTED BY IDOCK:   -2.90 KCAL/MOL
REMARK 922        TOTAL FREE ENERGY PREDICTED BY IDOCK:   -6.10 KCAL/MOL
REMARK 923 INTER-LIGAND FREE ENERGY PREDICTED BY IDOCK:   -5.40 KCAL/MOL
REMARK 924 INTRA-LIGAND FREE ENERGY PREDICTED BY IDOCK:   -0.70 KCAL/MOL
REMARK 927      BINDING AFFINITY PREDICTED BY RF-SCORE:    0.00 PKD
ROOT
HETATM    1  C   UNL     1      -6.482  12.848  68.808  1.00  0.00    -0.085 C  
HETATM    2  C   UNL     1      -7.307  14.131  68.902  1.00  0.00    -0.122 C  
HETATM    3  C   UNL     1      -6.771  15.162  67.903  1.00  0.00    -0.168 C  
ENDROOT
BRANCH   2   4
HETATM    4  N   UNL     1      -8.734  13.925  68.616  1.00  0.00    -0.321 NA 
HETATM    5  H   UNL     1      -9.195  13.497  69.419  1.00  0.00     0.000 HD 
BRANCH   4   6
HETATM    6  C   UNL     1      -9.464  15.127  68.193  1.00  0.00    -0.201 C  
BRANCH   6   7
HETATM    7  C   UNL     1     -10.425  14.969  66.998  1.00  0.00    -0.278 C  
HETATM    8  O   UNL     1     -10.611  16.257  66.390  1.00  0.00    -0.306 OA 
HETATM    9  H   UNL     1     -11.203  16.160  65.653  1.00  0.00     0.000 HD 
BRANCH   7  10
HETATM   10  C   UNL     1     -11.786  14.412  67.426  1.00  0.00    -0.400 C  
BRANCH  10  11
HETATM   11  O   UNL     1     -12.121  13.323  66.547  1.00  0.00    -0.395 OA 
BRANCH  11  12
HETATM   12  C   UNL     1     -11.510  12.127  66.818  1.00  0.00    -0.356 A  
HETATM   13  C   UNL     1     -10.763  11.379  65.909  1.00  0.00    -0.311 A  
HETATM   14  C   UNL     1     -10.222  10.147  66.287  1.00  0.00    -0.288 A  
HETATM   15  C   UNL     1     -10.394   9.653  67.585  1.00  0.00    -0.290 A  
HETATM   16  C   UNL     1     -11.123  10.421  68.502  1.00  0.00    -0.318 A  
HETATM   17  C   UNL     1     -11.673  11.649  68.119  1.00  0.00    -0.365 A  
BRANCH  15  18
HETATM   18  C   UNL     1      -9.836   8.304  67.972  1.00  0.00    -0.201 C  
BRANCH  18  19
HETATM   19  C   UNL     1     -10.188   7.206  66.968  1.00  0.00    -0.269 C  
BRANCH  19  20
HETATM   20  O   UNL     1      -9.162   7.114  65.975  1.00  0.00    -0.127 OA 
BRANCH  20  21
HETATM   21  C   UNL     1      -8.648   5.783  65.909  1.00  0.00    -0.146 C  
BRANCH  21  22
HETATM   22  C   UNL     1      -9.788   4.819  65.867  1.00  0.00    -0.225 C  
HETATM   23  C   UNL     1     -10.023   4.005  64.618  1.00  0.00    -0.205 C  
HETATM   24  C   UNL     1      -9.547   3.330  65.874  1.00  0.00    -0.025 C  
ENDBRANCH  21  22
ENDBRANCH  20  21
ENDBRANCH  19  20
ENDBRANCH  18  19
ENDBRANCH  15  18
ENDBRANCH  11  12
ENDBRANCH  10  11
ENDBRANCH   7  10
ENDBRANCH   6   7
ENDBRANCH   4   6
ENDBRANCH   2   4
TORSDOF 11
ENDMDL
MODEL      284
REMARK 921   NORMALIZED FREE ENERGY PREDICTED BY IDOCK:   -2.89 KCAL/MOL
REMARK 922        TOTAL FREE ENERGY PREDICTED BY IDOCK:   -6.08 KCAL/MOL
REMARK 923 INTER-LIGAND FREE ENERGY PREDICTED BY IDOCK:   -4.97 KCAL/MOL
REMARK 924 INTRA-LIGAND FREE ENERGY PREDICTED BY IDOCK:   -1.11 KCAL/MOL
REMARK 927      BINDING AFFINITY PREDICTED BY RF-SCORE:    0.00 PKD
ROOT
HETATM    1  C   UNL     1      -9.749   6.433  68.352  1.00  0.00    -0.131 C  
HETATM    2  C   UNL     1      -8.220   6.430  68.352  1.00  0.00    -0.113 C  
HETATM    3  C   UNL     1      -7.706   6.082  69.754  1.00  0.00    -0.096 C  
ENDROOT
BRANCH   2   4
HETATM    4  N   UNL     1      -7.642   5.466  67.407  1.00  0.00    -0.088 NA 
HETATM    5  H   UNL     1      -7.509   4.563  67.862  1.00  0.00     0.000 HD 
BRANCH   4   6
HETATM    6  C   UNL     1      -8.392   5.295  66.156  1.00  0.00    -0.115 C  
BRANCH   6   7
HETATM    7  C   UNL     1      -7.598   5.456  64.845  1.00  0.00    -0.084 C  
HETATM    8  O   UNL     1      -6.212   5.193  65.117  1.00  0.00    -0.032 OA 
HETATM    9  H   UNL     1      -5.722   5.292  64.309  1.00  0.00     0.000 HD 
BRANCH   7  10
HETATM   10  C   UNL     1      -7.739   6.863  64.257  1.00  0.00    -0.113 C  
BRANCH  10  11
HETATM   11  O   UNL     1      -7.756   7.803  65.346  1.00  0.00    -0.093 OA 
BRANCH  11  12
HETATM   12  C   UNL     1      -8.674   8.815  65.248  1.00  0.00    -0.182 A  
HETATM   13  C   UNL     1      -9.434   9.320  66.302  1.00  0.00    -0.284 A  
HETATM   14  C   UNL     1     -10.374  10.329  66.073  1.00  0.00    -0.248 A  
HETATM   15  C   UNL     1     -10.554  10.869  64.794  1.00  0.00    -0.316 A  
HETATM   16  C   UNL     1      -9.769  10.376  63.744  1.00  0.00    -0.351 A  
HETATM   17  C   UNL     1      -8.835   9.359  63.972  1.00  0.00    -0.210 A  
BRANCH  15  18
HETATM   18  C   UNL     1     -11.598  11.932  64.551  1.00  0.00    -0.344 C  
BRANCH  18  19
HETATM   19  C   UNL     1     -11.004  13.236  64.016  1.00  0.00    -0.287 C  
BRANCH  19  20
HETATM   20  O   UNL     1     -11.867  14.329  64.342  1.00  0.00    -0.424 OA 
BRANCH  20  21
HETATM   21  C   UNL     1     -11.153  15.334  65.061  1.00  0.00    -0.426 C  
BRANCH  21  22
HETATM   22  C   UNL     1     -10.836  14.825  66.430  1.00  0.00    -0.322 C  
HETATM   23  C   UNL     1     -11.136  15.691  67.629  1.00  0.00    -0.305 C  
HETATM   24  C   UNL     1     -11.934  14.439  67.389  1.00  0.00    -0.407 C  
ENDBRANCH  21  22
ENDBRANCH  20  21
ENDBRANCH  19  20
ENDBRANCH  18  19
ENDBRANCH  15  18
ENDBRANCH  11  12
ENDBRANCH  10  11
ENDBRANCH   7  10
ENDBRANCH   6   7
ENDBRANCH   4   6
ENDBRANCH   2   4
TORSDOF 11
ENDMDL
MODEL      285
REMARK 921   NORMALIZED FREE ENERGY PREDICTED BY IDOCK:   -2.88 KCAL/MOL
REMARK 922        TOTAL FREE ENERGY PREDICTED BY IDOCK:   -6.07 KCAL/MOL
REMARK 923 INTER-LIGAND FREE ENERGY PREDICTED BY IDOCK:   -5.54 KCAL/MOL
REMARK 924 INTRA-LIGAND FREE ENERGY PREDICTED BY IDOCK:   -0.52 KCAL/MOL
REMARK 927      BINDING AFFINITY PREDICTED BY RF-SCORE:    0.00 PKD
ROOT
HETATM    1  C   UNL     1      -6.392  12.131  68.826  1.00  0.00    -0.076 C  
HETATM    2  C   UNL     1      -6.879  13.491  69.328  1.00  0.00    -0.051 C  
HETATM    3  C   UNL     1      -5.894  14.583  68.895  1.00  0.00    -0.085 C  
ENDROOT
BRANCH   2   4
HETATM    4  N   UNL     1      -8.209  13.854  68.820  1.00  0.00    -0.307 NA 
HETATM    5  H   UNL     1      -8.933  13.394  69.372  1.00  0.00     0.000 HD 
BRANCH   4   6
HETATM    6  C   UNL     1      -8.472  15.297  68.740  1.00  0.00    -0.181 C  
BRANCH   6   7
HETATM    7  C   UNL     1      -9.133  15.809  67.446  1.00  0.00    -0.197 C  
HETATM    8  O   UNL     1      -8.460  17.010  67.035  1.00  0.00    -0.194 OA 
HETATM    9  H   UNL     1      -8.868  17.326  66.237  1.00  0.00     0.000 HD 
BRANCH   7  10
HETATM   10  C   UNL     1     -10.623  16.107  67.641  1.00  0.00    -0.315 C  
BRANCH  10  11
HETATM   11  O   UNL     1     -11.335  15.599  66.499  1.00  0.00    -0.128 OA 
BRANCH  11  12
HETATM   12  C   UNL     1     -11.094  14.289  66.178  1.00  0.00    -0.324 A  
HETATM   13  C   UNL     1     -11.294  13.201  67.027  1.00  0.00    -0.349 A  
HETATM   14  C   UNL     1     -10.971  11.909  66.603  1.00  0.00    -0.336 A  
HETATM   15  C   UNL     1     -10.468  11.677  65.318  1.00  0.00    -0.323 A  
HETATM   16  C   UNL     1     -10.295  12.771  64.460  1.00  0.00    -0.373 A  
HETATM   17  C   UNL     1     -10.609  14.065  64.889  1.00  0.00    -0.442 A  
BRANCH  15  18
HETATM   18  C   UNL     1     -10.088  10.281  64.883  1.00  0.00    -0.346 C  
BRANCH  18  19
HETATM   19  C   UNL     1      -9.588   9.415  66.041  1.00  0.00    -0.261 C  
BRANCH  19  20
HETATM   20  O   UNL     1     -10.645   8.570  66.501  1.00  0.00    -0.200 OA 
BRANCH  20  21
HETATM   21  C   UNL     1     -10.163   7.659  67.490  1.00  0.00    -0.227 C  
BRANCH  21  22
HETATM   22  C   UNL     1     -10.667   6.287  67.179  1.00  0.00    -0.432 C  
HETATM   23  C   UNL     1      -9.819   5.359  66.345  1.00  0.00    -0.196 C  
HETATM   24  C   UNL     1     -10.036   5.067  67.803  1.00  0.00    -0.198 C  
ENDBRANCH  21  22
ENDBRANCH  20  21
ENDBRANCH  19  20
ENDBRANCH  18  19
ENDBRANCH  15  18
ENDBRANCH  11  12
ENDBRANCH  10  11
ENDBRANCH   7  10
ENDBRANCH   6   7
ENDBRANCH   4   6
ENDBRANCH   2   4
TORSDOF 11
ENDMDL
MODEL      286
REMARK 921   NORMALIZED FREE ENERGY PREDICTED BY IDOCK:   -2.88 KCAL/MOL
REMARK 922        TOTAL FREE ENERGY PREDICTED BY IDOCK:   -6.06 KCAL/MOL
REMARK 923 INTER-LIGAND FREE ENERGY PREDICTED BY IDOCK:   -4.78 KCAL/MOL
REMARK 924 INTRA-LIGAND FREE ENERGY PREDICTED BY IDOCK:   -1.28 KCAL/MOL
REMARK 927      BINDING AFFINITY PREDICTED BY RF-SCORE:    0.00 PKD
ROOT
HETATM    1  C   UNL     1      -5.764  11.143  68.110  1.00  0.00    -0.045 C  
HETATM    2  C   UNL     1      -5.650   9.784  68.800  1.00  0.00    -0.036 C  
HETATM    3  C   UNL     1      -6.232   9.874  70.215  1.00  0.00    -0.082 C  
ENDROOT
BRANCH   2   4
HETATM    4  N   UNL     1      -6.357   8.711  68.088  1.00  0.00    -0.051 NA 
HETATM    5  H   UNL     1      -5.689   8.102  67.616  1.00  0.00     0.000 HD 
BRANCH   4   6
HETATM    6  C   UNL     1      -7.273   7.914  68.914  1.00  0.00    -0.076 C  
BRANCH   6   7
HETATM    7  C   UNL     1      -8.481   7.281  68.196  1.00  0.00    -0.123 C  
HETATM    8  O   UNL     1      -8.340   7.505  66.784  1.00  0.00    -0.120 OA 
HETATM    9  H   UNL     1      -9.085   7.115  66.341  1.00  0.00     0.000 HD 
BRANCH   7  10
HETATM   10  C   UNL     1      -9.809   7.879  68.671  1.00  0.00    -0.170 C  
BRANCH  10  11
HETATM   11  O   UNL     1      -9.517   8.923  69.617  1.00  0.00    -0.162 OA 
BRANCH  11  12
HETATM   12  C   UNL     1     -10.161  10.114  69.411  1.00  0.00    -0.231 A  
HETATM   13  C   UNL     1     -11.322  10.527  70.063  1.00  0.00    -0.392 A  
HETATM   14  C   UNL     1     -11.916  11.750  69.737  1.00  0.00    -0.392 A  
HETATM   15  C   UNL     1     -11.348  12.593  68.775  1.00  0.00    -0.333 A  
HETATM   16  C   UNL     1     -10.167  12.185  68.142  1.00  0.00    -0.203 A  
HETATM   17  C   UNL     1      -9.579  10.956  68.461  1.00  0.00    -0.187 A  
BRANCH  15  18
HETATM   18  C   UNL     1     -12.018  13.895  68.405  1.00  0.00    -0.391 C  
BRANCH  18  19
HETATM   19  C   UNL     1     -11.568  14.427  67.043  1.00  0.00    -0.384 C  
BRANCH  19  20
HETATM   20  O   UNL     1     -11.097  15.770  67.183  1.00  0.00    -0.286 OA 
BRANCH  20  21
HETATM   21  C   UNL     1      -9.816  15.789  67.814  1.00  0.00    -0.224 C  
BRANCH  21  22
HETATM   22  C   UNL     1      -8.760  15.551  66.785  1.00  0.00    -0.302 C  
HETATM   23  C   UNL     1      -7.947  16.716  66.277  1.00  0.00    -0.340 C  
HETATM   24  C   UNL     1      -7.296  15.665  67.132  1.00  0.00    -0.247 C  
ENDBRANCH  21  22
ENDBRANCH  20  21
ENDBRANCH  19  20
ENDBRANCH  18  19
ENDBRANCH  15  18
ENDBRANCH  11  12
ENDBRANCH  10  11
ENDBRANCH   7  10
ENDBRANCH   6   7
ENDBRANCH   4   6
ENDBRANCH   2   4
TORSDOF 11
ENDMDL
MODEL      287
REMARK 921   NORMALIZED FREE ENERGY PREDICTED BY IDOCK:   -2.88 KCAL/MOL
REMARK 922        TOTAL FREE ENERGY PREDICTED BY IDOCK:   -6.06 KCAL/MOL
REMARK 923 INTER-LIGAND FREE ENERGY PREDICTED BY IDOCK:   -5.43 KCAL/MOL
REMARK 924 INTRA-LIGAND FREE ENERGY PREDICTED BY IDOCK:   -0.64 KCAL/MOL
REMARK 927      BINDING AFFINITY PREDICTED BY RF-SCORE:    0.00 PKD
ROOT
HETATM    1  C   UNL     1      -5.928  11.595  67.759  1.00  0.00    -0.052 C  
HETATM    2  C   UNL     1      -6.541  12.881  68.315  1.00  0.00    -0.091 C  
HETATM    3  C   UNL     1      -5.793  14.094  67.751  1.00  0.00    -0.090 C  
ENDROOT
BRANCH   2   4
HETATM    4  N   UNL     1      -7.964  13.033  67.985  1.00  0.00    -0.143 NA 
HETATM    5  H   UNL     1      -8.540  12.558  68.681  1.00  0.00     0.000 HD 
BRANCH   4   6
HETATM    6  C   UNL     1      -8.418  14.420  67.814  1.00  0.00    -0.173 C  
BRANCH   6   7
HETATM    7  C   UNL     1      -9.350  14.701  66.619  1.00  0.00    -0.271 C  
HETATM    8  O   UNL     1      -8.921  15.915  65.982  1.00  0.00    -0.333 OA 
HETATM    9  H   UNL     1      -9.495  16.088  65.246  1.00  0.00     0.000 HD 
BRANCH   7  10
HETATM   10  C   UNL     1     -10.812  14.849  67.054  1.00  0.00    -0.315 C  
BRANCH  10  11
HETATM   11  O   UNL     1     -11.583  13.837  66.383  1.00  0.00    -0.331 OA 
BRANCH  11  12
HETATM   12  C   UNL     1     -11.236  12.540  66.658  1.00  0.00    -0.307 A  
HETATM   13  C   UNL     1     -11.362  11.917  67.899  1.00  0.00    -0.358 A  
HETATM   14  C   UNL     1     -10.932  10.598  68.072  1.00  0.00    -0.336 A  
HETATM   15  C   UNL     1     -10.396   9.870  67.004  1.00  0.00    -0.303 A  
HETATM   16  C   UNL     1     -10.297  10.492  65.753  1.00  0.00    -0.270 A  
HETATM   17  C   UNL     1     -10.717  11.816  65.583  1.00  0.00    -0.328 A  
BRANCH  15  18
HETATM   18  C   UNL     1      -9.901   8.458  67.211  1.00  0.00    -0.264 C  
BRANCH  18  19
HETATM   19  C   UNL     1      -9.413   8.203  68.637  1.00  0.00    -0.147 C  
BRANCH  19  20
HETATM   20  O   UNL     1     -10.433   7.534  69.384  1.00  0.00    -0.215 OA 
BRANCH  20  21
HETATM   21  C   UNL     1      -9.980   7.249  70.707  1.00  0.00    -0.186 C  
BRANCH  21  22
HETATM   22  C   UNL     1     -11.090   7.513  71.672  1.00  0.00    -0.270 C  
HETATM   23  C   UNL     1     -12.019   6.388  72.057  1.00  0.00    -0.375 C  
HETATM   24  C   UNL     1     -11.057   6.945  73.069  1.00  0.00    -0.267 C  
ENDBRANCH  21  22
ENDBRANCH  20  21
ENDBRANCH  19  20
ENDBRANCH  18  19
ENDBRANCH  15  18
ENDBRANCH  11  12
ENDBRANCH  10  11
ENDBRANCH   7  10
ENDBRANCH   6   7
ENDBRANCH   4   6
ENDBRANCH   2   4
TORSDOF 11
ENDMDL
MODEL      288
REMARK 921   NORMALIZED FREE ENERGY PREDICTED BY IDOCK:   -2.88 KCAL/MOL
REMARK 922        TOTAL FREE ENERGY PREDICTED BY IDOCK:   -6.06 KCAL/MOL
REMARK 923 INTER-LIGAND FREE ENERGY PREDICTED BY IDOCK:   -4.20 KCAL/MOL
REMARK 924 INTRA-LIGAND FREE ENERGY PREDICTED BY IDOCK:   -1.86 KCAL/MOL
REMARK 927      BINDING AFFINITY PREDICTED BY RF-SCORE:    0.00 PKD
ROOT
HETATM    1  C   UNL     1      -6.570  10.459  68.431  1.00  0.00    -0.059 C  
HETATM    2  C   UNL     1      -6.804  11.686  67.549  1.00  0.00    -0.104 C  
HETATM    3  C   UNL     1      -6.597  11.311  66.078  1.00  0.00     0.115 C  
ENDROOT
BRANCH   2   4
HETATM    4  N   UNL     1      -8.154  12.249  67.687  1.00  0.00    -0.153 NA 
HETATM    5  H   UNL     1      -8.253  12.706  68.594  1.00  0.00     0.000 HD 
BRANCH   4   6
HETATM    6  C   UNL     1      -8.559  13.164  66.612  1.00  0.00     0.058 C  
BRANCH   6   7
HETATM    7  C   UNL     1      -9.974  12.966  66.032  1.00  0.00    -0.272 C  
HETATM    8  O   UNL     1     -10.921  13.570  66.927  1.00  0.00    -0.283 OA 
HETATM    9  H   UNL     1     -11.793  13.449  66.570  1.00  0.00     0.000 HD 
BRANCH   7  10
HETATM   10  C   UNL     1     -10.320  11.485  65.856  1.00  0.00    -0.247 C  
BRANCH  10  11
HETATM   11  O   UNL     1     -11.075  11.062  67.005  1.00  0.00    -0.288 OA 
BRANCH  11  12
HETATM   12  C   UNL     1     -10.568   9.990  67.692  1.00  0.00    -0.270 A  
HETATM   13  C   UNL     1     -10.600   9.831  69.077  1.00  0.00    -0.238 A  
HETATM   14  C   UNL     1     -10.011   8.712  69.672  1.00  0.00    -0.191 A  
HETATM   15  C   UNL     1      -9.403   7.720  68.893  1.00  0.00    -0.146 A  
HETATM   16  C   UNL     1      -9.397   7.871  67.501  1.00  0.00    -0.166 A  
HETATM   17  C   UNL     1      -9.979   8.998  66.908  1.00  0.00    -0.313 A  
BRANCH  15  18
HETATM   18  C   UNL     1      -8.737   6.533  69.549  1.00  0.00    -0.134 C  
BRANCH  18  19
HETATM   19  C   UNL     1      -9.620   5.284  69.552  1.00  0.00    -0.152 C  
BRANCH  19  20
HETATM   20  O   UNL     1     -10.571   5.370  70.617  1.00  0.00    -0.263 OA 
BRANCH  20  21
HETATM   21  C   UNL     1      -9.912   5.311  71.883  1.00  0.00    -0.187 C  
BRANCH  21  22
HETATM   22  C   UNL     1     -10.702   6.092  72.882  1.00  0.00    -0.274 C  
HETATM   23  C   UNL     1     -10.578   7.596  72.911  1.00  0.00    -0.411 C  
HETATM   24  C   UNL     1     -11.860   6.958  72.453  1.00  0.00    -0.217 C  
ENDBRANCH  21  22
ENDBRANCH  20  21
ENDBRANCH  19  20
ENDBRANCH  18  19
ENDBRANCH  15  18
ENDBRANCH  11  12
ENDBRANCH  10  11
ENDBRANCH   7  10
ENDBRANCH   6   7
ENDBRANCH   4   6
ENDBRANCH   2   4
TORSDOF 11
ENDMDL
MODEL      289
REMARK 921   NORMALIZED FREE ENERGY PREDICTED BY IDOCK:   -2.87 KCAL/MOL
REMARK 922        TOTAL FREE ENERGY PREDICTED BY IDOCK:   -6.05 KCAL/MOL
REMARK 923 INTER-LIGAND FREE ENERGY PREDICTED BY IDOCK:   -5.40 KCAL/MOL
REMARK 924 INTRA-LIGAND FREE ENERGY PREDICTED BY IDOCK:   -0.66 KCAL/MOL
REMARK 927      BINDING AFFINITY PREDICTED BY RF-SCORE:    0.00 PKD
ROOT
HETATM    1  C   UNL     1     -12.380   9.348  71.339  1.00  0.00    -0.439 C  
HETATM    2  C   UNL     1     -11.697   8.394  72.319  1.00  0.00    -0.385 C  
HETATM    3  C   UNL     1     -12.296   6.991  72.176  1.00  0.00    -0.226 C  
ENDROOT
BRANCH   2   4
HETATM    4  N   UNL     1     -10.246   8.289  72.109  1.00  0.00    -0.258 NA 
HETATM    5  H   UNL     1      -9.925   7.347  72.331  1.00  0.00     0.000 HD 
BRANCH   4   6
HETATM    6  C   UNL     1      -9.782   8.680  70.771  1.00  0.00    -0.194 C  
BRANCH   6   7
HETATM    7  C   UNL     1     -10.103   7.712  69.616  1.00  0.00    -0.194 C  
HETATM    8  O   UNL     1      -9.633   6.402  69.975  1.00  0.00    -0.158 OA 
HETATM    9  H   UNL     1      -9.831   5.806  69.263  1.00  0.00     0.000 HD 
BRANCH   7  10
HETATM   10  C   UNL     1      -9.440   8.143  68.304  1.00  0.00    -0.141 C  
BRANCH  10  11
HETATM   11  O   UNL     1      -8.840   9.434  68.510  1.00  0.00    -0.127 OA 
BRANCH  11  12
HETATM   12  C   UNL     1      -9.327  10.451  67.731  1.00  0.00    -0.145 A  
HETATM   13  C   UNL     1     -10.634  10.936  67.762  1.00  0.00    -0.255 A  
HETATM   14  C   UNL     1     -11.029  11.952  66.887  1.00  0.00    -0.335 A  
HETATM   15  C   UNL     1     -10.121  12.518  65.984  1.00  0.00    -0.268 A  
HETATM   16  C   UNL     1      -8.803  12.045  65.976  1.00  0.00     0.045 A  
HETATM   17  C   UNL     1      -8.411  11.021  66.846  1.00  0.00    -0.138 A  
BRANCH  15  18
HETATM   18  C   UNL     1     -10.568  13.590  65.018  1.00  0.00    -0.382 C  
BRANCH  18  19
HETATM   19  C   UNL     1     -11.451  14.651  65.676  1.00  0.00    -0.340 C  
BRANCH  19  20
HETATM   20  O   UNL     1     -10.814  15.929  65.588  1.00  0.00    -0.329 OA 
BRANCH  20  21
HETATM   21  C   UNL     1     -10.685  16.514  66.884  1.00  0.00    -0.175 C  
BRANCH  21  22
HETATM   22  C   UNL     1     -10.787  15.440  67.918  1.00  0.00    -0.300 C  
HETATM   23  C   UNL     1     -10.141  15.647  69.266  1.00  0.00    -0.258 C  
HETATM   24  C   UNL     1     -11.639  15.626  69.149  1.00  0.00    -0.393 C  
ENDBRANCH  21  22
ENDBRANCH  20  21
ENDBRANCH  19  20
ENDBRANCH  18  19
ENDBRANCH  15  18
ENDBRANCH  11  12
ENDBRANCH  10  11
ENDBRANCH   7  10
ENDBRANCH   6   7
ENDBRANCH   4   6
ENDBRANCH   2   4
TORSDOF 11
ENDMDL
MODEL      290
REMARK 921   NORMALIZED FREE ENERGY PREDICTED BY IDOCK:   -2.85 KCAL/MOL
REMARK 922        TOTAL FREE ENERGY PREDICTED BY IDOCK:   -6.02 KCAL/MOL
REMARK 923 INTER-LIGAND FREE ENERGY PREDICTED BY IDOCK:   -5.28 KCAL/MOL
REMARK 924 INTRA-LIGAND FREE ENERGY PREDICTED BY IDOCK:   -0.73 KCAL/MOL
REMARK 927      BINDING AFFINITY PREDICTED BY RF-SCORE:    0.00 PKD
ROOT
HETATM    1  C   UNL     1     -11.141   5.958  72.632  1.00  0.00    -0.322 C  
HETATM    2  C   UNL     1     -11.271   6.661  71.281  1.00  0.00    -0.282 C  
HETATM    3  C   UNL     1     -11.256   8.180  71.486  1.00  0.00    -0.307 C  
ENDROOT
BRANCH   2   4
HETATM    4  N   UNL     1     -10.190   6.321  70.345  1.00  0.00    -0.193 NA 
HETATM    5  H   UNL     1      -9.300   6.262  70.842  1.00  0.00     0.000 HD 
BRANCH   4   6
HETATM    6  C   UNL     1     -10.410   5.103  69.555  1.00  0.00    -0.222 C  
BRANCH   6   7
HETATM    7  C   UNL     1      -9.487   4.888  68.341  1.00  0.00    -0.139 C  
HETATM    8  O   UNL     1      -9.503   3.493  67.997  1.00  0.00    -0.184 OA 
HETATM    9  H   UNL     1      -8.934   3.361  67.248  1.00  0.00     0.000 HD 
BRANCH   7  10
HETATM   10  C   UNL     1      -8.046   5.318  68.632  1.00  0.00    -0.090 C  
BRANCH  10  11
HETATM   11  O   UNL     1      -7.427   5.683  67.386  1.00  0.00    -0.082 OA 
BRANCH  11  12
HETATM   12  C   UNL     1      -7.819   6.883  66.853  1.00  0.00    -0.107 A  
HETATM   13  C   UNL     1      -8.303   7.071  65.558  1.00  0.00    -0.135 A  
HETATM   14  C   UNL     1      -8.632   8.352  65.109  1.00  0.00    -0.159 A  
HETATM   15  C   UNL     1      -8.510   9.464  65.950  1.00  0.00    -0.135 A  
HETATM   16  C   UNL     1      -8.049   9.266  67.258  1.00  0.00    -0.113 A  
HETATM   17  C   UNL     1      -7.710   7.984  67.704  1.00  0.00    -0.110 A  
BRANCH  15  18
HETATM   18  C   UNL     1      -8.834  10.849  65.442  1.00  0.00    -0.192 C  
BRANCH  18  19
HETATM   19  C   UNL     1      -9.849  10.839  64.298  1.00  0.00    -0.326 C  
BRANCH  19  20
HETATM   20  O   UNL     1     -10.148  12.182  63.907  1.00  0.00    -0.351 OA 
BRANCH  20  21
HETATM   21  C   UNL     1     -11.550  12.339  63.688  1.00  0.00    -0.496 C  
BRANCH  21  22
HETATM   22  C   UNL     1     -12.223  12.598  64.996  1.00  0.00    -0.535 C  
HETATM   23  C   UNL     1     -11.571  13.523  65.994  1.00  0.00    -0.363 C  
HETATM   24  C   UNL     1     -12.839  13.941  65.302  1.00  0.00    -0.437 C  
ENDBRANCH  21  22
ENDBRANCH  20  21
ENDBRANCH  19  20
ENDBRANCH  18  19
ENDBRANCH  15  18
ENDBRANCH  11  12
ENDBRANCH  10  11
ENDBRANCH   7  10
ENDBRANCH   6   7
ENDBRANCH   4   6
ENDBRANCH   2   4
TORSDOF 11
ENDMDL
MODEL      291
REMARK 921   NORMALIZED FREE ENERGY PREDICTED BY IDOCK:   -2.83 KCAL/MOL
REMARK 922        TOTAL FREE ENERGY PREDICTED BY IDOCK:   -5.98 KCAL/MOL
REMARK 923 INTER-LIGAND FREE ENERGY PREDICTED BY IDOCK:   -5.17 KCAL/MOL
REMARK 924 INTRA-LIGAND FREE ENERGY PREDICTED BY IDOCK:   -0.82 KCAL/MOL
REMARK 927      BINDING AFFINITY PREDICTED BY RF-SCORE:    0.00 PKD
ROOT
HETATM    1  C   UNL     1      -9.470   3.448  68.427  1.00  0.00    -0.209 C  
HETATM    2  C   UNL     1      -8.046   3.950  68.185  1.00  0.00    -0.083 C  
HETATM    3  C   UNL     1      -7.901   4.405  66.728  1.00  0.00    -0.098 C  
ENDROOT
BRANCH   2   4
HETATM    4  N   UNL     1      -7.675   5.078  69.050  1.00  0.00    -0.079 NA 
HETATM    5  H   UNL     1      -8.284   5.877  68.868  1.00  0.00     0.000 HD 
BRANCH   4   6
HETATM    6  C   UNL     1      -7.650   4.778  70.487  1.00  0.00    -0.058 C  
BRANCH   6   7
HETATM    7  C   UNL     1      -8.357   5.783  71.417  1.00  0.00    -0.127 C  
HETATM    8  O   UNL     1      -7.886   5.572  72.758  1.00  0.00    -0.097 OA 
HETATM    9  H   UNL     1      -8.322   6.191  73.332  1.00  0.00     0.000 HD 
BRANCH   7  10
HETATM   10  C   UNL     1      -9.880   5.621  71.386  1.00  0.00    -0.173 C  
BRANCH  10  11
HETATM   11  O   UNL     1     -10.472   6.889  71.721  1.00  0.00    -0.203 OA 
BRANCH  11  12
HETATM   12  C   UNL     1     -10.592   7.783  70.690  1.00  0.00    -0.222 A  
HETATM   13  C   UNL     1     -10.506   7.469  69.334  1.00  0.00    -0.222 A  
HETATM   14  C   UNL     1     -10.602   8.476  68.370  1.00  0.00    -0.161 A  
HETATM   15  C   UNL     1     -10.811   9.810  68.741  1.00  0.00    -0.219 A  
HETATM   16  C   UNL     1     -10.924  10.116  70.103  1.00  0.00    -0.376 A  
HETATM   17  C   UNL     1     -10.817   9.108  71.068  1.00  0.00    -0.362 A  
BRANCH  15  18
HETATM   18  C   UNL     1     -10.877  10.895  67.692  1.00  0.00    -0.317 C  
BRANCH  18  19
HETATM   19  C   UNL     1      -9.744  11.915  67.822  1.00  0.00    -0.189 C  
BRANCH  19  20
HETATM   20  O   UNL     1      -9.746  12.785  66.687  1.00  0.00    -0.238 OA 
BRANCH  20  21
HETATM   21  C   UNL     1     -10.091  12.063  65.504  1.00  0.00    -0.252 C  
BRANCH  21  22
HETATM   22  C   UNL     1     -10.977  12.914  64.653  1.00  0.00    -0.357 C  
HETATM   23  C   UNL     1     -11.987  12.255  63.747  1.00  0.00    -0.609 C  
HETATM   24  C   UNL     1     -12.452  13.036  64.945  1.00  0.00    -0.512 C  
ENDBRANCH  21  22
ENDBRANCH  20  21
ENDBRANCH  19  20
ENDBRANCH  18  19
ENDBRANCH  15  18
ENDBRANCH  11  12
ENDBRANCH  10  11
ENDBRANCH   7  10
ENDBRANCH   6   7
ENDBRANCH   4   6
ENDBRANCH   2   4
TORSDOF 11
ENDMDL
MODEL      292
REMARK 921   NORMALIZED FREE ENERGY PREDICTED BY IDOCK:   -2.79 KCAL/MOL
REMARK 922        TOTAL FREE ENERGY PREDICTED BY IDOCK:   -5.91 KCAL/MOL
REMARK 923 INTER-LIGAND FREE ENERGY PREDICTED BY IDOCK:   -4.79 KCAL/MOL
REMARK 924 INTRA-LIGAND FREE ENERGY PREDICTED BY IDOCK:   -1.13 KCAL/MOL
REMARK 927      BINDING AFFINITY PREDICTED BY RF-SCORE:    0.00 PKD
ROOT
HETATM    1  C   UNL     1      -8.885   4.666  67.144  1.00  0.00    -0.109 C  
HETATM    2  C   UNL     1     -10.373   4.858  67.437  1.00  0.00    -0.065 C  
HETATM    3  C   UNL     1     -10.560   5.295  68.894  1.00  0.00    -0.128 C  
ENDROOT
BRANCH   2   4
HETATM    4  N   UNL     1     -11.007   5.868  66.577  1.00  0.00    -0.725 NA 
HETATM    5  H   UNL     1     -11.869   5.497  66.176  1.00  0.00     0.000 HD 
BRANCH   4   6
HETATM    6  C   UNL     1     -11.264   7.161  67.223  1.00  0.00     0.012 C  
BRANCH   6   7
HETATM    7  C   UNL     1     -10.325   8.323  66.845  1.00  0.00    -0.320 C  
HETATM    8  O   UNL     1      -9.505   7.905  65.741  1.00  0.00    -0.415 OA 
HETATM    9  H   UNL     1      -8.926   8.621  65.508  1.00  0.00     0.000 HD 
BRANCH   7  10
HETATM   10  C   UNL     1      -9.424   8.735  68.014  1.00  0.00    -0.143 C  
BRANCH  10  11
HETATM   11  O   UNL     1     -10.232   9.437  68.975  1.00  0.00    -0.191 OA 
BRANCH  11  12
HETATM   12  C   UNL     1     -10.366  10.786  68.773  1.00  0.00    -0.192 A  
HETATM   13  C   UNL     1     -11.464  11.554  69.158  1.00  0.00    -0.362 A  
HETATM   14  C   UNL     1     -11.509  12.919  68.859  1.00  0.00    -0.350 A  
HETATM   15  C   UNL     1     -10.447  13.545  68.194  1.00  0.00    -0.249 A  
HETATM   16  C   UNL     1      -9.336  12.774  67.834  1.00  0.00    -0.208 A  
HETATM   17  C   UNL     1      -9.296  11.406  68.124  1.00  0.00    -0.181 A  
BRANCH  15  18
HETATM   18  C   UNL     1     -10.522  15.013  67.843  1.00  0.00    -0.247 C  
BRANCH  18  19
HETATM   19  C   UNL     1      -9.440  15.844  68.534  1.00  0.00    -0.209 C  
BRANCH  19  20
HETATM   20  O   UNL     1      -8.401  16.153  67.602  1.00  0.00    -0.148 OA 
BRANCH  20  21
HETATM   21  C   UNL     1      -7.123  16.082  68.234  1.00  0.00    -0.120 C  
BRANCH  21  22
HETATM   22  C   UNL     1      -7.215  15.182  69.423  1.00  0.00    -0.198 C  
HETATM   23  C   UNL     1      -6.365  13.936  69.475  1.00  0.00    -0.118 C  
HETATM   24  C   UNL     1      -6.078  15.078  70.409  1.00  0.00    -0.121 C  
ENDBRANCH  21  22
ENDBRANCH  20  21
ENDBRANCH  19  20
ENDBRANCH  18  19
ENDBRANCH  15  18
ENDBRANCH  11  12
ENDBRANCH  10  11
ENDBRANCH   7  10
ENDBRANCH   6   7
ENDBRANCH   4   6
ENDBRANCH   2   4
TORSDOF 11
ENDMDL
MODEL      293
REMARK 921   NORMALIZED FREE ENERGY PREDICTED BY IDOCK:   -2.79 KCAL/MOL
REMARK 922        TOTAL FREE ENERGY PREDICTED BY IDOCK:   -5.91 KCAL/MOL
REMARK 923 INTER-LIGAND FREE ENERGY PREDICTED BY IDOCK:   -4.37 KCAL/MOL
REMARK 924 INTRA-LIGAND FREE ENERGY PREDICTED BY IDOCK:   -1.54 KCAL/MOL
REMARK 927      BINDING AFFINITY PREDICTED BY RF-SCORE:    0.00 PKD
ROOT
HETATM    1  C   UNL     1     -11.430   9.291  71.522  1.00  0.00    -0.454 C  
HETATM    2  C   UNL     1     -12.187   8.085  72.081  1.00  0.00    -0.331 C  
HETATM    3  C   UNL     1     -12.415   7.058  70.966  1.00  0.00    -0.373 C  
ENDROOT
BRANCH   2   4
HETATM    4  N   UNL     1     -11.475   7.413  73.177  1.00  0.00    -0.604 NA 
HETATM    5  H   UNL     1     -11.540   6.400  73.069  1.00  0.00     0.000 HD 
BRANCH   4   6
HETATM    6  C   UNL     1     -10.073   7.815  73.347  1.00  0.00    -0.263 C  
BRANCH   6   7
HETATM    7  C   UNL     1      -9.003   6.767  72.983  1.00  0.00    -0.127 C  
HETATM    8  O   UNL     1      -9.316   5.541  73.662  1.00  0.00    -0.137 OA 
HETATM    9  H   UNL     1      -8.657   4.895  73.437  1.00  0.00     0.000 HD 
BRANCH   7  10
HETATM   10  C   UNL     1      -7.596   7.221  73.385  1.00  0.00    -0.089 C  
BRANCH  10  11
HETATM   11  O   UNL     1      -7.414   8.573  72.929  1.00  0.00    -0.285 OA 
BRANCH  11  12
HETATM   12  C   UNL     1      -7.080   8.720  71.609  1.00  0.00    -0.073 A  
HETATM   13  C   UNL     1      -7.765   9.508  70.685  1.00  0.00    -0.151 A  
HETATM   14  C   UNL     1      -7.356   9.546  69.350  1.00  0.00    -0.084 A  
HETATM   15  C   UNL     1      -6.240   8.819  68.918  1.00  0.00    -0.044 A  
HETATM   16  C   UNL     1      -5.539   8.050  69.855  1.00  0.00    -0.023 A  
HETATM   17  C   UNL     1      -5.956   8.005  71.190  1.00  0.00    -0.034 A  
BRANCH  15  18
HETATM   18  C   UNL     1      -5.827   8.839  67.465  1.00  0.00    -0.043 C  
BRANCH  18  19
HETATM   19  C   UNL     1      -6.836   8.139  66.553  1.00  0.00    -0.067 C  
BRANCH  19  20
HETATM   20  O   UNL     1      -7.562   9.114  65.799  1.00  0.00    -0.089 OA 
BRANCH  20  21
HETATM   21  C   UNL     1      -8.929   8.727  65.664  1.00  0.00    -0.200 C  
BRANCH  21  22
HETATM   22  C   UNL     1      -9.306   7.853  66.815  1.00  0.00    -0.232 C  
HETATM   23  C   UNL     1     -10.395   8.302  67.759  1.00  0.00    -0.296 C  
HETATM   24  C   UNL     1     -10.632   7.133  66.843  1.00  0.00    -0.371 C  
ENDBRANCH  21  22
ENDBRANCH  20  21
ENDBRANCH  19  20
ENDBRANCH  18  19
ENDBRANCH  15  18
ENDBRANCH  11  12
ENDBRANCH  10  11
ENDBRANCH   7  10
ENDBRANCH   6   7
ENDBRANCH   4   6
ENDBRANCH   2   4
TORSDOF 11
ENDMDL
MODEL      294
REMARK 921   NORMALIZED FREE ENERGY PREDICTED BY IDOCK:   -2.78 KCAL/MOL
REMARK 922        TOTAL FREE ENERGY PREDICTED BY IDOCK:   -5.90 KCAL/MOL
REMARK 923 INTER-LIGAND FREE ENERGY PREDICTED BY IDOCK:   -4.62 KCAL/MOL
REMARK 924 INTRA-LIGAND FREE ENERGY PREDICTED BY IDOCK:   -1.28 KCAL/MOL
REMARK 927      BINDING AFFINITY PREDICTED BY RF-SCORE:    0.00 PKD
ROOT
HETATM    1  C   UNL     1      -8.728  17.187  66.759  1.00  0.00    -0.270 C  
HETATM    2  C   UNL     1      -9.404  15.833  66.538  1.00  0.00    -0.283 C  
HETATM    3  C   UNL     1      -8.587  14.732  67.223  1.00  0.00    -0.230 C  
ENDROOT
BRANCH   2   4
HETATM    4  N   UNL     1     -10.773  15.776  67.067  1.00  0.00    -0.317 NA 
HETATM    5  H   UNL     1     -11.199  16.703  67.042  1.00  0.00     0.000 HD 
BRANCH   4   6
HETATM    6  C   UNL     1     -11.652  14.797  66.415  1.00  0.00    -0.299 C  
BRANCH   6   7
HETATM    7  C   UNL     1     -12.027  13.548  67.236  1.00  0.00    -0.365 C  
HETATM    8  O   UNL     1     -11.599  13.749  68.593  1.00  0.00    -0.287 OA 
HETATM    9  H   UNL     1     -11.830  12.979  69.099  1.00  0.00     0.000 HD 
BRANCH   7  10
HETATM   10  C   UNL     1     -11.370  12.279  66.683  1.00  0.00    -0.343 C  
BRANCH  10  11
HETATM   11  O   UNL     1     -11.724  11.181  67.542  1.00  0.00    -0.574 OA 
BRANCH  11  12
HETATM   12  C   UNL     1     -10.687  10.393  67.964  1.00  0.00    -0.249 A  
HETATM   13  C   UNL     1      -9.353  10.544  67.586  1.00  0.00    -0.160 A  
HETATM   14  C   UNL     1      -8.384   9.648  68.048  1.00  0.00    -0.117 A  
HETATM   15  C   UNL     1      -8.724   8.604  68.916  1.00  0.00    -0.131 A  
HETATM   16  C   UNL     1     -10.061   8.473  69.313  1.00  0.00    -0.203 A  
HETATM   17  C   UNL     1     -11.032   9.363  68.842  1.00  0.00    -0.081 A  
BRANCH  15  18
HETATM   18  C   UNL     1      -7.676   7.620  69.379  1.00  0.00    -0.107 C  
BRANCH  18  19
HETATM   19  C   UNL     1      -8.178   6.176  69.385  1.00  0.00    -0.113 C  
BRANCH  19  20
HETATM   20  O   UNL     1      -7.685   5.490  68.231  1.00  0.00    -0.083 OA 
BRANCH  20  21
HETATM   21  C   UNL     1      -8.736   5.278  67.287  1.00  0.00    -0.107 C  
BRANCH  21  22
HETATM   22  C   UNL     1      -8.198   5.467  65.906  1.00  0.00    -0.121 C  
HETATM   23  C   UNL     1      -8.280   6.828  65.261  1.00  0.00    -0.127 C  
HETATM   24  C   UNL     1      -6.944   6.269  65.663  1.00  0.00    -0.057 C  
ENDBRANCH  21  22
ENDBRANCH  20  21
ENDBRANCH  19  20
ENDBRANCH  18  19
ENDBRANCH  15  18
ENDBRANCH  11  12
ENDBRANCH  10  11
ENDBRANCH   7  10
ENDBRANCH   6   7
ENDBRANCH   4   6
ENDBRANCH   2   4
TORSDOF 11
ENDMDL
MODEL      295
REMARK 921   NORMALIZED FREE ENERGY PREDICTED BY IDOCK:   -2.77 KCAL/MOL
REMARK 922        TOTAL FREE ENERGY PREDICTED BY IDOCK:   -5.89 KCAL/MOL
REMARK 923 INTER-LIGAND FREE ENERGY PREDICTED BY IDOCK:   -5.08 KCAL/MOL
REMARK 924 INTRA-LIGAND FREE ENERGY PREDICTED BY IDOCK:   -0.81 KCAL/MOL
REMARK 927      BINDING AFFINITY PREDICTED BY RF-SCORE:    0.00 PKD
ROOT
HETATM    1  C   UNL     1     -11.697  15.551  64.475  1.00  0.00    -0.253 C  
HETATM    2  C   UNL     1     -11.026  14.835  65.647  1.00  0.00    -0.344 C  
HETATM    3  C   UNL     1     -11.624  13.432  65.804  1.00  0.00    -0.358 C  
ENDROOT
BRANCH   2   4
HETATM    4  N   UNL     1      -9.573  14.691  65.483  1.00  0.00    -0.520 NA 
HETATM    5  H   UNL     1      -9.292  14.999  64.552  1.00  0.00     0.000 HD 
BRANCH   4   6
HETATM    6  C   UNL     1      -8.762  15.364  66.505  1.00  0.00    -0.300 C  
BRANCH   6   7
HETATM    7  C   UNL     1      -8.162  14.473  67.611  1.00  0.00    -0.177 C  
HETATM    8  O   UNL     1      -8.774  14.827  68.862  1.00  0.00    -0.175 OA 
HETATM    9  H   UNL     1      -8.405  14.277  69.544  1.00  0.00     0.000 HD 
BRANCH   7  10
HETATM   10  C   UNL     1      -6.645  14.644  67.726  1.00  0.00    -0.171 C  
BRANCH  10  11
HETATM   11  O   UNL     1      -6.025  13.399  67.360  1.00  0.00    -0.331 OA 
BRANCH  11  12
HETATM   12  C   UNL     1      -6.140  12.382  68.271  1.00  0.00    -0.055 A  
HETATM   13  C   UNL     1      -5.807  12.468  69.622  1.00  0.00    -0.115 A  
HETATM   14  C   UNL     1      -5.925  11.348  70.450  1.00  0.00    -0.142 A  
HETATM   15  C   UNL     1      -6.403  10.131  69.950  1.00  0.00    -0.074 A  
HETATM   16  C   UNL     1      -6.762  10.058  68.599  1.00  0.00    -0.053 A  
HETATM   17  C   UNL     1      -6.633  11.177  67.768  1.00  0.00    -0.064 A  
BRANCH  15  18
HETATM   18  C   UNL     1      -6.493   8.917  70.845  1.00  0.00    -0.058 C  
BRANCH  18  19
HETATM   19  C   UNL     1      -7.883   8.280  70.843  1.00  0.00    -0.091 C  
BRANCH  19  20
HETATM   20  O   UNL     1      -8.819   9.164  71.468  1.00  0.00    -0.330 OA 
BRANCH  20  21
HETATM   21  C   UNL     1      -9.889   9.472  70.574  1.00  0.00    -0.269 C  
BRANCH  21  22
HETATM   22  C   UNL     1     -11.070   8.622  70.913  1.00  0.00    -0.310 C  
HETATM   23  C   UNL     1     -11.300   8.213  72.347  1.00  0.00    -0.456 C  
HETATM   24  C   UNL     1     -12.237   9.185  71.687  1.00  0.00    -0.433 C  
ENDBRANCH  21  22
ENDBRANCH  20  21
ENDBRANCH  19  20
ENDBRANCH  18  19
ENDBRANCH  15  18
ENDBRANCH  11  12
ENDBRANCH  10  11
ENDBRANCH   7  10
ENDBRANCH   6   7
ENDBRANCH   4   6
ENDBRANCH   2   4
TORSDOF 11
ENDMDL
MODEL      296
REMARK 921   NORMALIZED FREE ENERGY PREDICTED BY IDOCK:   -2.77 KCAL/MOL
REMARK 922        TOTAL FREE ENERGY PREDICTED BY IDOCK:   -5.88 KCAL/MOL
REMARK 923 INTER-LIGAND FREE ENERGY PREDICTED BY IDOCK:   -4.52 KCAL/MOL
REMARK 924 INTRA-LIGAND FREE ENERGY PREDICTED BY IDOCK:   -1.36 KCAL/MOL
REMARK 927      BINDING AFFINITY PREDICTED BY RF-SCORE:    0.00 PKD
ROOT
HETATM    1  C   UNL     1     -10.816   5.963  68.438  1.00  0.00    -0.322 C  
HETATM    2  C   UNL     1     -11.095   6.558  67.057  1.00  0.00    -0.339 C  
HETATM    3  C   UNL     1     -10.513   7.974  66.979  1.00  0.00    -0.410 C  
ENDROOT
BRANCH   2   4
HETATM    4  N   UNL     1     -10.518   5.771  65.959  1.00  0.00    -0.452 NA 
HETATM    5  H   UNL     1      -9.722   6.263  65.554  1.00  0.00     0.000 HD 
BRANCH   4   6
HETATM    6  C   UNL     1     -10.137   4.397  66.312  1.00  0.00    -0.225 C  
BRANCH   6   7
HETATM    7  C   UNL     1      -9.042   3.739  65.451  1.00  0.00    -0.145 C  
HETATM    8  O   UNL     1      -9.463   2.406  65.118  1.00  0.00    -0.286 OA 
HETATM    9  H   UNL     1      -8.788   2.000  64.587  1.00  0.00     0.000 HD 
BRANCH   7  10
HETATM   10  C   UNL     1      -7.698   3.674  66.183  1.00  0.00    -0.088 C  
BRANCH  10  11
HETATM   11  O   UNL     1      -7.335   5.011  66.570  1.00  0.00    -0.082 OA 
BRANCH  11  12
HETATM   12  C   UNL     1      -7.214   5.231  67.917  1.00  0.00    -0.071 A  
HETATM   13  C   UNL     1      -7.158   4.239  68.895  1.00  0.00    -0.051 A  
HETATM   14  C   UNL     1      -7.078   4.585  70.247  1.00  0.00    -0.048 A  
HETATM   15  C   UNL     1      -7.025   5.927  70.644  1.00  0.00    -0.062 A  
HETATM   16  C   UNL     1      -7.054   6.919  69.656  1.00  0.00    -0.068 A  
HETATM   17  C   UNL     1      -7.145   6.571  68.304  1.00  0.00    -0.083 A  
BRANCH  15  18
HETATM   18  C   UNL     1      -6.975   6.291  72.109  1.00  0.00    -0.074 C  
BRANCH  18  19
HETATM   19  C   UNL     1      -8.178   5.765  72.893  1.00  0.00    -0.119 C  
BRANCH  19  20
HETATM   20  O   UNL     1      -8.518   6.687  73.931  1.00  0.00    -0.119 OA 
BRANCH  20  21
HETATM   21  C   UNL     1      -9.348   7.732  73.422  1.00  0.00    -0.285 C  
BRANCH  21  22
HETATM   22  C   UNL     1     -10.752   7.233  73.313  1.00  0.00    -0.428 C  
HETATM   23  C   UNL     1     -11.763   8.034  72.531  1.00  0.00    -0.446 C  
HETATM   24  C   UNL     1     -11.291   6.706  72.007  1.00  0.00    -0.317 C  
ENDBRANCH  21  22
ENDBRANCH  20  21
ENDBRANCH  19  20
ENDBRANCH  18  19
ENDBRANCH  15  18
ENDBRANCH  11  12
ENDBRANCH  10  11
ENDBRANCH   7  10
ENDBRANCH   6   7
ENDBRANCH   4   6
ENDBRANCH   2   4
TORSDOF 11
ENDMDL
MODEL      297
REMARK 921   NORMALIZED FREE ENERGY PREDICTED BY IDOCK:   -2.76 KCAL/MOL
REMARK 922        TOTAL FREE ENERGY PREDICTED BY IDOCK:   -5.86 KCAL/MOL
REMARK 923 INTER-LIGAND FREE ENERGY PREDICTED BY IDOCK:   -4.71 KCAL/MOL
REMARK 924 INTRA-LIGAND FREE ENERGY PREDICTED BY IDOCK:   -1.16 KCAL/MOL
REMARK 927      BINDING AFFINITY PREDICTED BY RF-SCORE:    0.00 PKD
ROOT
HETATM    1  C   UNL     1     -10.655  19.823  66.112  1.00  0.00    -0.569 C  
HETATM    2  C   UNL     1     -10.095  18.840  67.142  1.00  0.00    -0.354 C  
HETATM    3  C   UNL     1     -10.502  17.412  66.765  1.00  0.00    -0.257 C  
ENDROOT
BRANCH   2   4
HETATM    4  N   UNL     1      -8.630  18.881  67.244  1.00  0.00    -0.275 NA 
HETATM    5  H   UNL     1      -8.278  19.774  66.898  1.00  0.00     0.000 HD 
BRANCH   4   6
HETATM    6  C   UNL     1      -8.091  18.608  68.583  1.00  0.00    -0.322 C  
BRANCH   6   7
HETATM    7  C   UNL     1      -7.066  17.463  68.697  1.00  0.00    -0.237 C  
HETATM    8  O   UNL     1      -6.302  17.413  67.481  1.00  0.00    -0.139 OA 
HETATM    9  H   UNL     1      -5.670  16.707  67.551  1.00  0.00     0.000 HD 
BRANCH   7  10
HETATM   10  C   UNL     1      -7.742  16.107  68.923  1.00  0.00    -0.207 C  
BRANCH  10  11
HETATM   11  O   UNL     1      -7.576  15.320  67.731  1.00  0.00    -0.129 OA 
BRANCH  11  12
HETATM   12  C   UNL     1      -8.273  14.141  67.690  1.00  0.00    -0.186 A  
HETATM   13  C   UNL     1      -9.596  14.000  67.273  1.00  0.00    -0.238 A  
HETATM   14  C   UNL     1     -10.219  12.749  67.317  1.00  0.00    -0.232 A  
HETATM   15  C   UNL     1      -9.524  11.614  67.753  1.00  0.00    -0.178 A  
HETATM   16  C   UNL     1      -8.188  11.757  68.145  1.00  0.00    -0.153 A  
HETATM   17  C   UNL     1      -7.569  13.012  68.111  1.00  0.00    -0.136 A  
BRANCH  15  18
HETATM   18  C   UNL     1     -10.218  10.274  67.831  1.00  0.00    -0.217 C  
BRANCH  18  19
HETATM   19  C   UNL     1      -9.365   9.203  68.512  1.00  0.00    -0.135 C  
BRANCH  19  20
HETATM   20  O   UNL     1      -8.427   8.667  67.575  1.00  0.00    -0.122 OA 
BRANCH  20  21
HETATM   21  C   UNL     1      -9.072   8.362  66.338  1.00  0.00    -0.187 C  
BRANCH  21  22
HETATM   22  C   UNL     1      -8.215   8.835  65.209  1.00  0.00    -0.145 C  
HETATM   23  C   UNL     1      -8.352  10.256  64.722  1.00  0.00    -0.173 C  
HETATM   24  C   UNL     1      -7.103   9.827  65.441  1.00  0.00    -0.113 C  
ENDBRANCH  21  22
ENDBRANCH  20  21
ENDBRANCH  19  20
ENDBRANCH  18  19
ENDBRANCH  15  18
ENDBRANCH  11  12
ENDBRANCH  10  11
ENDBRANCH   7  10
ENDBRANCH   6   7
ENDBRANCH   4   6
ENDBRANCH   2   4
TORSDOF 11
ENDMDL
MODEL      298
REMARK 921   NORMALIZED FREE ENERGY PREDICTED BY IDOCK:   -2.75 KCAL/MOL
REMARK 922        TOTAL FREE ENERGY PREDICTED BY IDOCK:   -5.85 KCAL/MOL
REMARK 923 INTER-LIGAND FREE ENERGY PREDICTED BY IDOCK:   -4.58 KCAL/MOL
REMARK 924 INTRA-LIGAND FREE ENERGY PREDICTED BY IDOCK:   -1.27 KCAL/MOL
REMARK 927      BINDING AFFINITY PREDICTED BY RF-SCORE:    0.00 PKD
ROOT
HETATM    1  C   UNL     1      -8.770   5.033  67.586  1.00  0.00    -0.103 C  
HETATM    2  C   UNL     1      -9.834   5.948  66.979  1.00  0.00    -0.149 C  
HETATM    3  C   UNL     1     -10.550   6.717  68.095  1.00  0.00    -0.279 C  
ENDROOT
BRANCH   2   4
HETATM    4  N   UNL     1      -9.284   6.930  66.034  1.00  0.00    -0.347 NA 
HETATM    5  H   UNL     1      -8.858   7.706  66.542  1.00  0.00     0.000 HD 
BRANCH   4   6
HETATM    6  C   UNL     1      -8.336   6.385  65.053  1.00  0.00    -0.087 C  
BRANCH   6   7
HETATM    7  C   UNL     1      -7.688   7.393  64.084  1.00  0.00    -0.121 C  
HETATM    8  O   UNL     1      -6.319   7.009  63.877  1.00  0.00    -0.042 OA 
HETATM    9  H   UNL     1      -5.919   7.630  63.279  1.00  0.00     0.000 HD 
BRANCH   7  10
HETATM   10  C   UNL     1      -7.733   8.824  64.629  1.00  0.00    -0.119 C  
BRANCH  10  11
HETATM   11  O   UNL     1      -8.903   9.469  64.096  1.00  0.00    -0.210 OA 
BRANCH  11  12
HETATM   12  C   UNL     1      -9.455  10.448  64.879  1.00  0.00    -0.265 A  
HETATM   13  C   UNL     1     -10.467  11.322  64.484  1.00  0.00    -0.396 A  
HETATM   14  C   UNL     1     -10.922  12.314  65.358  1.00  0.00    -0.341 A  
HETATM   15  C   UNL     1     -10.393  12.435  66.648  1.00  0.00    -0.245 A  
HETATM   16  C   UNL     1      -9.395  11.538  67.049  1.00  0.00    -0.185 A  
HETATM   17  C   UNL     1      -8.933  10.551  66.170  1.00  0.00    -0.178 A  
BRANCH  15  18
HETATM   18  C   UNL     1     -10.866  13.534  67.571  1.00  0.00    -0.276 C  
BRANCH  18  19
HETATM   19  C   UNL     1     -12.211  13.219  68.228  1.00  0.00    -0.059 C  
BRANCH  19  20
HETATM   20  O   UNL     1     -12.360  11.804  68.366  1.00  0.00    -0.364 OA 
BRANCH  20  21
HETATM   21  C   UNL     1     -12.438  11.441  69.745  1.00  0.00    -0.096 C  
BRANCH  21  22
HETATM   22  C   UNL     1     -11.707  10.155  69.955  1.00  0.00    -0.248 C  
HETATM   23  C   UNL     1     -10.799  10.007  71.151  1.00  0.00    -0.083 C  
HETATM   24  C   UNL     1     -12.080   9.224  71.082  1.00  0.00    -0.389 C  
ENDBRANCH  21  22
ENDBRANCH  20  21
ENDBRANCH  19  20
ENDBRANCH  18  19
ENDBRANCH  15  18
ENDBRANCH  11  12
ENDBRANCH  10  11
ENDBRANCH   7  10
ENDBRANCH   6   7
ENDBRANCH   4   6
ENDBRANCH   2   4
TORSDOF 11
ENDMDL
MODEL      299
REMARK 921   NORMALIZED FREE ENERGY PREDICTED BY IDOCK:   -2.75 KCAL/MOL
REMARK 922        TOTAL FREE ENERGY PREDICTED BY IDOCK:   -5.85 KCAL/MOL
REMARK 923 INTER-LIGAND FREE ENERGY PREDICTED BY IDOCK:   -3.74 KCAL/MOL
REMARK 924 INTRA-LIGAND FREE ENERGY PREDICTED BY IDOCK:   -2.12 KCAL/MOL
REMARK 927      BINDING AFFINITY PREDICTED BY RF-SCORE:    0.00 PKD
ROOT
HETATM    1  C   UNL     1      -9.508  10.510  67.304  1.00  0.00    -0.179 C  
HETATM    2  C   UNL     1     -10.738   9.602  67.287  1.00  0.00    -0.214 C  
HETATM    3  C   UNL     1     -10.329   8.189  66.856  1.00  0.00    -0.401 C  
ENDROOT
BRANCH   2   4
HETATM    4  N   UNL     1     -11.402   9.502  68.593  1.00  0.00    -0.464 NA 
HETATM    5  H   UNL     1     -11.683   8.538  68.773  1.00  0.00     0.000 HD 
BRANCH   4   6
HETATM    6  C   UNL     1     -10.628  10.023  69.727  1.00  0.00    -0.267 C  
BRANCH   6   7
HETATM    7  C   UNL     1     -10.026   8.983  70.691  1.00  0.00    -0.233 C  
HETATM    8  O   UNL     1     -10.631   9.155  71.983  1.00  0.00    -0.333 OA 
HETATM    9  H   UNL     1     -10.260   8.514  72.578  1.00  0.00     0.000 HD 
BRANCH   7  10
HETATM   10  C   UNL     1      -8.507   9.133  70.822  1.00  0.00    -0.212 C  
BRANCH  10  11
HETATM   11  O   UNL     1      -7.923   7.819  70.793  1.00  0.00    -0.097 OA 
BRANCH  11  12
HETATM   12  C   UNL     1      -7.640   7.317  69.550  1.00  0.00    -0.100 A  
HETATM   13  C   UNL     1      -7.897   6.013  69.129  1.00  0.00    -0.099 A  
HETATM   14  C   UNL     1      -7.522   5.600  67.847  1.00  0.00    -0.077 A  
HETATM   15  C   UNL     1      -6.910   6.489  66.955  1.00  0.00    -0.066 A  
HETATM   16  C   UNL     1      -6.679   7.804  67.374  1.00  0.00    -0.068 A  
HETATM   17  C   UNL     1      -7.044   8.214  68.662  1.00  0.00    -0.072 A  
BRANCH  15  18
HETATM   18  C   UNL     1      -6.476   6.022  65.585  1.00  0.00    -0.043 C  
BRANCH  18  19
HETATM   19  C   UNL     1      -7.204   6.749  64.453  1.00  0.00    -0.069 C  
BRANCH  19  20
HETATM   20  O   UNL     1      -8.522   6.213  64.305  1.00  0.00    -0.035 OA 
BRANCH  20  21
HETATM   21  C   UNL     1      -8.468   4.892  63.767  1.00  0.00    -0.133 C  
BRANCH  21  22
HETATM   22  C   UNL     1      -9.564   4.073  64.368  1.00  0.00    -0.170 C  
HETATM   23  C   UNL     1      -9.291   3.280  65.623  1.00  0.00    -0.128 C  
HETATM   24  C   UNL     1     -10.205   4.473  65.674  1.00  0.00    -0.275 C  
ENDBRANCH  21  22
ENDBRANCH  20  21
ENDBRANCH  19  20
ENDBRANCH  18  19
ENDBRANCH  15  18
ENDBRANCH  11  12
ENDBRANCH  10  11
ENDBRANCH   7  10
ENDBRANCH   6   7
ENDBRANCH   4   6
ENDBRANCH   2   4
TORSDOF 11
ENDMDL
MODEL      300
REMARK 921   NORMALIZED FREE ENERGY PREDICTED BY IDOCK:   -2.74 KCAL/MOL
REMARK 922        TOTAL FREE ENERGY PREDICTED BY IDOCK:   -5.84 KCAL/MOL
REMARK 923 INTER-LIGAND FREE ENERGY PREDICTED BY IDOCK:   -4.74 KCAL/MOL
REMARK 924 INTRA-LIGAND FREE ENERGY PREDICTED BY IDOCK:   -1.10 KCAL/MOL
REMARK 927      BINDING AFFINITY PREDICTED BY RF-SCORE:    0.00 PKD
ROOT
HETATM    1  C   UNL     1     -12.001  10.971  69.229  1.00  0.00    -0.410 C  
HETATM    2  C   UNL     1     -11.480  12.250  68.573  1.00  0.00    -0.303 C  
HETATM    3  C   UNL     1     -11.994  13.471  69.344  1.00  0.00    -0.383 C  
ENDROOT
BRANCH   2   4
HETATM    4  N   UNL     1     -10.013  12.325  68.534  1.00  0.00    -0.309 NA 
HETATM    5  H   UNL     1      -9.608  11.585  69.107  1.00  0.00     0.000 HD 
BRANCH   4   6
HETATM    6  C   UNL     1      -9.425  12.303  67.189  1.00  0.00    -0.196 C  
BRANCH   6   7
HETATM    7  C   UNL     1      -8.869  10.952  66.698  1.00  0.00    -0.159 C  
HETATM    8  O   UNL     1      -7.888  11.206  65.679  1.00  0.00    -0.363 OA 
HETATM    9  H   UNL     1      -7.545  10.374  65.376  1.00  0.00     0.000 HD 
BRANCH   7  10
HETATM   10  C   UNL     1      -9.969  10.053  66.125  1.00  0.00    -0.256 C  
BRANCH  10  11
HETATM   11  O   UNL     1      -9.402   8.753  65.882  1.00  0.00    -0.220 OA 
BRANCH  11  12
HETATM   12  C   UNL     1      -9.486   7.861  66.917  1.00  0.00    -0.191 A  
HETATM   13  C   UNL     1      -8.415   7.432  67.702  1.00  0.00    -0.120 A  
HETATM   14  C   UNL     1      -8.614   6.481  68.707  1.00  0.00    -0.121 A  
HETATM   15  C   UNL     1      -9.888   5.961  68.964  1.00  0.00    -0.193 A  
HETATM   16  C   UNL     1     -10.964   6.414  68.190  1.00  0.00    -0.393 A  
HETATM   17  C   UNL     1     -10.762   7.359  67.177  1.00  0.00    -0.400 A  
BRANCH  15  18
HETATM   18  C   UNL     1     -10.085   4.907  70.027  1.00  0.00    -0.337 C  
BRANCH  18  19
HETATM   19  C   UNL     1      -8.987   3.843  70.019  1.00  0.00    -0.100 C  
BRANCH  19  20
HETATM   20  O   UNL     1      -9.270   2.865  69.014  1.00  0.00    -0.132 OA 
BRANCH  20  21
HETATM   21  C   UNL     1      -8.059   2.319  68.491  1.00  0.00    -0.056 C  
BRANCH  21  22
HETATM   22  C   UNL     1      -6.929   3.246  68.803  1.00  0.00    -0.049 C  
HETATM   23  C   UNL     1      -5.549   2.680  69.028  1.00  0.00    -0.021 C  
HETATM   24  C   UNL     1      -5.832   3.499  67.800  1.00  0.00    -0.023 C  
ENDBRANCH  21  22
ENDBRANCH  20  21
ENDBRANCH  19  20
ENDBRANCH  18  19
ENDBRANCH  15  18
ENDBRANCH  11  12
ENDBRANCH  10  11
ENDBRANCH   7  10
ENDBRANCH   6   7
ENDBRANCH   4   6
ENDBRANCH   2   4
TORSDOF 11
ENDMDL
MODEL      301
REMARK 921   NORMALIZED FREE ENERGY PREDICTED BY IDOCK:   -2.72 KCAL/MOL
REMARK 922        TOTAL FREE ENERGY PREDICTED BY IDOCK:   -5.80 KCAL/MOL
REMARK 923 INTER-LIGAND FREE ENERGY PREDICTED BY IDOCK:   -5.90 KCAL/MOL
REMARK 924 INTRA-LIGAND FREE ENERGY PREDICTED BY IDOCK:    0.10 KCAL/MOL
REMARK 927      BINDING AFFINITY PREDICTED BY RF-SCORE:    0.00 PKD
ROOT
HETATM    1  C   UNL     1     -11.115  10.442  69.978  1.00  0.00    -0.379 C  
HETATM    2  C   UNL     1     -11.936  11.669  69.581  1.00  0.00    -0.324 C  
HETATM    3  C   UNL     1     -12.416  12.398  70.841  1.00  0.00    -0.367 C  
ENDROOT
BRANCH   2   4
HETATM    4  N   UNL     1     -11.183  12.630  68.762  1.00  0.00    -0.263 NA 
HETATM    5  H   UNL     1     -10.666  12.140  68.032  1.00  0.00     0.000 HD 
BRANCH   4   6
HETATM    6  C   UNL     1     -11.985  13.711  68.176  1.00  0.00    -0.355 C  
BRANCH   6   7
HETATM    7  C   UNL     1     -11.696  14.070  66.706  1.00  0.00    -0.407 C  
HETATM    8  O   UNL     1     -11.338  15.460  66.637  1.00  0.00    -0.243 OA 
HETATM    9  H   UNL     1     -11.160  15.681  65.731  1.00  0.00     0.000 HD 
BRANCH   7  10
HETATM   10  C   UNL     1     -12.908  13.816  65.804  1.00  0.00    -0.379 C  
BRANCH  10  11
HETATM   11  O   UNL     1     -12.427  13.501  64.485  1.00  0.00    -0.556 OA 
BRANCH  11  12
HETATM   12  C   UNL     1     -11.447  12.547  64.419  1.00  0.00    -0.349 A  
HETATM   13  C   UNL     1     -10.489  12.443  63.410  1.00  0.00    -0.353 A  
HETATM   14  C   UNL     1      -9.562  11.396  63.424  1.00  0.00    -0.344 A  
HETATM   15  C   UNL     1      -9.558  10.452  64.457  1.00  0.00    -0.369 A  
HETATM   16  C   UNL     1     -10.506  10.576  65.481  1.00  0.00    -0.220 A  
HETATM   17  C   UNL     1     -11.440  11.618  65.461  1.00  0.00    -0.168 A  
BRANCH  15  18
HETATM   18  C   UNL     1      -8.576   9.304  64.443  1.00  0.00    -0.216 C  
BRANCH  18  19
HETATM   19  C   UNL     1      -8.608   8.480  65.731  1.00  0.00    -0.168 C  
BRANCH  19  20
HETATM   20  O   UNL     1      -7.636   8.985  66.650  1.00  0.00    -0.088 OA 
BRANCH  20  21
HETATM   21  C   UNL     1      -7.528   8.127  67.787  1.00  0.00    -0.094 C  
BRANCH  21  22
HETATM   22  C   UNL     1      -7.379   6.715  67.321  1.00  0.00    -0.090 C  
HETATM   23  C   UNL     1      -6.815   5.680  68.264  1.00  0.00    -0.063 C  
HETATM   24  C   UNL     1      -8.263   5.620  67.864  1.00  0.00    -0.101 C  
ENDBRANCH  21  22
ENDBRANCH  20  21
ENDBRANCH  19  20
ENDBRANCH  18  19
ENDBRANCH  15  18
ENDBRANCH  11  12
ENDBRANCH  10  11
ENDBRANCH   7  10
ENDBRANCH   6   7
ENDBRANCH   4   6
ENDBRANCH   2   4
TORSDOF 11
ENDMDL
MODEL      302
REMARK 921   NORMALIZED FREE ENERGY PREDICTED BY IDOCK:   -2.69 KCAL/MOL
REMARK 922        TOTAL FREE ENERGY PREDICTED BY IDOCK:   -5.76 KCAL/MOL
REMARK 923 INTER-LIGAND FREE ENERGY PREDICTED BY IDOCK:   -5.36 KCAL/MOL
REMARK 924 INTRA-LIGAND FREE ENERGY PREDICTED BY IDOCK:   -0.40 KCAL/MOL
REMARK 927      BINDING AFFINITY PREDICTED BY RF-SCORE:    0.00 PKD
ROOT
HETATM    1  C   UNL     1     -11.489  15.863  64.392  1.00  0.00    -0.268 C  
HETATM    2  C   UNL     1     -11.499  14.809  65.499  1.00  0.00    -0.329 C  
HETATM    3  C   UNL     1     -12.637  13.813  65.252  1.00  0.00    -0.510 C  
ENDROOT
BRANCH   2   4
HETATM    4  N   UNL     1     -10.244  14.049  65.587  1.00  0.00    -0.321 NA 
HETATM    5  H   UNL     1      -9.716  14.143  64.719  1.00  0.00     0.000 HD 
BRANCH   4   6
HETATM    6  C   UNL     1      -9.394  14.383  66.737  1.00  0.00    -0.268 C  
BRANCH   6   7
HETATM    7  C   UNL     1      -9.194  13.280  67.794  1.00  0.00    -0.209 C  
HETATM    8  O   UNL     1      -9.955  13.626  68.963  1.00  0.00    -0.421 OA 
HETATM    9  H   UNL     1      -9.831  12.945  69.614  1.00  0.00     0.000 HD 
BRANCH   7  10
HETATM   10  C   UNL     1      -7.721  13.116  68.181  1.00  0.00    -0.143 C  
BRANCH  10  11
HETATM   11  O   UNL     1      -7.279  11.826  67.724  1.00  0.00    -0.085 OA 
BRANCH  11  12
HETATM   12  C   UNL     1      -7.743  10.749  68.433  1.00  0.00    -0.113 A  
HETATM   13  C   UNL     1      -7.377  10.423  69.739  1.00  0.00    -0.157 A  
HETATM   14  C   UNL     1      -7.884   9.271  70.346  1.00  0.00    -0.158 A  
HETATM   15  C   UNL     1      -8.786   8.439  69.672  1.00  0.00    -0.133 A  
HETATM   16  C   UNL     1      -9.170   8.785  68.370  1.00  0.00    -0.137 A  
HETATM   17  C   UNL     1      -8.654   9.933  67.759  1.00  0.00    -0.121 A  
BRANCH  15  18
HETATM   18  C   UNL     1      -9.299   7.177  70.324  1.00  0.00    -0.155 C  
BRANCH  18  19
HETATM   19  C   UNL     1     -10.796   7.234  70.630  1.00  0.00    -0.242 C  
BRANCH  19  20
HETATM   20  O   UNL     1     -11.058   8.285  71.564  1.00  0.00    -0.241 OA 
BRANCH  20  21
HETATM   21  C   UNL     1     -11.588   9.430  70.894  1.00  0.00    -0.312 C  
BRANCH  21  22
HETATM   22  C   UNL     1     -13.039   9.562  71.227  1.00  0.00    -0.402 C  
HETATM   23  C   UNL     1     -13.541   9.062  72.559  1.00  0.00    -0.492 C  
HETATM   24  C   UNL     1     -13.509  10.538  72.276  1.00  0.00    -0.140 C  
ENDBRANCH  21  22
ENDBRANCH  20  21
ENDBRANCH  19  20
ENDBRANCH  18  19
ENDBRANCH  15  18
ENDBRANCH  11  12
ENDBRANCH  10  11
ENDBRANCH   7  10
ENDBRANCH   6   7
ENDBRANCH   4   6
ENDBRANCH   2   4
TORSDOF 11
ENDMDL
MODEL      303
REMARK 921   NORMALIZED FREE ENERGY PREDICTED BY IDOCK:   -2.69 KCAL/MOL
REMARK 922        TOTAL FREE ENERGY PREDICTED BY IDOCK:   -5.75 KCAL/MOL
REMARK 923 INTER-LIGAND FREE ENERGY PREDICTED BY IDOCK:   -5.04 KCAL/MOL
REMARK 924 INTRA-LIGAND FREE ENERGY PREDICTED BY IDOCK:   -0.71 KCAL/MOL
REMARK 927      BINDING AFFINITY PREDICTED BY RF-SCORE:    0.00 PKD
ROOT
HETATM    1  C   UNL     1     -11.419   8.709  70.852  1.00  0.00    -0.315 C  
HETATM    2  C   UNL     1      -9.968   8.469  70.432  1.00  0.00    -0.183 C  
HETATM    3  C   UNL     1      -9.079   8.389  71.678  1.00  0.00    -0.268 C  
ENDROOT
BRANCH   2   4
HETATM    4  N   UNL     1      -9.785   7.228  69.666  1.00  0.00    -0.159 NA 
HETATM    5  H   UNL     1      -9.974   6.419  70.257  1.00  0.00     0.000 HD 
BRANCH   4   6
HETATM    6  C   UNL     1     -10.566   7.143  68.425  1.00  0.00    -0.186 C  
BRANCH   6   7
HETATM    7  C   UNL     1     -10.072   7.991  67.237  1.00  0.00    -0.240 C  
HETATM    8  O   UNL     1      -8.693   8.329  67.460  1.00  0.00    -0.127 OA 
HETATM    9  H   UNL     1      -8.389   8.852  66.727  1.00  0.00     0.000 HD 
BRANCH   7  10
HETATM   10  C   UNL     1     -10.886   9.278  67.073  1.00  0.00    -0.007 C  
BRANCH  10  11
HETATM   11  O   UNL     1     -10.426   9.951  65.888  1.00  0.00    -0.158 OA 
BRANCH  11  12
HETATM   12  C   UNL     1     -10.190  11.294  66.016  1.00  0.00    -0.247 A  
HETATM   13  C   UNL     1      -9.020  11.864  66.518  1.00  0.00    -0.199 A  
HETATM   14  C   UNL     1      -8.910  13.252  66.643  1.00  0.00    -0.072 A  
HETATM   15  C   UNL     1      -9.954  14.096  66.244  1.00  0.00    -0.315 A  
HETATM   16  C   UNL     1     -11.115  13.519  65.715  1.00  0.00    -0.295 A  
HETATM   17  C   UNL     1     -11.229  12.129  65.601  1.00  0.00    -0.381 A  
BRANCH  15  18
HETATM   18  C   UNL     1      -9.838  15.592  66.417  1.00  0.00    -0.298 C  
BRANCH  18  19
HETATM   19  C   UNL     1      -9.183  15.987  67.741  1.00  0.00    -0.205 C  
BRANCH  19  20
HETATM   20  O   UNL     1      -9.597  15.086  68.772  1.00  0.00    -0.206 OA 
BRANCH  20  21
HETATM   21  C   UNL     1     -10.582  15.697  69.605  1.00  0.00    -0.283 C  
BRANCH  21  22
HETATM   22  C   UNL     1     -11.350  14.632  70.318  1.00  0.00    -0.253 C  
HETATM   23  C   UNL     1     -12.850  14.748  70.425  1.00  0.00    -0.323 C  
HETATM   24  C   UNL     1     -12.242  13.679  69.561  1.00  0.00    -0.316 C  
ENDBRANCH  21  22
ENDBRANCH  20  21
ENDBRANCH  19  20
ENDBRANCH  18  19
ENDBRANCH  15  18
ENDBRANCH  11  12
ENDBRANCH  10  11
ENDBRANCH   7  10
ENDBRANCH   6   7
ENDBRANCH   4   6
ENDBRANCH   2   4
TORSDOF 11
ENDMDL
MODEL      304
REMARK 921   NORMALIZED FREE ENERGY PREDICTED BY IDOCK:   -2.68 KCAL/MOL
REMARK 922        TOTAL FREE ENERGY PREDICTED BY IDOCK:   -5.73 KCAL/MOL
REMARK 923 INTER-LIGAND FREE ENERGY PREDICTED BY IDOCK:   -4.97 KCAL/MOL
REMARK 924 INTRA-LIGAND FREE ENERGY PREDICTED BY IDOCK:   -0.76 KCAL/MOL
REMARK 927      BINDING AFFINITY PREDICTED BY RF-SCORE:    0.00 PKD
ROOT
HETATM    1  C   UNL     1      -9.551   9.096  66.275  1.00  0.00    -0.321 C  
HETATM    2  C   UNL     1      -9.436  10.616  66.406  1.00  0.00    -0.171 C  
HETATM    3  C   UNL     1     -10.185  11.289  65.250  1.00  0.00    -0.328 C  
ENDROOT
BRANCH   2   4
HETATM    4  N   UNL     1      -9.989  11.132  67.665  1.00  0.00    -0.172 NA 
HETATM    5  H   UNL     1      -9.364  11.834  68.062  1.00  0.00     0.000 HD 
BRANCH   4   6
HETATM    6  C   UNL     1     -11.354  11.665  67.574  1.00  0.00    -0.298 C  
BRANCH   6   7
HETATM    7  C   UNL     1     -12.130  11.814  68.897  1.00  0.00    -0.178 C  
HETATM    8  O   UNL     1     -12.465  13.200  69.075  1.00  0.00    -0.016 OA 
HETATM    9  H   UNL     1     -12.943  13.292  69.891  1.00  0.00     0.000 HD 
BRANCH   7  10
HETATM   10  C   UNL     1     -11.311  11.335  70.099  1.00  0.00    -0.164 C  
BRANCH  10  11
HETATM   11  O   UNL     1     -11.529   9.921  70.254  1.00  0.00    -0.260 OA 
BRANCH  11  12
HETATM   12  C   UNL     1     -10.640   9.264  71.064  1.00  0.00    -0.316 A  
HETATM   13  C   UNL     1     -10.962   8.616  72.256  1.00  0.00    -0.392 A  
HETATM   14  C   UNL     1      -9.960   8.014  73.023  1.00  0.00    -0.349 A  
HETATM   15  C   UNL     1      -8.625   8.027  72.602  1.00  0.00    -0.237 A  
HETATM   16  C   UNL     1      -8.312   8.657  71.391  1.00  0.00    -0.217 A  
HETATM   17  C   UNL     1      -9.314   9.267  70.628  1.00  0.00    -0.329 A  
BRANCH  15  18
HETATM   18  C   UNL     1      -7.546   7.406  73.457  1.00  0.00    -0.116 C  
BRANCH  18  19
HETATM   19  C   UNL     1      -7.458   5.888  73.292  1.00  0.00    -0.094 C  
BRANCH  19  20
HETATM   20  O   UNL     1      -8.762   5.314  73.413  1.00  0.00    -0.115 OA 
BRANCH  20  21
HETATM   21  C   UNL     1      -8.989   4.361  72.374  1.00  0.00    -0.119 C  
BRANCH  21  22
HETATM   22  C   UNL     1     -10.220   3.576  72.689  1.00  0.00    -0.241 C  
HETATM   23  C   UNL     1     -10.437   3.074  74.096  1.00  0.00    -0.236 C  
HETATM   24  C   UNL     1     -11.317   4.161  73.544  1.00  0.00    -0.297 C  
ENDBRANCH  21  22
ENDBRANCH  20  21
ENDBRANCH  19  20
ENDBRANCH  18  19
ENDBRANCH  15  18
ENDBRANCH  11  12
ENDBRANCH  10  11
ENDBRANCH   7  10
ENDBRANCH   6   7
ENDBRANCH   4   6
ENDBRANCH   2   4
TORSDOF 11
ENDMDL
MODEL      305
REMARK 921   NORMALIZED FREE ENERGY PREDICTED BY IDOCK:   -2.67 KCAL/MOL
REMARK 922        TOTAL FREE ENERGY PREDICTED BY IDOCK:   -5.72 KCAL/MOL
REMARK 923 INTER-LIGAND FREE ENERGY PREDICTED BY IDOCK:   -5.48 KCAL/MOL
REMARK 924 INTRA-LIGAND FREE ENERGY PREDICTED BY IDOCK:   -0.24 KCAL/MOL
REMARK 927      BINDING AFFINITY PREDICTED BY RF-SCORE:    0.00 PKD
ROOT
HETATM    1  C   UNL     1     -12.267  14.354  64.450  1.00  0.00    -0.481 C  
HETATM    2  C   UNL     1     -12.493  12.877  64.776  1.00  0.00    -0.455 C  
HETATM    3  C   UNL     1     -12.582  12.071  63.476  1.00  0.00    -0.625 C  
ENDROOT
BRANCH   2   4
HETATM    4  N   UNL     1     -11.423  12.294  65.597  1.00  0.00    -0.355 NA 
HETATM    5  H   UNL     1     -10.531  12.738  65.379  1.00  0.00     0.000 HD 
BRANCH   4   6
HETATM    6  C   UNL     1     -11.663  12.325  67.046  1.00  0.00    -0.329 C  
BRANCH   6   7
HETATM    7  C   UNL     1     -11.267  11.066  67.841  1.00  0.00    -0.310 C  
HETATM    8  O   UNL     1     -12.385  10.670  68.653  1.00  0.00    -0.820 OA 
HETATM    9  H   UNL     1     -12.141   9.894  69.143  1.00  0.00     0.000 HD 
BRANCH   7  10
HETATM   10  C   UNL     1     -10.053  11.314  68.741  1.00  0.00    -0.194 C  
BRANCH  10  11
HETATM   11  O   UNL     1      -8.894  10.764  68.090  1.00  0.00    -0.125 OA 
BRANCH  11  12
HETATM   12  C   UNL     1      -8.738   9.407  68.191  1.00  0.00    -0.124 A  
HETATM   13  C   UNL     1      -9.206   8.617  69.240  1.00  0.00    -0.150 A  
HETATM   14  C   UNL     1      -8.949   7.243  69.257  1.00  0.00    -0.135 A  
HETATM   15  C   UNL     1      -8.243   6.630  68.215  1.00  0.00    -0.114 A  
HETATM   16  C   UNL     1      -7.798   7.424  67.151  1.00  0.00    -0.117 A  
HETATM   17  C   UNL     1      -8.047   8.801  67.140  1.00  0.00    -0.100 A  
BRANCH  15  18
HETATM   18  C   UNL     1      -7.938   5.151  68.261  1.00  0.00    -0.087 C  
BRANCH  18  19
HETATM   19  C   UNL     1      -9.040   4.299  67.631  1.00  0.00    -0.134 C  
BRANCH  19  20
HETATM   20  O   UNL     1      -9.611   3.441  68.622  1.00  0.00    -0.160 OA 
BRANCH  20  21
HETATM   21  C   UNL     1      -9.465   4.011  69.923  1.00  0.00    -0.194 C  
BRANCH  21  22
HETATM   22  C   UNL     1      -8.795   3.020  70.819  1.00  0.00    -0.146 C  
HETATM   23  C   UNL     1      -9.639   2.073  71.636  1.00  0.00    -0.207 C  
HETATM   24  C   UNL     1      -8.811   1.547  70.498  1.00  0.00    -0.117 C  
ENDBRANCH  21  22
ENDBRANCH  20  21
ENDBRANCH  19  20
ENDBRANCH  18  19
ENDBRANCH  15  18
ENDBRANCH  11  12
ENDBRANCH  10  11
ENDBRANCH   7  10
ENDBRANCH   6   7
ENDBRANCH   4   6
ENDBRANCH   2   4
TORSDOF 11
ENDMDL
MODEL      306
REMARK 921   NORMALIZED FREE ENERGY PREDICTED BY IDOCK:   -2.65 KCAL/MOL
REMARK 922        TOTAL FREE ENERGY PREDICTED BY IDOCK:   -5.69 KCAL/MOL
REMARK 923 INTER-LIGAND FREE ENERGY PREDICTED BY IDOCK:   -4.63 KCAL/MOL
REMARK 924 INTRA-LIGAND FREE ENERGY PREDICTED BY IDOCK:   -1.07 KCAL/MOL
REMARK 927      BINDING AFFINITY PREDICTED BY RF-SCORE:    0.00 PKD
ROOT
HETATM    1  C   UNL     1      -9.414  10.318  62.353  1.00  0.00    -0.252 C  
HETATM    2  C   UNL     1      -9.601  11.465  63.347  1.00  0.00    -0.329 C  
HETATM    3  C   UNL     1     -11.064  11.921  63.340  1.00  0.00    -0.463 C  
ENDROOT
BRANCH   2   4
HETATM    4  N   UNL     1      -9.248  11.099  64.725  1.00  0.00    -0.327 NA 
HETATM    5  H   UNL     1     -10.086  10.839  65.246  1.00  0.00     0.000 HD 
BRANCH   4   6
HETATM    6  C   UNL     1      -8.229  10.049  64.849  1.00  0.00    -0.154 C  
BRANCH   6   7
HETATM    7  C   UNL     1      -8.736   8.622  65.136  1.00  0.00    -0.144 C  
HETATM    8  O   UNL     1      -9.967   8.715  65.870  1.00  0.00    -0.469 OA 
HETATM    9  H   UNL     1     -10.280   7.836  66.047  1.00  0.00     0.000 HD 
BRANCH   7  10
HETATM   10  C   UNL     1      -7.726   7.806  65.947  1.00  0.00    -0.094 C  
BRANCH  10  11
HETATM   11  O   UNL     1      -6.991   8.712  66.789  1.00  0.00    -0.074 OA 
BRANCH  11  12
HETATM   12  C   UNL     1      -7.092   8.491  68.137  1.00  0.00    -0.085 A  
HETATM   13  C   UNL     1      -7.461   7.285  68.732  1.00  0.00    -0.102 A  
HETATM   14  C   UNL     1      -7.572   7.190  70.122  1.00  0.00    -0.091 A  
HETATM   15  C   UNL     1      -7.292   8.288  70.943  1.00  0.00    -0.059 A  
HETATM   16  C   UNL     1      -6.895   9.489  70.342  1.00  0.00    -0.101 A  
HETATM   17  C   UNL     1      -6.795   9.586  68.950  1.00  0.00    -0.055 A  
BRANCH  15  18
HETATM   18  C   UNL     1      -7.450   8.185  72.442  1.00  0.00    -0.144 C  
BRANCH  18  19
HETATM   19  C   UNL     1      -8.906   7.998  72.873  1.00  0.00    -0.224 C  
BRANCH  19  20
HETATM   20  O   UNL     1      -9.659   9.169  72.545  1.00  0.00    -0.032 OA 
BRANCH  20  21
HETATM   21  C   UNL     1     -10.889   8.812  71.912  1.00  0.00    -0.360 C  
BRANCH  21  22
HETATM   22  C   UNL     1     -10.961   7.325  71.786  1.00  0.00    -0.256 C  
HETATM   23  C   UNL     1     -12.304   6.641  71.851  1.00  0.00    -0.364 C  
HETATM   24  C   UNL     1     -11.544   6.677  70.555  1.00  0.00    -0.448 C  
ENDBRANCH  21  22
ENDBRANCH  20  21
ENDBRANCH  19  20
ENDBRANCH  18  19
ENDBRANCH  15  18
ENDBRANCH  11  12
ENDBRANCH  10  11
ENDBRANCH   7  10
ENDBRANCH   6   7
ENDBRANCH   4   6
ENDBRANCH   2   4
TORSDOF 11
ENDMDL
MODEL      307
REMARK 921   NORMALIZED FREE ENERGY PREDICTED BY IDOCK:   -2.64 KCAL/MOL
REMARK 922        TOTAL FREE ENERGY PREDICTED BY IDOCK:   -5.66 KCAL/MOL
REMARK 923 INTER-LIGAND FREE ENERGY PREDICTED BY IDOCK:   -4.26 KCAL/MOL
REMARK 924 INTRA-LIGAND FREE ENERGY PREDICTED BY IDOCK:   -1.40 KCAL/MOL
REMARK 927      BINDING AFFINITY PREDICTED BY RF-SCORE:    0.00 PKD
ROOT
HETATM    1  C   UNL     1     -10.871  10.246  67.516  1.00  0.00    -0.355 C  
HETATM    2  C   UNL     1     -10.553   8.843  66.998  1.00  0.00    -0.209 C  
HETATM    3  C   UNL     1      -9.393   8.914  65.998  1.00  0.00    -0.306 C  
ENDROOT
BRANCH   2   4
HETATM    4  N   UNL     1     -10.175   7.904  68.063  1.00  0.00    -0.200 NA 
HETATM    5  H   UNL     1      -9.464   7.256  67.724  1.00  0.00     0.000 HD 
BRANCH   4   6
HETATM    6  C   UNL     1      -9.735   8.529  69.316  1.00  0.00    -0.173 C  
BRANCH   6   7
HETATM    7  C   UNL     1      -8.237   8.414  69.659  1.00  0.00    -0.117 C  
HETATM    8  O   UNL     1      -8.047   7.255  70.488  1.00  0.00    -0.106 OA 
HETATM    9  H   UNL     1      -7.124   7.184  70.699  1.00  0.00     0.000 HD 
BRANCH   7  10
HETATM   10  C   UNL     1      -7.719   9.652  70.397  1.00  0.00    -0.160 C  
BRANCH  10  11
HETATM   11  O   UNL     1      -6.621  10.195  69.644  1.00  0.00    -0.051 OA 
BRANCH  11  12
HETATM   12  C   UNL     1      -6.848  11.405  69.043  1.00  0.00    -0.102 A  
HETATM   13  C   UNL     1      -7.591  11.602  67.879  1.00  0.00    -0.115 A  
HETATM   14  C   UNL     1      -7.718  12.882  67.333  1.00  0.00    -0.160 A  
HETATM   15  C   UNL     1      -7.130  13.991  67.952  1.00  0.00    -0.166 A  
HETATM   16  C   UNL     1      -6.407  13.792  69.135  1.00  0.00    -0.105 A  
HETATM   17  C   UNL     1      -6.271  12.508  69.676  1.00  0.00    -0.126 A  
BRANCH  15  18
HETATM   18  C   UNL     1      -7.243  15.364  67.332  1.00  0.00    -0.242 C  
BRANCH  18  19
HETATM   19  C   UNL     1      -7.685  16.432  68.334  1.00  0.00    -0.177 C  
BRANCH  19  20
HETATM   20  O   UNL     1      -8.831  17.122  67.829  1.00  0.00    -0.219 OA 
BRANCH  20  21
HETATM   21  C   UNL     1      -9.298  16.505  66.629  1.00  0.00    -0.256 C  
BRANCH  21  22
HETATM   22  C   UNL     1     -10.709  16.056  66.826  1.00  0.00    -0.259 C  
HETATM   23  C   UNL     1     -10.987  14.605  67.133  1.00  0.00    -0.316 C  
HETATM   24  C   UNL     1     -11.213  15.651  68.189  1.00  0.00    -0.345 C  
ENDBRANCH  21  22
ENDBRANCH  20  21
ENDBRANCH  19  20
ENDBRANCH  18  19
ENDBRANCH  15  18
ENDBRANCH  11  12
ENDBRANCH  10  11
ENDBRANCH   7  10
ENDBRANCH   6   7
ENDBRANCH   4   6
ENDBRANCH   2   4
TORSDOF 11
ENDMDL
MODEL      308
REMARK 921   NORMALIZED FREE ENERGY PREDICTED BY IDOCK:   -2.61 KCAL/MOL
REMARK 922        TOTAL FREE ENERGY PREDICTED BY IDOCK:   -5.62 KCAL/MOL
REMARK 923 INTER-LIGAND FREE ENERGY PREDICTED BY IDOCK:   -4.96 KCAL/MOL
REMARK 924 INTRA-LIGAND FREE ENERGY PREDICTED BY IDOCK:   -0.66 KCAL/MOL
REMARK 927      BINDING AFFINITY PREDICTED BY RF-SCORE:    0.00 PKD
ROOT
HETATM    1  C   UNL     1      -9.156   8.514  65.906  1.00  0.00    -0.237 C  
HETATM    2  C   UNL     1      -9.064  10.039  65.849  1.00  0.00    -0.159 C  
HETATM    3  C   UNL     1     -10.125  10.583  64.887  1.00  0.00    -0.403 C  
ENDROOT
BRANCH   2   4
HETATM    4  N   UNL     1      -9.267  10.680  67.156  1.00  0.00    -0.147 NA 
HETATM    5  H   UNL     1      -8.528  11.362  67.331  1.00  0.00     0.000 HD 
BRANCH   4   6
HETATM    6  C   UNL     1     -10.584  11.301  67.347  1.00  0.00    -0.224 C  
BRANCH   6   7
HETATM    7  C   UNL     1     -11.353  10.914  68.625  1.00  0.00    -0.295 C  
HETATM    8  O   UNL     1     -10.996  11.836  69.668  1.00  0.00    -0.451 OA 
HETATM    9  H   UNL     1     -11.470  11.598  70.456  1.00  0.00     0.000 HD 
BRANCH   7  10
HETATM   10  C   UNL     1     -11.029   9.488  69.081  1.00  0.00    -0.125 C  
BRANCH  10  11
HETATM   11  O   UNL     1     -10.565   9.548  70.441  1.00  0.00    -0.233 OA 
BRANCH  11  12
HETATM   12  C   UNL     1     -10.758   8.417  71.190  1.00  0.00    -0.230 A  
HETATM   13  C   UNL     1     -10.875   8.379  72.579  1.00  0.00    -0.375 A  
HETATM   14  C   UNL     1     -11.027   7.157  73.240  1.00  0.00    -0.325 A  
HETATM   15  C   UNL     1     -11.092   5.955  72.525  1.00  0.00    -0.328 A  
HETATM   16  C   UNL     1     -11.001   6.002  71.128  1.00  0.00    -0.341 A  
HETATM   17  C   UNL     1     -10.838   7.225  70.468  1.00  0.00    -0.262 A  
BRANCH  15  18
HETATM   18  C   UNL     1     -11.220   4.637  73.252  1.00  0.00    -0.411 C  
BRANCH  18  19
HETATM   19  C   UNL     1      -9.915   3.839  73.268  1.00  0.00    -0.128 C  
BRANCH  19  20
HETATM   20  O   UNL     1      -8.868   4.639  73.825  1.00  0.00    -0.105 OA 
BRANCH  20  21
HETATM   21  C   UNL     1      -7.594   4.048  73.566  1.00  0.00    -0.076 C  
BRANCH  21  22
HETATM   22  C   UNL     1      -7.729   3.065  72.448  1.00  0.00    -0.057 C  
HETATM   23  C   UNL     1      -6.494   2.395  71.899  1.00  0.00    -0.015 C  
HETATM   24  C   UNL     1      -7.498   1.592  72.677  1.00  0.00    -0.031 C  
ENDBRANCH  21  22
ENDBRANCH  20  21
ENDBRANCH  19  20
ENDBRANCH  18  19
ENDBRANCH  15  18
ENDBRANCH  11  12
ENDBRANCH  10  11
ENDBRANCH   7  10
ENDBRANCH   6   7
ENDBRANCH   4   6
ENDBRANCH   2   4
TORSDOF 11
ENDMDL
MODEL      309
REMARK 921   NORMALIZED FREE ENERGY PREDICTED BY IDOCK:   -2.60 KCAL/MOL
REMARK 922        TOTAL FREE ENERGY PREDICTED BY IDOCK:   -5.61 KCAL/MOL
REMARK 923 INTER-LIGAND FREE ENERGY PREDICTED BY IDOCK:   -4.21 KCAL/MOL
REMARK 924 INTRA-LIGAND FREE ENERGY PREDICTED BY IDOCK:   -1.41 KCAL/MOL
REMARK 927      BINDING AFFINITY PREDICTED BY RF-SCORE:    0.00 PKD
ROOT
HETATM    1  C   UNL     1     -10.031  12.198  66.640  1.00  0.00    -0.222 C  
HETATM    2  C   UNL     1     -10.227  11.498  67.985  1.00  0.00    -0.191 C  
HETATM    3  C   UNL     1     -11.724  11.338  68.270  1.00  0.00    -0.344 C  
ENDROOT
BRANCH   2   4
HETATM    4  N   UNL     1      -9.611  10.165  68.039  1.00  0.00    -0.144 NA 
HETATM    5  H   UNL     1     -10.039   9.609  68.780  1.00  0.00     0.000 HD 
BRANCH   4   6
HETATM    6  C   UNL     1      -9.629   9.420  66.773  1.00  0.00    -0.179 C  
BRANCH   6   7
HETATM    7  C   UNL     1      -8.290   8.820  66.304  1.00  0.00    -0.118 C  
HETATM    8  O   UNL     1      -7.629   9.781  65.465  1.00  0.00    -0.109 OA 
HETATM    9  H   UNL     1      -6.803   9.411  65.176  1.00  0.00     0.000 HD 
BRANCH   7  10
HETATM   10  C   UNL     1      -8.487   7.518  65.520  1.00  0.00    -0.119 C  
BRANCH  10  11
HETATM   11  O   UNL     1      -7.787   6.469  66.211  1.00  0.00    -0.100 OA 
BRANCH  11  12
HETATM   12  C   UNL     1      -8.271   6.143  67.451  1.00  0.00    -0.109 A  
HETATM   13  C   UNL     1      -7.520   6.103  68.625  1.00  0.00    -0.087 A  
HETATM   14  C   UNL     1      -8.115   5.712  69.828  1.00  0.00    -0.102 A  
HETATM   15  C   UNL     1      -9.473   5.379  69.885  1.00  0.00    -0.210 A  
HETATM   16  C   UNL     1     -10.228   5.446  68.708  1.00  0.00    -0.252 A  
HETATM   17  C   UNL     1      -9.630   5.827  67.502  1.00  0.00    -0.118 A  
BRANCH  15  18
HETATM   18  C   UNL     1     -10.096   4.922  71.183  1.00  0.00    -0.277 C  
BRANCH  18  19
HETATM   19  C   UNL     1      -9.284   5.339  72.410  1.00  0.00    -0.140 C  
BRANCH  19  20
HETATM   20  O   UNL     1      -9.811   6.555  72.947  1.00  0.00    -0.161 OA 
BRANCH  20  21
HETATM   21  C   UNL     1     -11.177   6.720  72.567  1.00  0.00    -0.268 C  
BRANCH  21  22
HETATM   22  C   UNL     1     -11.362   8.082  71.982  1.00  0.00    -0.359 C  
HETATM   23  C   UNL     1     -10.164   8.824  71.441  1.00  0.00    -0.350 C  
HETATM   24  C   UNL     1     -11.220   8.317  70.499  1.00  0.00    -0.247 C  
ENDBRANCH  21  22
ENDBRANCH  20  21
ENDBRANCH  19  20
ENDBRANCH  18  19
ENDBRANCH  15  18
ENDBRANCH  11  12
ENDBRANCH  10  11
ENDBRANCH   7  10
ENDBRANCH   6   7
ENDBRANCH   4   6
ENDBRANCH   2   4
TORSDOF 11
ENDMDL
MODEL      310
REMARK 921   NORMALIZED FREE ENERGY PREDICTED BY IDOCK:   -2.56 KCAL/MOL
REMARK 922        TOTAL FREE ENERGY PREDICTED BY IDOCK:   -5.53 KCAL/MOL
REMARK 923 INTER-LIGAND FREE ENERGY PREDICTED BY IDOCK:   -4.75 KCAL/MOL
REMARK 924 INTRA-LIGAND FREE ENERGY PREDICTED BY IDOCK:   -0.79 KCAL/MOL
REMARK 927      BINDING AFFINITY PREDICTED BY RF-SCORE:    0.00 PKD
ROOT
HETATM    1  C   UNL     1      -9.230  19.332  67.808  1.00  0.00    -0.367 C  
HETATM    2  C   UNL     1      -9.299  17.817  67.611  1.00  0.00    -0.250 C  
HETATM    3  C   UNL     1      -8.128  17.149  68.339  1.00  0.00    -0.255 C  
ENDROOT
BRANCH   2   4
HETATM    4  N   UNL     1     -10.544  17.224  68.118  1.00  0.00    -0.379 NA 
HETATM    5  H   UNL     1     -11.268  17.939  68.195  1.00  0.00     0.000 HD 
BRANCH   4   6
HETATM    6  C   UNL     1     -11.045  16.077  67.350  1.00  0.00    -0.167 C  
BRANCH   6   7
HETATM    7  C   UNL     1     -11.380  14.802  68.148  1.00  0.00    -0.307 C  
HETATM    8  O   UNL     1     -10.989  15.005  69.516  1.00  0.00    -0.248 OA 
HETATM    9  H   UNL     1     -11.195  14.219  70.008  1.00  0.00     0.000 HD 
BRANCH   7  10
HETATM   10  C   UNL     1     -10.657  13.571  67.594  1.00  0.00    -0.241 C  
BRANCH  10  11
HETATM   11  O   UNL     1     -11.200  12.405  68.239  1.00  0.00    -0.226 OA 
BRANCH  11  12
HETATM   12  C   UNL     1     -10.286  11.541  68.782  1.00  0.00    -0.196 A  
HETATM   13  C   UNL     1      -8.910  11.578  68.559  1.00  0.00    -0.139 A  
HETATM   14  C   UNL     1      -8.077  10.614  69.135  1.00  0.00    -0.143 A  
HETATM   15  C   UNL     1      -8.599   9.613  69.963  1.00  0.00    -0.237 A  
HETATM   16  C   UNL     1      -9.978   9.597  70.204  1.00  0.00    -0.309 A  
HETATM   17  C   UNL     1     -10.813  10.556  69.619  1.00  0.00    -0.320 A  
BRANCH  15  18
HETATM   18  C   UNL     1      -7.695   8.555  70.549  1.00  0.00    -0.084 C  
BRANCH  18  19
HETATM   19  C   UNL     1      -8.305   7.154  70.490  1.00  0.00    -0.131 C  
BRANCH  19  20
HETATM   20  O   UNL     1      -7.690   6.404  69.439  1.00  0.00    -0.096 OA 
BRANCH  20  21
HETATM   21  C   UNL     1      -8.355   6.643  68.199  1.00  0.00    -0.117 C  
BRANCH  21  22
HETATM   22  C   UNL     1      -9.742   6.091  68.273  1.00  0.00    -0.138 C  
HETATM   23  C   UNL     1     -10.219   5.142  67.201  1.00  0.00    -0.254 C  
HETATM   24  C   UNL     1      -9.984   4.638  68.598  1.00  0.00    -0.140 C  
ENDBRANCH  21  22
ENDBRANCH  20  21
ENDBRANCH  19  20
ENDBRANCH  18  19
ENDBRANCH  15  18
ENDBRANCH  11  12
ENDBRANCH  10  11
ENDBRANCH   7  10
ENDBRANCH   6   7
ENDBRANCH   4   6
ENDBRANCH   2   4
TORSDOF 11
ENDMDL
MODEL      311
REMARK 921   NORMALIZED FREE ENERGY PREDICTED BY IDOCK:   -2.52 KCAL/MOL
REMARK 922        TOTAL FREE ENERGY PREDICTED BY IDOCK:   -5.47 KCAL/MOL
REMARK 923 INTER-LIGAND FREE ENERGY PREDICTED BY IDOCK:   -4.72 KCAL/MOL
REMARK 924 INTRA-LIGAND FREE ENERGY PREDICTED BY IDOCK:   -0.75 KCAL/MOL
REMARK 927      BINDING AFFINITY PREDICTED BY RF-SCORE:    0.00 PKD
ROOT
HETATM    1  C   UNL     1     -10.116  19.595  66.809  1.00  0.00    -0.537 C  
HETATM    2  C   UNL     1      -9.431  18.497  67.623  1.00  0.00    -0.279 C  
HETATM    3  C   UNL     1     -10.120  17.154  67.359  1.00  0.00    -0.301 C  
ENDROOT
BRANCH   2   4
HETATM    4  N   UNL     1      -8.005  18.344  67.304  1.00  0.00    -0.233 NA 
HETATM    5  H   UNL     1      -7.646  19.199  66.878  1.00  0.00     0.000 HD 
BRANCH   4   6
HETATM    6  C   UNL     1      -7.154  17.945  68.433  1.00  0.00    -0.245 C  
BRANCH   6   7
HETATM    7  C   UNL     1      -6.368  16.629  68.276  1.00  0.00    -0.135 C  
HETATM    8  O   UNL     1      -6.024  16.466  66.891  1.00  0.00    -0.304 OA 
HETATM    9  H   UNL     1      -5.540  15.654  66.794  1.00  0.00     0.000 HD 
BRANCH   7  10
HETATM   10  C   UNL     1      -7.181  15.416  68.740  1.00  0.00    -0.128 C  
BRANCH  10  11
HETATM   11  O   UNL     1      -7.156  14.433  67.690  1.00  0.00    -0.160 OA 
BRANCH  11  12
HETATM   12  C   UNL     1      -7.892  13.300  67.915  1.00  0.00    -0.152 A  
HETATM   13  C   UNL     1      -9.207  13.095  67.497  1.00  0.00    -0.206 A  
HETATM   14  C   UNL     1      -9.873  11.911  67.823  1.00  0.00    -0.187 A  
HETATM   15  C   UNL     1      -9.232  10.900  68.549  1.00  0.00    -0.181 A  
HETATM   16  C   UNL     1      -7.903  11.100  68.944  1.00  0.00    -0.131 A  
HETATM   17  C   UNL     1      -7.240  12.291  68.626  1.00  0.00    -0.105 A  
BRANCH  15  18
HETATM   18  C   UNL     1      -9.974   9.640  68.928  1.00  0.00    -0.186 C  
BRANCH  18  19
HETATM   19  C   UNL     1      -9.244   8.818  69.991  1.00  0.00    -0.168 C  
BRANCH  19  20
HETATM   20  O   UNL     1      -8.678   7.649  69.393  1.00  0.00    -0.135 OA 
BRANCH  20  21
HETATM   21  C   UNL     1      -9.633   7.008  68.546  1.00  0.00    -0.137 C  
BRANCH  21  22
HETATM   22  C   UNL     1     -10.346   5.951  69.325  1.00  0.00    -0.312 C  
HETATM   23  C   UNL     1      -9.838   4.531  69.281  1.00  0.00    -0.241 C  
HETATM   24  C   UNL     1      -9.720   5.331  70.549  1.00  0.00    -0.254 C  
ENDBRANCH  21  22
ENDBRANCH  20  21
ENDBRANCH  19  20
ENDBRANCH  18  19
ENDBRANCH  15  18
ENDBRANCH  11  12
ENDBRANCH  10  11
ENDBRANCH   7  10
ENDBRANCH   6   7
ENDBRANCH   4   6
ENDBRANCH   2   4
TORSDOF 11
ENDMDL
MODEL      312
REMARK 921   NORMALIZED FREE ENERGY PREDICTED BY IDOCK:   -2.51 KCAL/MOL
REMARK 922        TOTAL FREE ENERGY PREDICTED BY IDOCK:   -5.46 KCAL/MOL
REMARK 923 INTER-LIGAND FREE ENERGY PREDICTED BY IDOCK:   -4.52 KCAL/MOL
REMARK 924 INTRA-LIGAND FREE ENERGY PREDICTED BY IDOCK:   -0.93 KCAL/MOL
REMARK 927      BINDING AFFINITY PREDICTED BY RF-SCORE:    0.00 PKD
ROOT
HETATM    1  C   UNL     1     -12.653  14.838  70.078  1.00  0.00    -0.268 C  
HETATM    2  C   UNL     1     -12.618  14.013  71.365  1.00  0.00    -0.372 C  
HETATM    3  C   UNL     1     -13.952  14.158  72.107  1.00  0.00    -0.626 C  
ENDROOT
BRANCH   2   4
HETATM    4  N   UNL     1     -12.385  12.582  71.130  1.00  0.00    -0.331 NA 
HETATM    5  H   UNL     1     -11.395  12.363  71.241  1.00  0.00     0.000 HD 
BRANCH   4   6
HETATM    6  C   UNL     1     -13.198  11.675  71.950  1.00  0.00    -0.369 C  
BRANCH   6   7
HETATM    7  C   UNL     1     -13.221  10.193  71.530  1.00  0.00    -0.399 C  
HETATM    8  O   UNL     1     -12.683   9.406  72.605  1.00  0.00    -0.265 OA 
HETATM    9  H   UNL     1     -12.697   8.492  72.346  1.00  0.00     0.000 HD 
BRANCH   7  10
HETATM   10  C   UNL     1     -12.399   9.943  70.262  1.00  0.00    -0.005 C  
BRANCH  10  11
HETATM   11  O   UNL     1     -11.007   9.941  70.625  1.00  0.00    -0.296 OA 
BRANCH  11  12
HETATM   12  C   UNL     1     -10.160  10.569  69.750  1.00  0.00    -0.081 A  
HETATM   13  C   UNL     1     -10.473  11.697  68.992  1.00  0.00    -0.159 A  
HETATM   14  C   UNL     1      -9.539  12.227  68.097  1.00  0.00    -0.213 A  
HETATM   15  C   UNL     1      -8.268  11.656  67.962  1.00  0.00    -0.146 A  
HETATM   16  C   UNL     1      -7.949  10.540  68.745  1.00  0.00    -0.127 A  
HETATM   17  C   UNL     1      -8.889  10.004  69.633  1.00  0.00    -0.217 A  
BRANCH  15  18
HETATM   18  C   UNL     1      -7.280  12.215  66.966  1.00  0.00    -0.067 C  
BRANCH  18  19
HETATM   19  C   UNL     1      -6.296  11.162  66.452  1.00  0.00    -0.116 C  
BRANCH  19  20
HETATM   20  O   UNL     1      -6.730  10.677  65.179  1.00  0.00    -0.069 OA 
BRANCH  20  21
HETATM   21  C   UNL     1      -6.587   9.258  65.108  1.00  0.00    -0.074 C  
BRANCH  21  22
HETATM   22  C   UNL     1      -7.756   8.614  65.780  1.00  0.00    -0.090 C  
HETATM   23  C   UNL     1      -8.104   7.184  65.449  1.00  0.00    -0.137 C  
HETATM   24  C   UNL     1      -7.560   7.528  66.808  1.00  0.00    -0.101 C  
ENDBRANCH  21  22
ENDBRANCH  20  21
ENDBRANCH  19  20
ENDBRANCH  18  19
ENDBRANCH  15  18
ENDBRANCH  11  12
ENDBRANCH  10  11
ENDBRANCH   7  10
ENDBRANCH   6   7
ENDBRANCH   4   6
ENDBRANCH   2   4
TORSDOF 11
ENDMDL
MODEL      313
REMARK 921   NORMALIZED FREE ENERGY PREDICTED BY IDOCK:   -2.51 KCAL/MOL
REMARK 922        TOTAL FREE ENERGY PREDICTED BY IDOCK:   -5.45 KCAL/MOL
REMARK 923 INTER-LIGAND FREE ENERGY PREDICTED BY IDOCK:   -4.32 KCAL/MOL
REMARK 924 INTRA-LIGAND FREE ENERGY PREDICTED BY IDOCK:   -1.13 KCAL/MOL
REMARK 927      BINDING AFFINITY PREDICTED BY RF-SCORE:    0.00 PKD
ROOT
HETATM    1  C   UNL     1      -6.300  14.365  69.298  1.00  0.00    -0.115 C  
HETATM    2  C   UNL     1      -6.913  13.265  68.430  1.00  0.00    -0.105 C  
HETATM    3  C   UNL     1      -5.825  12.633  67.555  1.00  0.00    -0.140 C  
ENDROOT
BRANCH   2   4
HETATM    4  N   UNL     1      -7.544  12.194  69.212  1.00  0.00    -0.325 NA 
HETATM    5  H   UNL     1      -8.214  12.588  69.873  1.00  0.00     0.000 HD 
BRANCH   4   6
HETATM    6  C   UNL     1      -8.179  11.134  68.418  1.00  0.00    -0.144 C  
BRANCH   6   7
HETATM    7  C   UNL     1      -9.720  11.130  68.376  1.00  0.00    -0.191 C  
HETATM    8  O   UNL     1     -10.210  10.792  69.683  1.00  0.00    -0.402 OA 
HETATM    9  H   UNL     1     -11.160  10.789  69.657  1.00  0.00     0.000 HD 
BRANCH   7  10
HETATM   10  C   UNL     1     -10.263  10.122  67.358  1.00  0.00    -0.218 C  
BRANCH  10  11
HETATM   11  O   UNL     1     -10.784   8.993  68.080  1.00  0.00    -0.195 OA 
BRANCH  11  12
HETATM   12  C   UNL     1     -10.271   7.771  67.732  1.00  0.00    -0.212 A  
HETATM   13  C   UNL     1     -10.975   6.755  67.085  1.00  0.00    -0.458 A  
HETATM   14  C   UNL     1     -10.357   5.530  66.819  1.00  0.00    -0.321 A  
HETATM   15  C   UNL     1      -9.020   5.307  67.169  1.00  0.00    -0.112 A  
HETATM   16  C   UNL     1      -8.311   6.340  67.794  1.00  0.00    -0.117 A  
HETATM   17  C   UNL     1      -8.933   7.562  68.069  1.00  0.00    -0.129 A  
BRANCH  15  18
HETATM   18  C   UNL     1      -8.374   3.966  66.909  1.00  0.00    -0.100 C  
BRANCH  18  19
HETATM   19  C   UNL     1      -9.217   2.793  67.410  1.00  0.00    -0.174 C  
BRANCH  19  20
HETATM   20  O   UNL     1      -9.629   3.037  68.758  1.00  0.00    -0.155 OA 
BRANCH  20  21
HETATM   21  C   UNL     1      -8.499   3.050  69.632  1.00  0.00    -0.061 C  
BRANCH  21  22
HETATM   22  C   UNL     1      -8.768   3.986  70.765  1.00  0.00    -0.116 C  
HETATM   23  C   UNL     1     -10.018   4.831  70.747  1.00  0.00    -0.291 C  
HETATM   24  C   UNL     1      -9.881   3.717  71.748  1.00  0.00    -0.244 C  
ENDBRANCH  21  22
ENDBRANCH  20  21
ENDBRANCH  19  20
ENDBRANCH  18  19
ENDBRANCH  15  18
ENDBRANCH  11  12
ENDBRANCH  10  11
ENDBRANCH   7  10
ENDBRANCH   6   7
ENDBRANCH   4   6
ENDBRANCH   2   4
TORSDOF 11
ENDMDL
MODEL      314
REMARK 921   NORMALIZED FREE ENERGY PREDICTED BY IDOCK:   -2.50 KCAL/MOL
REMARK 922        TOTAL FREE ENERGY PREDICTED BY IDOCK:   -5.44 KCAL/MOL
REMARK 923 INTER-LIGAND FREE ENERGY PREDICTED BY IDOCK:   -4.87 KCAL/MOL
REMARK 924 INTRA-LIGAND FREE ENERGY PREDICTED BY IDOCK:   -0.57 KCAL/MOL
REMARK 927      BINDING AFFINITY PREDICTED BY RF-SCORE:    0.00 PKD
ROOT
HETATM    1  C   UNL     1      -9.320  19.286  67.629  1.00  0.00    -0.371 C  
HETATM    2  C   UNL     1      -9.172  17.766  67.545  1.00  0.00    -0.244 C  
HETATM    3  C   UNL     1      -7.702  17.380  67.737  1.00  0.00    -0.200 C  
ENDROOT
BRANCH   2   4
HETATM    4  N   UNL     1      -9.963  17.050  68.556  1.00  0.00    -0.276 NA 
HETATM    5  H   UNL     1     -10.679  17.666  68.942  1.00  0.00     0.000 HD 
BRANCH   4   6
HETATM    6  C   UNL     1     -10.569  15.794  68.096  1.00  0.00    -0.275 C  
BRANCH   6   7
HETATM    7  C   UNL     1     -10.359  14.556  68.990  1.00  0.00    -0.223 C  
HETATM    8  O   UNL     1      -8.957  14.437  69.280  1.00  0.00    -0.387 OA 
HETATM    9  H   UNL     1      -8.827  13.674  69.831  1.00  0.00     0.000 HD 
BRANCH   7  10
HETATM   10  C   UNL     1     -10.845  13.271  68.314  1.00  0.00    -0.256 C  
BRANCH  10  11
HETATM   11  O   UNL     1     -10.953  12.249  69.321  1.00  0.00    -0.195 OA 
BRANCH  11  12
HETATM   12  C   UNL     1     -10.653  10.975  68.915  1.00  0.00    -0.207 A  
HETATM   13  C   UNL     1     -10.861  10.467  67.633  1.00  0.00    -0.361 A  
HETATM   14  C   UNL     1     -10.555   9.133  67.346  1.00  0.00    -0.315 A  
HETATM   15  C   UNL     1     -10.013   8.292  68.325  1.00  0.00    -0.217 A  
HETATM   16  C   UNL     1      -9.781   8.816  69.603  1.00  0.00    -0.173 A  
HETATM   17  C   UNL     1     -10.097  10.148  69.893  1.00  0.00    -0.268 A  
BRANCH  15  18
HETATM   18  C   UNL     1      -9.720   6.843  68.014  1.00  0.00    -0.138 C  
BRANCH  18  19
HETATM   19  C   UNL     1      -9.873   5.932  69.233  1.00  0.00    -0.160 C  
BRANCH  19  20
HETATM   20  O   UNL     1      -9.480   4.600  68.892  1.00  0.00    -0.131 OA 
BRANCH  20  21
HETATM   21  C   UNL     1      -9.069   4.534  67.526  1.00  0.00    -0.121 C  
BRANCH  21  22
HETATM   22  C   UNL     1      -9.622   3.291  66.908  1.00  0.00    -0.063 C  
HETATM   23  C   UNL     1      -8.743   2.460  66.005  1.00  0.00    -0.123 C  
HETATM   24  C   UNL     1      -9.152   1.928  67.351  1.00  0.00    -0.166 C  
ENDBRANCH  21  22
ENDBRANCH  20  21
ENDBRANCH  19  20
ENDBRANCH  18  19
ENDBRANCH  15  18
ENDBRANCH  11  12
ENDBRANCH  10  11
ENDBRANCH   7  10
ENDBRANCH   6   7
ENDBRANCH   4   6
ENDBRANCH   2   4
TORSDOF 11
ENDMDL
MODEL      315
REMARK 921   NORMALIZED FREE ENERGY PREDICTED BY IDOCK:   -2.47 KCAL/MOL
REMARK 922        TOTAL FREE ENERGY PREDICTED BY IDOCK:   -5.39 KCAL/MOL
REMARK 923 INTER-LIGAND FREE ENERGY PREDICTED BY IDOCK:   -5.32 KCAL/MOL
REMARK 924 INTRA-LIGAND FREE ENERGY PREDICTED BY IDOCK:   -0.07 KCAL/MOL
REMARK 927      BINDING AFFINITY PREDICTED BY RF-SCORE:    0.00 PKD
ROOT
HETATM    1  C   UNL     1      -8.455   5.382  67.750  1.00  0.00    -0.105 C  
HETATM    2  C   UNL     1      -9.602   5.715  66.795  1.00  0.00    -0.146 C  
HETATM    3  C   UNL     1     -10.837   6.133  67.600  1.00  0.00    -0.421 C  
ENDROOT
BRANCH   2   4
HETATM    4  N   UNL     1      -9.282   6.803  65.862  1.00  0.00    -0.368 NA 
HETATM    5  H   UNL     1      -9.101   7.666  66.375  1.00  0.00     0.000 HD 
BRANCH   4   6
HETATM    6  C   UNL     1      -8.176   6.524  64.937  1.00  0.00    -0.097 C  
BRANCH   6   7
HETATM    7  C   UNL     1      -7.154   7.657  64.716  1.00  0.00    -0.064 C  
HETATM    8  O   UNL     1      -6.008   7.404  65.544  1.00  0.00    -0.036 OA 
HETATM    9  H   UNL     1      -5.378   8.103  65.408  1.00  0.00     0.000 HD 
BRANCH   7  10
HETATM   10  C   UNL     1      -7.736   9.030  65.065  1.00  0.00    -0.109 C  
BRANCH  10  11
HETATM   11  O   UNL     1      -8.862   9.271  64.203  1.00  0.00    -0.206 OA 
BRANCH  11  12
HETATM   12  C   UNL     1      -9.589  10.401  64.470  1.00  0.00    -0.309 A  
HETATM   13  C   UNL     1     -10.073  10.771  65.725  1.00  0.00    -0.320 A  
HETATM   14  C   UNL     1     -10.843  11.929  65.869  1.00  0.00    -0.342 A  
HETATM   15  C   UNL     1     -11.120  12.751  64.770  1.00  0.00    -0.333 A  
HETATM   16  C   UNL     1     -10.609  12.389  63.518  1.00  0.00    -0.451 A  
HETATM   17  C   UNL     1      -9.847  11.224  63.373  1.00  0.00    -0.416 A  
BRANCH  15  18
HETATM   18  C   UNL     1     -11.984  13.980  64.931  1.00  0.00    -0.416 C  
BRANCH  18  19
HETATM   19  C   UNL     1     -11.528  14.879  66.081  1.00  0.00    -0.272 C  
BRANCH  19  20
HETATM   20  O   UNL     1     -10.485  14.232  66.815  1.00  0.00    -0.270 OA 
BRANCH  20  21
HETATM   21  C   UNL     1      -9.791  15.172  67.635  1.00  0.00    -0.219 C  
BRANCH  21  22
HETATM   22  C   UNL     1      -8.387  14.704  67.837  1.00  0.00    -0.153 C  
HETATM   23  C   UNL     1      -7.310  15.712  68.156  1.00  0.00    -0.123 C  
HETATM   24  C   UNL     1      -7.749  14.726  69.203  1.00  0.00    -0.144 C  
ENDBRANCH  21  22
ENDBRANCH  20  21
ENDBRANCH  19  20
ENDBRANCH  18  19
ENDBRANCH  15  18
ENDBRANCH  11  12
ENDBRANCH  10  11
ENDBRANCH   7  10
ENDBRANCH   6   7
ENDBRANCH   4   6
ENDBRANCH   2   4
TORSDOF 11
ENDMDL
MODEL      316
REMARK 921   NORMALIZED FREE ENERGY PREDICTED BY IDOCK:   -2.43 KCAL/MOL
REMARK 922        TOTAL FREE ENERGY PREDICTED BY IDOCK:   -5.32 KCAL/MOL
REMARK 923 INTER-LIGAND FREE ENERGY PREDICTED BY IDOCK:   -4.65 KCAL/MOL
REMARK 924 INTRA-LIGAND FREE ENERGY PREDICTED BY IDOCK:   -0.67 KCAL/MOL
REMARK 927      BINDING AFFINITY PREDICTED BY RF-SCORE:    0.00 PKD
ROOT
HETATM    1  C   UNL     1      -8.677  13.971  68.098  1.00  0.00    -0.180 C  
HETATM    2  C   UNL     1     -10.131  13.617  67.787  1.00  0.00    -0.242 C  
HETATM    3  C   UNL     1     -11.015  14.853  67.982  1.00  0.00    -0.282 C  
ENDROOT
BRANCH   2   4
HETATM    4  N   UNL     1     -10.329  13.131  66.415  1.00  0.00    -0.281 NA 
HETATM    5  H   UNL     1      -9.540  13.403  65.828  1.00  0.00     0.000 HD 
BRANCH   4   6
HETATM    6  C   UNL     1     -10.574  11.688  66.295  1.00  0.00    -0.258 C  
BRANCH   6   7
HETATM    7  C   UNL     1      -9.333  10.776  66.238  1.00  0.00    -0.180 C  
HETATM    8  O   UNL     1      -8.304  11.454  65.498  1.00  0.00    -0.376 OA 
HETATM    9  H   UNL     1      -7.538  10.892  65.463  1.00  0.00     0.000 HD 
BRANCH   7  10
HETATM   10  C   UNL     1      -9.636   9.434  65.566  1.00  0.00    -0.258 C  
BRANCH  10  11
HETATM   11  O   UNL     1     -10.530   8.698  66.419  1.00  0.00    -0.205 OA 
BRANCH  11  12
HETATM   12  C   UNL     1      -9.986   7.623  67.071  1.00  0.00    -0.240 A  
HETATM   13  C   UNL     1      -9.211   6.627  66.477  1.00  0.00    -0.183 A  
HETATM   14  C   UNL     1      -8.744   5.551  67.237  1.00  0.00    -0.107 A  
HETATM   15  C   UNL     1      -9.019   5.464  68.607  1.00  0.00    -0.115 A  
HETATM   16  C   UNL     1      -9.775   6.481  69.204  1.00  0.00    -0.143 A  
HETATM   17  C   UNL     1     -10.251   7.553  68.440  1.00  0.00    -0.211 A  
BRANCH  15  18
HETATM   18  C   UNL     1      -8.541   4.278  69.411  1.00  0.00    -0.109 C  
BRANCH  18  19
HETATM   19  C   UNL     1      -9.607   3.739  70.365  1.00  0.00    -0.192 C  
BRANCH  19  20
HETATM   20  O   UNL     1      -9.070   3.649  71.688  1.00  0.00    -0.102 OA 
BRANCH  20  21
HETATM   21  C   UNL     1      -8.879   4.952  72.240  1.00  0.00    -0.127 C  
BRANCH  21  22
HETATM   22  C   UNL     1      -9.845   5.155  73.361  1.00  0.00    -0.170 C  
HETATM   23  C   UNL     1     -11.326   5.046  73.090  1.00  0.00    -0.397 C  
HETATM   24  C   UNL     1     -10.638   4.001  73.923  1.00  0.00    -0.293 C  
ENDBRANCH  21  22
ENDBRANCH  20  21
ENDBRANCH  19  20
ENDBRANCH  18  19
ENDBRANCH  15  18
ENDBRANCH  11  12
ENDBRANCH  10  11
ENDBRANCH   7  10
ENDBRANCH   6   7
ENDBRANCH   4   6
ENDBRANCH   2   4
TORSDOF 11
ENDMDL
MODEL      317
REMARK 921   NORMALIZED FREE ENERGY PREDICTED BY IDOCK:   -2.42 KCAL/MOL
REMARK 922        TOTAL FREE ENERGY PREDICTED BY IDOCK:   -5.31 KCAL/MOL
REMARK 923 INTER-LIGAND FREE ENERGY PREDICTED BY IDOCK:   -4.35 KCAL/MOL
REMARK 924 INTRA-LIGAND FREE ENERGY PREDICTED BY IDOCK:   -0.96 KCAL/MOL
REMARK 927      BINDING AFFINITY PREDICTED BY RF-SCORE:    0.00 PKD
ROOT
HETATM    1  C   UNL     1      -9.258  14.391  68.482  1.00  0.00    -0.198 C  
HETATM    2  C   UNL     1     -10.754  14.202  68.229  1.00  0.00    -0.249 C  
HETATM    3  C   UNL     1     -11.469  15.553  68.337  1.00  0.00    -0.370 C  
ENDROOT
BRANCH   2   4
HETATM    4  N   UNL     1     -11.050  13.638  66.905  1.00  0.00    -0.299 NA 
HETATM    5  H   UNL     1     -10.349  13.940  66.229  1.00  0.00     0.000 HD 
BRANCH   4   6
HETATM    6  C   UNL     1     -11.194  12.177  66.869  1.00  0.00    -0.320 C  
BRANCH   6   7
HETATM    7  C   UNL     1      -9.936  11.367  66.499  1.00  0.00    -0.211 C  
HETATM    8  O   UNL     1      -9.087  12.191  65.683  1.00  0.00    -0.429 OA 
HETATM    9  H   UNL     1      -8.312  11.691  65.455  1.00  0.00     0.000 HD 
BRANCH   7  10
HETATM   10  C   UNL     1     -10.283  10.087  65.733  1.00  0.00    -0.200 C  
BRANCH  10  11
HETATM   11  O   UNL     1     -10.649   9.078  66.690  1.00  0.00    -0.211 OA 
BRANCH  11  12
HETATM   12  C   UNL     1      -9.817   7.992  66.762  1.00  0.00    -0.257 A  
HETATM   13  C   UNL     1      -8.641   7.826  66.032  1.00  0.00    -0.166 A  
HETATM   14  C   UNL     1      -7.894   6.652  66.156  1.00  0.00    -0.102 A  
HETATM   15  C   UNL     1      -8.292   5.634  67.031  1.00  0.00    -0.107 A  
HETATM   16  C   UNL     1      -9.460   5.817  67.782  1.00  0.00    -0.116 A  
HETATM   17  C   UNL     1     -10.214   6.989  67.649  1.00  0.00    -0.245 A  
BRANCH  15  18
HETATM   18  C   UNL     1      -7.497   4.354  67.130  1.00  0.00    -0.078 C  
BRANCH  18  19
HETATM   19  C   UNL     1      -8.342   3.164  67.586  1.00  0.00    -0.082 C  
BRANCH  19  20
HETATM   20  O   UNL     1      -7.972   2.791  68.916  1.00  0.00    -0.053 OA 
BRANCH  20  21
HETATM   21  C   UNL     1      -9.109   2.314  69.637  1.00  0.00    -0.110 C  
BRANCH  21  22
HETATM   22  C   UNL     1      -9.621   3.404  70.521  1.00  0.00    -0.231 C  
HETATM   23  C   UNL     1      -9.218   3.428  71.976  1.00  0.00    -0.172 C  
HETATM   24  C   UNL     1      -8.701   4.483  71.037  1.00  0.00    -0.142 C  
ENDBRANCH  21  22
ENDBRANCH  20  21
ENDBRANCH  19  20
ENDBRANCH  18  19
ENDBRANCH  15  18
ENDBRANCH  11  12
ENDBRANCH  10  11
ENDBRANCH   7  10
ENDBRANCH   6   7
ENDBRANCH   4   6
ENDBRANCH   2   4
TORSDOF 11
ENDMDL
MODEL      318
REMARK 921   NORMALIZED FREE ENERGY PREDICTED BY IDOCK:   -2.40 KCAL/MOL
REMARK 922        TOTAL FREE ENERGY PREDICTED BY IDOCK:   -5.28 KCAL/MOL
REMARK 923 INTER-LIGAND FREE ENERGY PREDICTED BY IDOCK:   -4.52 KCAL/MOL
REMARK 924 INTRA-LIGAND FREE ENERGY PREDICTED BY IDOCK:   -0.77 KCAL/MOL
REMARK 927      BINDING AFFINITY PREDICTED BY RF-SCORE:    0.00 PKD
ROOT
HETATM    1  C   UNL     1      -9.158   5.033  67.893  1.00  0.00    -0.126 C  
HETATM    2  C   UNL     1     -10.585   5.516  67.632  1.00  0.00    -0.164 C  
HETATM    3  C   UNL     1     -11.145   6.174  68.897  1.00  0.00    -0.417 C  
ENDROOT
BRANCH   2   4
HETATM    4  N   UNL     1     -10.675   6.492  66.537  1.00  0.00    -0.526 NA 
HETATM    5  H   UNL     1     -11.458   6.262  65.924  1.00  0.00     0.000 HD 
BRANCH   4   6
HETATM    6  C   UNL     1     -10.757   7.896  66.959  1.00  0.00    -0.219 C  
BRANCH   6   7
HETATM    7  C   UNL     1      -9.534   8.783  66.655  1.00  0.00    -0.203 C  
HETATM    8  O   UNL     1      -8.577   8.004  65.921  1.00  0.00    -0.138 OA 
HETATM    9  H   UNL     1      -7.823   8.551  65.733  1.00  0.00     0.000 HD 
BRANCH   7  10
HETATM   10  C   UNL     1      -8.878   9.314  67.934  1.00  0.00    -0.124 C  
BRANCH  10  11
HETATM   11  O   UNL     1      -9.555  10.525  68.314  1.00  0.00    -0.150 OA 
BRANCH  11  12
HETATM   12  C   UNL     1      -8.825  11.679  68.199  1.00  0.00    -0.164 A  
HETATM   13  C   UNL     1      -9.298  12.885  67.682  1.00  0.00    -0.195 A  
HETATM   14  C   UNL     1      -8.446  13.987  67.573  1.00  0.00    -0.201 A  
HETATM   15  C   UNL     1      -7.116  13.914  68.003  1.00  0.00    -0.145 A  
HETATM   16  C   UNL     1      -6.654  12.709  68.546  1.00  0.00    -0.081 A  
HETATM   17  C   UNL     1      -7.505  11.603  68.645  1.00  0.00    -0.117 A  
BRANCH  15  18
HETATM   18  C   UNL     1      -6.194  15.101  67.847  1.00  0.00    -0.172 C  
BRANCH  18  19
HETATM   19  C   UNL     1      -6.944  16.400  67.551  1.00  0.00    -0.148 C  
BRANCH  19  20
HETATM   20  O   UNL     1      -7.265  17.062  68.777  1.00  0.00    -0.204 OA 
BRANCH  20  21
HETATM   21  C   UNL     1      -7.359  18.473  68.574  1.00  0.00    -0.295 C  
BRANCH  21  22
HETATM   22  C   UNL     1      -6.178  19.138  69.202  1.00  0.00    -0.298 C  
HETATM   23  C   UNL     1      -6.328  19.792  70.553  1.00  0.00    -0.191 C  
HETATM   24  C   UNL     1      -5.503  18.543  70.413  1.00  0.00    -0.239 C  
ENDBRANCH  21  22
ENDBRANCH  20  21
ENDBRANCH  19  20
ENDBRANCH  18  19
ENDBRANCH  15  18
ENDBRANCH  11  12
ENDBRANCH  10  11
ENDBRANCH   7  10
ENDBRANCH   6   7
ENDBRANCH   4   6
ENDBRANCH   2   4
TORSDOF 11
ENDMDL
MODEL      319
REMARK 921   NORMALIZED FREE ENERGY PREDICTED BY IDOCK:   -2.40 KCAL/MOL
REMARK 922        TOTAL FREE ENERGY PREDICTED BY IDOCK:   -5.28 KCAL/MOL
REMARK 923 INTER-LIGAND FREE ENERGY PREDICTED BY IDOCK:   -4.65 KCAL/MOL
REMARK 924 INTRA-LIGAND FREE ENERGY PREDICTED BY IDOCK:   -0.63 KCAL/MOL
REMARK 927      BINDING AFFINITY PREDICTED BY RF-SCORE:    0.00 PKD
ROOT
HETATM    1  C   UNL     1     -11.919  14.009  68.786  1.00  0.00    -0.382 C  
HETATM    2  C   UNL     1     -11.004  12.783  68.792  1.00  0.00    -0.250 C  
HETATM    3  C   UNL     1     -11.852  11.507  68.821  1.00  0.00    -0.394 C  
ENDROOT
BRANCH   2   4
HETATM    4  N   UNL     1     -10.121  12.713  67.620  1.00  0.00    -0.215 NA 
HETATM    5  H   UNL     1      -9.468  13.497  67.624  1.00  0.00     0.000 HD 
BRANCH   4   6
HETATM    6  C   UNL     1      -9.392  11.448  67.465  1.00  0.00    -0.164 C  
BRANCH   6   7
HETATM    7  C   UNL     1      -8.849  11.130  66.058  1.00  0.00    -0.189 C  
HETATM    8  O   UNL     1      -9.368  12.104  65.138  1.00  0.00    -0.433 OA 
HETATM    9  H   UNL     1      -9.033  11.908  64.271  1.00  0.00     0.000 HD 
BRANCH   7  10
HETATM   10  C   UNL     1      -9.253   9.729  65.590  1.00  0.00    -0.199 C  
BRANCH  10  11
HETATM   11  O   UNL     1     -10.228   9.213  66.513  1.00  0.00    -0.278 OA 
BRANCH  11  12
HETATM   12  C   UNL     1     -10.104   7.887  66.835  1.00  0.00    -0.291 A  
HETATM   13  C   UNL     1     -11.145   6.959  66.850  1.00  0.00    -0.219 A  
HETATM   14  C   UNL     1     -10.906   5.638  67.239  1.00  0.00    -0.217 A  
HETATM   15  C   UNL     1      -9.620   5.213  67.592  1.00  0.00    -0.164 A  
HETATM   16  C   UNL     1      -8.573   6.142  67.549  1.00  0.00    -0.106 A  
HETATM   17  C   UNL     1      -8.815   7.467  67.170  1.00  0.00    -0.127 A  
BRANCH  15  18
HETATM   18  C   UNL     1      -9.380   3.792  68.045  1.00  0.00    -0.232 C  
BRANCH  18  19
HETATM   19  C   UNL     1      -9.243   2.813  66.879  1.00  0.00    -0.115 C  
BRANCH  19  20
HETATM   20  O   UNL     1      -9.096   3.538  65.655  1.00  0.00    -0.137 OA 
BRANCH  20  21
HETATM   21  C   UNL     1      -8.360   2.769  64.703  1.00  0.00    -0.087 C  
BRANCH  21  22
HETATM   22  C   UNL     1      -9.058   2.825  63.383  1.00  0.00    -0.095 C  
HETATM   23  C   UNL     1     -10.445   3.416  63.305  1.00  0.00    -0.232 C  
HETATM   24  C   UNL     1      -9.285   4.140  62.680  1.00  0.00    -0.119 C  
ENDBRANCH  21  22
ENDBRANCH  20  21
ENDBRANCH  19  20
ENDBRANCH  18  19
ENDBRANCH  15  18
ENDBRANCH  11  12
ENDBRANCH  10  11
ENDBRANCH   7  10
ENDBRANCH   6   7
ENDBRANCH   4   6
ENDBRANCH   2   4
TORSDOF 11
ENDMDL
MODEL      320
REMARK 921   NORMALIZED FREE ENERGY PREDICTED BY IDOCK:   -2.34 KCAL/MOL
REMARK 922        TOTAL FREE ENERGY PREDICTED BY IDOCK:   -5.18 KCAL/MOL
REMARK 923 INTER-LIGAND FREE ENERGY PREDICTED BY IDOCK:   -3.89 KCAL/MOL
REMARK 924 INTRA-LIGAND FREE ENERGY PREDICTED BY IDOCK:   -1.29 KCAL/MOL
REMARK 927      BINDING AFFINITY PREDICTED BY RF-SCORE:    0.00 PKD
ROOT
HETATM    1  C   UNL     1     -10.514   6.004  68.748  1.00  0.00    -0.307 C  
HETATM    2  C   UNL     1     -11.132   6.704  67.537  1.00  0.00    -0.292 C  
HETATM    3  C   UNL     1     -10.600   8.138  67.443  1.00  0.00    -0.325 C  
ENDROOT
BRANCH   2   4
HETATM    4  N   UNL     1     -10.838   6.028  66.265  1.00  0.00    -0.624 NA 
HETATM    5  H   UNL     1     -10.098   6.523  65.767  1.00  0.00     0.000 HD 
BRANCH   4   6
HETATM    6  C   UNL     1     -10.506   4.602  66.381  1.00  0.00    -0.163 C  
BRANCH   6   7
HETATM    7  C   UNL     1      -9.631   4.002  65.263  1.00  0.00    -0.185 C  
HETATM    8  O   UNL     1      -9.481   2.595  65.508  1.00  0.00    -0.322 OA 
HETATM    9  H   UNL     1      -8.941   2.225  64.819  1.00  0.00     0.000 HD 
BRANCH   7  10
HETATM   10  C   UNL     1      -8.246   4.654  65.205  1.00  0.00    -0.117 C  
BRANCH  10  11
HETATM   11  O   UNL     1      -8.325   5.795  64.333  1.00  0.00    -0.130 OA 
BRANCH  11  12
HETATM   12  C   UNL     1      -7.886   6.982  64.858  1.00  0.00    -0.126 A  
HETATM   13  C   UNL     1      -7.187   7.124  66.057  1.00  0.00    -0.074 A  
HETATM   14  C   UNL     1      -6.828   8.394  66.516  1.00  0.00    -0.067 A  
HETATM   15  C   UNL     1      -7.135   9.542  65.775  1.00  0.00    -0.096 A  
HETATM   16  C   UNL     1      -7.813   9.391  64.559  1.00  0.00    -0.121 A  
HETATM   17  C   UNL     1      -8.182   8.119  64.105  1.00  0.00    -0.083 A  
BRANCH  15  18
HETATM   18  C   UNL     1      -6.774  10.912  66.299  1.00  0.00    -0.124 C  
BRANCH  18  19
HETATM   19  C   UNL     1      -7.799  11.456  67.295  1.00  0.00    -0.149 C  
BRANCH  19  20
HETATM   20  O   UNL     1      -7.981  12.858  67.082  1.00  0.00    -0.167 OA 
BRANCH  20  21
HETATM   21  C   UNL     1      -7.557  13.597  68.227  1.00  0.00    -0.130 C  
BRANCH  21  22
HETATM   22  C   UNL     1      -6.071  13.754  68.186  1.00  0.00    -0.120 C  
HETATM   23  C   UNL     1      -5.412  14.794  69.059  1.00  0.00    -0.093 C  
HETATM   24  C   UNL     1      -5.213  13.333  69.353  1.00  0.00    -0.075 C  
ENDBRANCH  21  22
ENDBRANCH  20  21
ENDBRANCH  19  20
ENDBRANCH  18  19
ENDBRANCH  15  18
ENDBRANCH  11  12
ENDBRANCH  10  11
ENDBRANCH   7  10
ENDBRANCH   6   7
ENDBRANCH   4   6
ENDBRANCH   2   4
TORSDOF 11
ENDMDL
MODEL      321
REMARK 921   NORMALIZED FREE ENERGY PREDICTED BY IDOCK:   -2.30 KCAL/MOL
REMARK 922        TOTAL FREE ENERGY PREDICTED BY IDOCK:   -5.11 KCAL/MOL
REMARK 923 INTER-LIGAND FREE ENERGY PREDICTED BY IDOCK:   -4.39 KCAL/MOL
REMARK 924 INTRA-LIGAND FREE ENERGY PREDICTED BY IDOCK:   -0.72 KCAL/MOL
REMARK 927      BINDING AFFINITY PREDICTED BY RF-SCORE:    0.00 PKD
ROOT
HETATM    1  C   UNL     1      -6.690  15.913  67.355  1.00  0.00    -0.229 C  
HETATM    2  C   UNL     1      -7.512  14.701  67.795  1.00  0.00    -0.166 C  
HETATM    3  C   UNL     1      -6.702  13.862  68.789  1.00  0.00    -0.102 C  
ENDROOT
BRANCH   2   4
HETATM    4  N   UNL     1      -8.781  15.066  68.440  1.00  0.00    -0.168 NA 
HETATM    5  H   UNL     1      -8.813  16.072  68.610  1.00  0.00     0.000 HD 
BRANCH   4   6
HETATM    6  C   UNL     1      -9.989  14.635  67.726  1.00  0.00    -0.224 C  
BRANCH   6   7
HETATM    7  C   UNL     1     -10.876  13.591  68.432  1.00  0.00    -0.267 C  
HETATM    8  O   UNL     1     -10.873  13.870  69.842  1.00  0.00    -0.452 OA 
HETATM    9  H   UNL     1     -11.420  13.227  70.278  1.00  0.00     0.000 HD 
BRANCH   7  10
HETATM   10  C   UNL     1     -10.378  12.162  68.200  1.00  0.00    -0.207 C  
BRANCH  10  11
HETATM   11  O   UNL     1     -11.232  11.266  68.932  1.00  0.00    -0.209 OA 
BRANCH  11  12
HETATM   12  C   UNL     1     -10.598  10.383  69.767  1.00  0.00    -0.258 A  
HETATM   13  C   UNL     1      -9.217  10.276  69.929  1.00  0.00    -0.020 A  
HETATM   14  C   UNL     1      -8.682   9.305  70.780  1.00  0.00    -0.272 A  
HETATM   15  C   UNL     1      -9.514   8.442  71.503  1.00  0.00    -0.267 A  
HETATM   16  C   UNL     1     -10.901   8.572  71.356  1.00  0.00    -0.327 A  
HETATM   17  C   UNL     1     -11.436   9.538  70.496  1.00  0.00    -0.337 A  
BRANCH  15  18
HETATM   18  C   UNL     1      -8.924   7.373  72.391  1.00  0.00    -0.161 C  
BRANCH  18  19
HETATM   19  C   UNL     1      -9.539   5.994  72.149  1.00  0.00    -0.151 C  
BRANCH  19  20
HETATM   20  O   UNL     1      -9.496   5.685  70.753  1.00  0.00    -0.159 OA 
BRANCH  20  21
HETATM   21  C   UNL     1      -9.674   4.284  70.544  1.00  0.00    -0.212 C  
BRANCH  21  22
HETATM   22  C   UNL     1      -8.563   3.772  69.686  1.00  0.00    -0.110 C  
HETATM   23  C   UNL     1      -7.203   4.421  69.772  1.00  0.00    -0.050 C  
HETATM   24  C   UNL     1      -7.400   3.022  70.286  1.00  0.00    -0.040 C  
ENDBRANCH  21  22
ENDBRANCH  20  21
ENDBRANCH  19  20
ENDBRANCH  18  19
ENDBRANCH  15  18
ENDBRANCH  11  12
ENDBRANCH  10  11
ENDBRANCH   7  10
ENDBRANCH   6   7
ENDBRANCH   4   6
ENDBRANCH   2   4
TORSDOF 11
ENDMDL
MODEL      322
REMARK 921   NORMALIZED FREE ENERGY PREDICTED BY IDOCK:   -2.29 KCAL/MOL
REMARK 922        TOTAL FREE ENERGY PREDICTED BY IDOCK:   -5.09 KCAL/MOL
REMARK 923 INTER-LIGAND FREE ENERGY PREDICTED BY IDOCK:   -3.78 KCAL/MOL
REMARK 924 INTRA-LIGAND FREE ENERGY PREDICTED BY IDOCK:   -1.31 KCAL/MOL
REMARK 927      BINDING AFFINITY PREDICTED BY RF-SCORE:    0.00 PKD
ROOT
HETATM    1  C   UNL     1     -11.220   6.698  68.409  1.00  0.00    -0.215 C  
HETATM    2  C   UNL     1     -10.066   7.649  68.091  1.00  0.00    -0.186 C  
HETATM    3  C   UNL     1     -10.037   8.786  69.117  1.00  0.00    -0.203 C  
ENDROOT
BRANCH   2   4
HETATM    4  N   UNL     1      -8.752   6.991  68.108  1.00  0.00    -0.127 NA 
HETATM    5  H   UNL     1      -8.775   6.175  68.721  1.00  0.00     0.000 HD 
BRANCH   4   6
HETATM    6  C   UNL     1      -8.225   6.619  66.789  1.00  0.00    -0.114 C  
BRANCH   6   7
HETATM    7  C   UNL     1      -8.452   7.624  65.644  1.00  0.00    -0.142 C  
HETATM    8  O   UNL     1      -8.564   6.894  64.411  1.00  0.00    -0.343 OA 
HETATM    9  H   UNL     1      -8.704   7.513  63.705  1.00  0.00     0.000 HD 
BRANCH   7  10
HETATM   10  C   UNL     1      -7.305   8.633  65.529  1.00  0.00    -0.084 C  
BRANCH  10  11
HETATM   11  O   UNL     1      -6.638   8.699  66.802  1.00  0.00    -0.059 OA 
BRANCH  11  12
HETATM   12  C   UNL     1      -6.653   9.919  67.423  1.00  0.00    -0.069 A  
HETATM   13  C   UNL     1      -6.779  10.124  68.797  1.00  0.00    -0.053 A  
HETATM   14  C   UNL     1      -6.826  11.422  69.314  1.00  0.00    -0.119 A  
HETATM   15  C   UNL     1      -6.721  12.537  68.473  1.00  0.00    -0.078 A  
HETATM   16  C   UNL     1      -6.569  12.324  67.098  1.00  0.00    -0.109 A  
HETATM   17  C   UNL     1      -6.532  11.025  66.579  1.00  0.00    -0.132 A  
BRANCH  15  18
HETATM   18  C   UNL     1      -6.810  13.934  69.039  1.00  0.00    -0.111 C  
BRANCH  18  19
HETATM   19  C   UNL     1      -8.118  14.639  68.677  1.00  0.00    -0.150 C  
BRANCH  19  20
HETATM   20  O   UNL     1      -9.149  13.669  68.477  1.00  0.00    -0.183 OA 
BRANCH  20  21
HETATM   21  C   UNL     1     -10.291  14.270  67.867  1.00  0.00    -0.233 C  
BRANCH  21  22
HETATM   22  C   UNL     1     -10.574  13.581  66.572  1.00  0.00    -0.281 C  
HETATM   23  C   UNL     1     -11.982  13.574  66.030  1.00  0.00    -0.449 C  
HETATM   24  C   UNL     1     -10.914  14.368  65.331  1.00  0.00    -0.343 C  
ENDBRANCH  21  22
ENDBRANCH  20  21
ENDBRANCH  19  20
ENDBRANCH  18  19
ENDBRANCH  15  18
ENDBRANCH  11  12
ENDBRANCH  10  11
ENDBRANCH   7  10
ENDBRANCH   6   7
ENDBRANCH   4   6
ENDBRANCH   2   4
TORSDOF 11
ENDMDL
MODEL      323
REMARK 921   NORMALIZED FREE ENERGY PREDICTED BY IDOCK:   -2.21 KCAL/MOL
REMARK 922        TOTAL FREE ENERGY PREDICTED BY IDOCK:   -4.96 KCAL/MOL
REMARK 923 INTER-LIGAND FREE ENERGY PREDICTED BY IDOCK:   -3.43 KCAL/MOL
REMARK 924 INTRA-LIGAND FREE ENERGY PREDICTED BY IDOCK:   -1.53 KCAL/MOL
REMARK 927      BINDING AFFINITY PREDICTED BY RF-SCORE:    0.00 PKD
ROOT
HETATM    1  C   UNL     1      -6.619   9.070  68.812  1.00  0.00    -0.053 C  
HETATM    2  C   UNL     1      -7.008  10.314  68.011  1.00  0.00    -0.082 C  
HETATM    3  C   UNL     1      -6.583  10.138  66.549  1.00  0.00    -0.077 C  
ENDROOT
BRANCH   2   4
HETATM    4  N   UNL     1      -8.451  10.588  68.033  1.00  0.00    -0.118 NA 
HETATM    5  H   UNL     1      -8.762  10.761  68.989  1.00  0.00     0.000 HD 
BRANCH   4   6
HETATM    6  C   UNL     1      -8.891  11.679  67.153  1.00  0.00    -0.172 C  
BRANCH   6   7
HETATM    7  C   UNL     1     -10.070  11.374  66.209  1.00  0.00    -0.224 C  
HETATM    8  O   UNL     1     -11.295  11.660  66.904  1.00  0.00    -0.320 OA 
HETATM    9  H   UNL     1     -12.022  11.473  66.322  1.00  0.00     0.000 HD 
BRANCH   7  10
HETATM   10  C   UNL     1     -10.079   9.912  65.754  1.00  0.00    -0.247 C  
BRANCH  10  11
HETATM   11  O   UNL     1     -10.770   9.137  66.750  1.00  0.00    -0.177 OA 
BRANCH  11  12
HETATM   12  C   UNL     1     -10.126   8.008  67.183  1.00  0.00    -0.263 A  
HETATM   13  C   UNL     1     -10.288   7.416  68.436  1.00  0.00    -0.224 A  
HETATM   14  C   UNL     1      -9.542   6.287  68.783  1.00  0.00    -0.128 A  
HETATM   15  C   UNL     1      -8.641   5.713  67.878  1.00  0.00    -0.101 A  
HETATM   16  C   UNL     1      -8.501   6.296  66.613  1.00  0.00    -0.114 A  
HETATM   17  C   UNL     1      -9.241   7.433  66.269  1.00  0.00    -0.182 A  
BRANCH  15  18
HETATM   18  C   UNL     1      -7.813   4.514  68.277  1.00  0.00    -0.080 C  
BRANCH  18  19
HETATM   19  C   UNL     1      -8.379   3.197  67.744  1.00  0.00    -0.081 C  
BRANCH  19  20
HETATM   20  O   UNL     1      -9.417   2.733  68.611  1.00  0.00    -0.187 OA 
BRANCH  20  21
HETATM   21  C   UNL     1      -8.867   2.259  69.841  1.00  0.00    -0.079 C  
BRANCH  21  22
HETATM   22  C   UNL     1      -9.446   3.047  70.971  1.00  0.00    -0.228 C  
HETATM   23  C   UNL     1      -9.786   2.347  72.263  1.00  0.00    -0.197 C  
HETATM   24  C   UNL     1      -8.643   3.322  72.218  1.00  0.00    -0.096 C  
ENDBRANCH  21  22
ENDBRANCH  20  21
ENDBRANCH  19  20
ENDBRANCH  18  19
ENDBRANCH  15  18
ENDBRANCH  11  12
ENDBRANCH  10  11
ENDBRANCH   7  10
ENDBRANCH   6   7
ENDBRANCH   4   6
ENDBRANCH   2   4
TORSDOF 11
ENDMDL
MODEL      324
REMARK 921   NORMALIZED FREE ENERGY PREDICTED BY IDOCK:   -2.20 KCAL/MOL
REMARK 922        TOTAL FREE ENERGY PREDICTED BY IDOCK:   -4.95 KCAL/MOL
REMARK 923 INTER-LIGAND FREE ENERGY PREDICTED BY IDOCK:   -3.82 KCAL/MOL
REMARK 924 INTRA-LIGAND FREE ENERGY PREDICTED BY IDOCK:   -1.13 KCAL/MOL
REMARK 927      BINDING AFFINITY PREDICTED BY RF-SCORE:    0.00 PKD
ROOT
HETATM    1  C   UNL     1      -6.797   9.888  67.953  1.00  0.00    -0.076 C  
HETATM    2  C   UNL     1      -7.078  11.114  67.084  1.00  0.00    -0.113 C  
HETATM    3  C   UNL     1      -7.112  10.703  65.608  1.00  0.00    -0.076 C  
ENDROOT
BRANCH   2   4
HETATM    4  N   UNL     1      -8.355  11.768  67.401  1.00  0.00    -0.152 NA 
HETATM    5  H   UNL     1      -8.296  12.235  68.306  1.00  0.00     0.000 HD 
BRANCH   4   6
HETATM    6  C   UNL     1      -8.846  12.703  66.380  1.00  0.00     0.016 C  
BRANCH   6   7
HETATM    7  C   UNL     1     -10.347  12.627  66.036  1.00  0.00    -0.270 C  
HETATM    8  O   UNL     1     -11.077  13.381  67.017  1.00  0.00    -0.282 OA 
HETATM    9  H   UNL     1     -12.002  13.334  66.805  1.00  0.00     0.000 HD 
BRANCH   7  10
HETATM   10  C   UNL     1     -10.861  11.184  66.024  1.00  0.00    -0.166 C  
BRANCH  10  11
HETATM   11  O   UNL     1     -11.493  10.923  67.290  1.00  0.00    -0.458 OA 
BRANCH  11  12
HETATM   12  C   UNL     1     -10.975   9.882  68.013  1.00  0.00    -0.213 A  
HETATM   13  C   UNL     1     -10.864   9.841  69.403  1.00  0.00    -0.256 A  
HETATM   14  C   UNL     1     -10.277   8.739  70.031  1.00  0.00    -0.208 A  
HETATM   15  C   UNL     1      -9.815   7.648  69.286  1.00  0.00    -0.168 A  
HETATM   16  C   UNL     1      -9.953   7.682  67.893  1.00  0.00    -0.208 A  
HETATM   17  C   UNL     1     -10.531   8.791  67.264  1.00  0.00    -0.353 A  
BRANCH  15  18
HETATM   18  C   UNL     1      -9.148   6.478  69.972  1.00  0.00    -0.150 C  
BRANCH  18  19
HETATM   19  C   UNL     1      -8.193   5.716  69.052  1.00  0.00    -0.100 C  
BRANCH  19  20
HETATM   20  O   UNL     1      -8.938   4.834  68.208  1.00  0.00    -0.106 OA 
BRANCH  20  21
HETATM   21  C   UNL     1      -9.631   3.860  68.989  1.00  0.00    -0.138 C  
BRANCH  21  22
HETATM   22  C   UNL     1      -9.000   2.523  68.775  1.00  0.00    -0.176 C  
HETATM   23  C   UNL     1      -7.676   2.216  69.431  1.00  0.00    -0.046 C  
HETATM   24  C   UNL     1      -8.922   1.513  69.893  1.00  0.00    -0.128 C  
ENDBRANCH  21  22
ENDBRANCH  20  21
ENDBRANCH  19  20
ENDBRANCH  18  19
ENDBRANCH  15  18
ENDBRANCH  11  12
ENDBRANCH  10  11
ENDBRANCH   7  10
ENDBRANCH   6   7
ENDBRANCH   4   6
ENDBRANCH   2   4
TORSDOF 11
ENDMDL
MODEL      325
REMARK 921   NORMALIZED FREE ENERGY PREDICTED BY IDOCK:   -2.20 KCAL/MOL
REMARK 922        TOTAL FREE ENERGY PREDICTED BY IDOCK:   -4.95 KCAL/MOL
REMARK 923 INTER-LIGAND FREE ENERGY PREDICTED BY IDOCK:   -3.72 KCAL/MOL
REMARK 924 INTRA-LIGAND FREE ENERGY PREDICTED BY IDOCK:   -1.22 KCAL/MOL
REMARK 927      BINDING AFFINITY PREDICTED BY RF-SCORE:    0.00 PKD
ROOT
HETATM    1  C   UNL     1      -9.527   7.851  73.336  1.00  0.00    -0.341 C  
HETATM    2  C   UNL     1     -10.095   6.504  72.888  1.00  0.00    -0.181 C  
HETATM    3  C   UNL     1     -11.544   6.686  72.423  1.00  0.00    -0.281 C  
ENDROOT
BRANCH   2   4
HETATM    4  N   UNL     1      -9.339   5.895  71.785  1.00  0.00    -0.149 NA 
HETATM    5  H   UNL     1      -9.557   4.901  71.717  1.00  0.00     0.000 HD 
BRANCH   4   6
HETATM    6  C   UNL     1      -9.513   6.543  70.479  1.00  0.00    -0.166 C  
BRANCH   6   7
HETATM    7  C   UNL     1      -9.155   5.704  69.237  1.00  0.00    -0.113 C  
HETATM    8  O   UNL     1     -10.217   4.765  69.000  1.00  0.00    -0.155 OA 
HETATM    9  H   UNL     1      -9.997   4.248  68.234  1.00  0.00     0.000 HD 
BRANCH   7  10
HETATM   10  C   UNL     1      -7.840   4.941  69.419  1.00  0.00    -0.071 C  
BRANCH  10  11
HETATM   11  O   UNL     1      -7.267   4.720  68.118  1.00  0.00    -0.063 OA 
BRANCH  11  12
HETATM   12  C   UNL     1      -7.342   5.773  67.245  1.00  0.00    -0.077 A  
HETATM   13  C   UNL     1      -6.786   7.035  67.453  1.00  0.00    -0.073 A  
HETATM   14  C   UNL     1      -6.965   8.048  66.507  1.00  0.00    -0.071 A  
HETATM   15  C   UNL     1      -7.679   7.813  65.325  1.00  0.00    -0.102 A  
HETATM   16  C   UNL     1      -8.212   6.536  65.109  1.00  0.00    -0.126 A  
HETATM   17  C   UNL     1      -8.041   5.525  66.062  1.00  0.00    -0.108 A  
BRANCH  15  18
HETATM   18  C   UNL     1      -7.898   8.925  64.327  1.00  0.00    -0.134 C  
BRANCH  18  19
HETATM   19  C   UNL     1      -8.487  10.185  64.962  1.00  0.00    -0.163 C  
BRANCH  19  20
HETATM   20  O   UNL     1      -9.879   9.987  65.225  1.00  0.00    -0.291 OA 
BRANCH  20  21
HETATM   21  C   UNL     1     -10.302  10.798  66.321  1.00  0.00    -0.244 C  
BRANCH  21  22
HETATM   22  C   UNL     1     -10.891   9.922  67.379  1.00  0.00    -0.293 C  
HETATM   23  C   UNL     1     -10.655   8.432  67.321  1.00  0.00    -0.328 C  
HETATM   24  C   UNL     1     -10.016   9.251  68.408  1.00  0.00    -0.196 C  
ENDBRANCH  21  22
ENDBRANCH  20  21
ENDBRANCH  19  20
ENDBRANCH  18  19
ENDBRANCH  15  18
ENDBRANCH  11  12
ENDBRANCH  10  11
ENDBRANCH   7  10
ENDBRANCH   6   7
ENDBRANCH   4   6
ENDBRANCH   2   4
TORSDOF 11
ENDMDL
MODEL      326
REMARK 921   NORMALIZED FREE ENERGY PREDICTED BY IDOCK:   -2.17 KCAL/MOL
REMARK 922        TOTAL FREE ENERGY PREDICTED BY IDOCK:   -4.90 KCAL/MOL
REMARK 923 INTER-LIGAND FREE ENERGY PREDICTED BY IDOCK:   -4.04 KCAL/MOL
REMARK 924 INTRA-LIGAND FREE ENERGY PREDICTED BY IDOCK:   -0.86 KCAL/MOL
REMARK 927      BINDING AFFINITY PREDICTED BY RF-SCORE:    0.00 PKD
ROOT
HETATM    1  C   UNL     1     -12.638  13.697  64.720  1.00  0.00    -0.339 C  
HETATM    2  C   UNL     1     -11.235  14.276  64.912  1.00  0.00    -0.379 C  
HETATM    3  C   UNL     1     -11.094  14.826  66.335  1.00  0.00    -0.340 C  
ENDROOT
BRANCH   2   4
HETATM    4  N   UNL     1     -10.168  13.288  64.701  1.00  0.00    -0.566 NA 
HETATM    5  H   UNL     1      -9.397  13.459  65.347  1.00  0.00     0.000 HD 
BRANCH   4   6
HETATM    6  C   UNL     1     -10.594  11.885  64.781  1.00  0.00    -0.299 C  
BRANCH   6   7
HETATM    7  C   UNL     1     -10.332  11.157  66.114  1.00  0.00    -0.250 C  
HETATM    8  O   UNL     1     -11.515  11.250  66.924  1.00  0.00    -0.431 OA 
HETATM    9  H   UNL     1     -11.353  10.801  67.746  1.00  0.00     0.000 HD 
BRANCH   7  10
HETATM   10  C   UNL     1      -9.150  11.763  66.877  1.00  0.00    -0.192 C  
BRANCH  10  11
HETATM   11  O   UNL     1      -9.074  11.127  68.164  1.00  0.00    -0.147 OA 
BRANCH  11  12
HETATM   12  C   UNL     1      -8.523   9.872  68.180  1.00  0.00    -0.114 A  
HETATM   13  C   UNL     1      -9.175   8.710  68.591  1.00  0.00    -0.138 A  
HETATM   14  C   UNL     1      -8.496   7.488  68.605  1.00  0.00    -0.129 A  
HETATM   15  C   UNL     1      -7.163   7.401  68.184  1.00  0.00    -0.090 A  
HETATM   16  C   UNL     1      -6.522   8.567  67.747  1.00  0.00    -0.061 A  
HETATM   17  C   UNL     1      -7.200   9.791  67.744  1.00  0.00    -0.088 A  
BRANCH  15  18
HETATM   18  C   UNL     1      -6.428   6.083  68.238  1.00  0.00    -0.046 C  
BRANCH  18  19
HETATM   19  C   UNL     1      -7.323   4.889  67.901  1.00  0.00    -0.071 C  
BRANCH  19  20
HETATM   20  O   UNL     1      -6.789   3.703  68.494  1.00  0.00    -0.045 OA 
BRANCH  20  21
HETATM   21  C   UNL     1      -6.998   2.578  67.640  1.00  0.00    -0.048 C  
BRANCH  21  22
HETATM   22  C   UNL     1      -7.775   3.012  66.440  1.00  0.00    -0.077 C  
HETATM   23  C   UNL     1      -7.578   2.290  65.130  1.00  0.00    -0.072 C  
HETATM   24  C   UNL     1      -8.877   2.151  65.874  1.00  0.00    -0.120 C  
ENDBRANCH  21  22
ENDBRANCH  20  21
ENDBRANCH  19  20
ENDBRANCH  18  19
ENDBRANCH  15  18
ENDBRANCH  11  12
ENDBRANCH  10  11
ENDBRANCH   7  10
ENDBRANCH   6   7
ENDBRANCH   4   6
ENDBRANCH   2   4
TORSDOF 11
ENDMDL
MODEL      327
REMARK 921   NORMALIZED FREE ENERGY PREDICTED BY IDOCK:   -2.01 KCAL/MOL
REMARK 922        TOTAL FREE ENERGY PREDICTED BY IDOCK:   -4.64 KCAL/MOL
REMARK 923 INTER-LIGAND FREE ENERGY PREDICTED BY IDOCK:   -3.77 KCAL/MOL
REMARK 924 INTRA-LIGAND FREE ENERGY PREDICTED BY IDOCK:   -0.87 KCAL/MOL
REMARK 927      BINDING AFFINITY PREDICTED BY RF-SCORE:    0.00 PKD
ROOT
HETATM    1  C   UNL     1      -6.559  16.079  67.410  1.00  0.00    -0.224 C  
HETATM    2  C   UNL     1      -7.189  14.719  67.714  1.00  0.00    -0.176 C  
HETATM    3  C   UNL     1      -6.406  14.027  68.835  1.00  0.00    -0.092 C  
ENDROOT
BRANCH   2   4
HETATM    4  N   UNL     1      -8.594  14.813  68.134  1.00  0.00    -0.153 NA 
HETATM    5  H   UNL     1      -8.839  15.784  68.327  1.00  0.00     0.000 HD 
BRANCH   4   6
HETATM    6  C   UNL     1      -9.563  14.221  67.203  1.00  0.00    -0.245 C  
BRANCH   6   7
HETATM    7  C   UNL     1     -10.104  12.823  67.561  1.00  0.00    -0.213 C  
HETATM    8  O   UNL     1     -10.684  12.882  68.874  1.00  0.00    -0.315 OA 
HETATM    9  H   UNL     1     -11.018  12.021  69.095  1.00  0.00     0.000 HD 
BRANCH   7  10
HETATM   10  C   UNL     1      -9.001  11.760  67.545  1.00  0.00    -0.168 C  
BRANCH  10  11
HETATM   11  O   UNL     1      -9.569  10.520  68.004  1.00  0.00    -0.145 OA 
BRANCH  11  12
HETATM   12  C   UNL     1      -8.865   9.864  68.978  1.00  0.00    -0.156 A  
HETATM   13  C   UNL     1      -7.779  10.388  69.681  1.00  0.00    -0.152 A  
HETATM   14  C   UNL     1      -7.109   9.607  70.626  1.00  0.00    -0.117 A  
HETATM   15  C   UNL     1      -7.526   8.300  70.906  1.00  0.00    -0.064 A  
HETATM   16  C   UNL     1      -8.633   7.789  70.217  1.00  0.00    -0.138 A  
HETATM   17  C   UNL     1      -9.297   8.568  69.263  1.00  0.00    -0.154 A  
BRANCH  15  18
HETATM   18  C   UNL     1      -6.772   7.452  71.903  1.00  0.00    -0.054 C  
BRANCH  18  19
HETATM   19  C   UNL     1      -7.215   5.988  71.893  1.00  0.00    -0.092 C  
BRANCH  19  20
HETATM   20  O   UNL     1      -8.069   5.735  73.011  1.00  0.00    -0.116 OA 
BRANCH  20  21
HETATM   21  C   UNL     1      -8.619   4.420  72.934  1.00  0.00    -0.105 C  
BRANCH  21  22
HETATM   22  C   UNL     1      -9.954   4.486  72.265  1.00  0.00    -0.239 C  
HETATM   23  C   UNL     1     -11.199   4.599  73.110  1.00  0.00    -0.367 C  
HETATM   24  C   UNL     1     -10.760   5.761  72.264  1.00  0.00    -0.282 C  
ENDBRANCH  21  22
ENDBRANCH  20  21
ENDBRANCH  19  20
ENDBRANCH  18  19
ENDBRANCH  15  18
ENDBRANCH  11  12
ENDBRANCH  10  11
ENDBRANCH   7  10
ENDBRANCH   6   7
ENDBRANCH   4   6
ENDBRANCH   2   4
TORSDOF 11
ENDMDL
MODEL      328
REMARK 921   NORMALIZED FREE ENERGY PREDICTED BY IDOCK:   -1.99 KCAL/MOL
REMARK 922        TOTAL FREE ENERGY PREDICTED BY IDOCK:   -4.60 KCAL/MOL
REMARK 923 INTER-LIGAND FREE ENERGY PREDICTED BY IDOCK:   -3.89 KCAL/MOL
REMARK 924 INTRA-LIGAND FREE ENERGY PREDICTED BY IDOCK:   -0.70 KCAL/MOL
REMARK 927      BINDING AFFINITY PREDICTED BY RF-SCORE:    0.00 PKD
ROOT
HETATM    1  C   UNL     1      -9.998  10.190  65.349  1.00  0.00    -0.377 C  
HETATM    2  C   UNL     1     -10.173  10.228  66.868  1.00  0.00    -0.230 C  
HETATM    3  C   UNL     1     -11.106  11.382  67.250  1.00  0.00    -0.363 C  
ENDROOT
BRANCH   2   4
HETATM    4  N   UNL     1     -10.740   8.988  67.416  1.00  0.00    -0.411 NA 
HETATM    5  H   UNL     1     -11.750   8.971  67.275  1.00  0.00     0.000 HD 
BRANCH   4   6
HETATM    6  C   UNL     1     -10.137   7.749  66.906  1.00  0.00    -0.286 C  
BRANCH   6   7
HETATM    7  C   UNL     1     -10.996   6.473  66.996  1.00  0.00    -0.396 C  
HETATM    8  O   UNL     1     -11.597   6.420  68.300  1.00  0.00    -0.524 OA 
HETATM    9  H   UNL     1     -12.127   5.633  68.356  1.00  0.00     0.000 HD 
BRANCH   7  10
HETATM   10  C   UNL     1     -10.165   5.205  66.773  1.00  0.00    -0.253 C  
BRANCH  10  11
HETATM   11  O   UNL     1      -8.813   5.479  67.179  1.00  0.00    -0.109 OA 
BRANCH  11  12
HETATM   12  C   UNL     1      -8.428   4.943  68.380  1.00  0.00    -0.094 A  
HETATM   13  C   UNL     1      -9.072   3.897  69.040  1.00  0.00    -0.198 A  
HETATM   14  C   UNL     1      -8.613   3.461  70.286  1.00  0.00    -0.105 A  
HETATM   15  C   UNL     1      -7.489   4.043  70.883  1.00  0.00    -0.044 A  
HETATM   16  C   UNL     1      -6.830   5.076  70.203  1.00  0.00    -0.044 A  
HETATM   17  C   UNL     1      -7.297   5.519  68.961  1.00  0.00    -0.077 A  
BRANCH  15  18
HETATM   18  C   UNL     1      -7.024   3.590  72.246  1.00  0.00    -0.041 C  
BRANCH  18  19
HETATM   19  C   UNL     1      -7.423   2.147  72.559  1.00  0.00    -0.039 C  
BRANCH  19  20
HETATM   20  O   UNL     1      -8.801   2.100  72.939  1.00  0.00    -0.066 OA 
BRANCH  20  21
HETATM   21  C   UNL     1      -9.024   2.882  74.113  1.00  0.00    -0.078 C  
BRANCH  21  22
HETATM   22  C   UNL     1     -10.309   3.629  73.966  1.00  0.00    -0.240 C  
HETATM   23  C   UNL     1     -10.989   3.674  72.620  1.00  0.00     0.079 C  
HETATM   24  C   UNL     1     -11.611   2.900  73.748  1.00  0.00     0.001 C  
ENDBRANCH  21  22
ENDBRANCH  20  21
ENDBRANCH  19  20
ENDBRANCH  18  19
ENDBRANCH  15  18
ENDBRANCH  11  12
ENDBRANCH  10  11
ENDBRANCH   7  10
ENDBRANCH   6   7
ENDBRANCH   4   6
ENDBRANCH   2   4
TORSDOF 11
ENDMDL
MODEL      329
REMARK 921   NORMALIZED FREE ENERGY PREDICTED BY IDOCK:   -1.96 KCAL/MOL
REMARK 922        TOTAL FREE ENERGY PREDICTED BY IDOCK:   -4.56 KCAL/MOL
REMARK 923 INTER-LIGAND FREE ENERGY PREDICTED BY IDOCK:   -3.99 KCAL/MOL
REMARK 924 INTRA-LIGAND FREE ENERGY PREDICTED BY IDOCK:   -0.57 KCAL/MOL
REMARK 927      BINDING AFFINITY PREDICTED BY RF-SCORE:    0.00 PKD
ROOT
HETATM    1  C   UNL     1     -11.814  15.445  64.369  1.00  0.00    -0.260 C  
HETATM    2  C   UNL     1     -11.309  14.513  65.471  1.00  0.00    -0.335 C  
HETATM    3  C   UNL     1     -12.047  13.173  65.391  1.00  0.00    -0.478 C  
ENDROOT
BRANCH   2   4
HETATM    4  N   UNL     1      -9.867  14.241  65.385  1.00  0.00    -0.554 NA 
HETATM    5  H   UNL     1      -9.477  14.676  64.549  1.00  0.00     0.000 HD 
BRANCH   4   6
HETATM    6  C   UNL     1      -9.089  14.629  66.568  1.00  0.00    -0.237 C  
BRANCH   6   7
HETATM    7  C   UNL     1      -8.365  13.497  67.323  1.00  0.00    -0.179 C  
HETATM    8  O   UNL     1      -9.114  13.189  68.509  1.00  0.00    -0.316 OA 
HETATM    9  H   UNL     1      -8.667  12.492  68.975  1.00  0.00     0.000 HD 
BRANCH   7  10
HETATM   10  C   UNL     1      -6.937  13.891  67.715  1.00  0.00    -0.172 C  
BRANCH  10  11
HETATM   11  O   UNL     1      -6.034  12.929  67.141  1.00  0.00    -0.325 OA 
BRANCH  11  12
HETATM   12  C   UNL     1      -5.897  11.753  67.829  1.00  0.00    -0.057 A  
HETATM   13  C   UNL     1      -5.630  11.641  69.193  1.00  0.00    -0.048 A  
HETATM   14  C   UNL     1      -5.467  10.383  69.779  1.00  0.00    -0.039 A  
HETATM   15  C   UNL     1      -5.593   9.213  69.019  1.00  0.00    -0.036 A  
HETATM   16  C   UNL     1      -5.888   9.330  67.655  1.00  0.00    -0.045 A  
HETATM   17  C   UNL     1      -6.040  10.591  67.067  1.00  0.00    -0.058 A  
BRANCH  15  18
HETATM   18  C   UNL     1      -5.379   7.860  69.655  1.00  0.00    -0.023 C  
BRANCH  18  19
HETATM   19  C   UNL     1      -6.515   6.880  69.361  1.00  0.00    -0.044 C  
BRANCH  19  20
HETATM   20  O   UNL     1      -6.652   5.961  70.448  1.00  0.00    -0.041 OA 
BRANCH  20  21
HETATM   21  C   UNL     1      -7.932   6.101  71.065  1.00  0.00    -0.116 C  
BRANCH  21  22
HETATM   22  C   UNL     1      -8.497   4.744  71.334  1.00  0.00    -0.113 C  
HETATM   23  C   UNL     1      -9.956   4.608  71.692  1.00  0.00    -0.262 C  
HETATM   24  C   UNL     1      -9.458   4.096  70.369  1.00  0.00    -0.247 C  
ENDBRANCH  21  22
ENDBRANCH  20  21
ENDBRANCH  19  20
ENDBRANCH  18  19
ENDBRANCH  15  18
ENDBRANCH  11  12
ENDBRANCH  10  11
ENDBRANCH   7  10
ENDBRANCH   6   7
ENDBRANCH   4   6
ENDBRANCH   2   4
TORSDOF 11
ENDMDL
MODEL      330
REMARK 921   NORMALIZED FREE ENERGY PREDICTED BY IDOCK:   -1.90 KCAL/MOL
REMARK 922        TOTAL FREE ENERGY PREDICTED BY IDOCK:   -4.46 KCAL/MOL
REMARK 923 INTER-LIGAND FREE ENERGY PREDICTED BY IDOCK:   -3.72 KCAL/MOL
REMARK 924 INTRA-LIGAND FREE ENERGY PREDICTED BY IDOCK:   -0.73 KCAL/MOL
REMARK 927      BINDING AFFINITY PREDICTED BY RF-SCORE:    0.00 PKD
ROOT
HETATM    1  C   UNL     1     -10.525   7.670  72.196  1.00  0.00    -0.270 C  
HETATM    2  C   UNL     1     -10.371   6.174  71.918  1.00  0.00    -0.208 C  
HETATM    3  C   UNL     1     -11.050   5.825  70.589  1.00  0.00    -0.272 C  
ENDROOT
BRANCH   2   4
HETATM    4  N   UNL     1      -8.970   5.741  71.838  1.00  0.00    -0.139 NA 
HETATM    5  H   UNL     1      -8.648   5.419  72.751  1.00  0.00     0.000 HD 
BRANCH   4   6
HETATM    6  C   UNL     1      -8.690   4.724  70.816  1.00  0.00    -0.109 C  
BRANCH   6   7
HETATM    7  C   UNL     1      -7.265   4.706  70.229  1.00  0.00    -0.050 C  
HETATM    8  O   UNL     1      -6.440   3.876  71.063  1.00  0.00    -0.024 OA 
HETATM    9  H   UNL     1      -5.561   3.865  70.701  1.00  0.00     0.000 HD 
BRANCH   7  10
HETATM   10  C   UNL     1      -6.657   6.109  70.154  1.00  0.00    -0.044 C  
BRANCH  10  11
HETATM   11  O   UNL     1      -6.670   6.530  68.779  1.00  0.00    -0.052 OA 
BRANCH  11  12
HETATM   12  C   UNL     1      -7.570   7.514  68.463  1.00  0.00    -0.114 A  
HETATM   13  C   UNL     1      -8.840   7.304  67.926  1.00  0.00    -0.128 A  
HETATM   14  C   UNL     1      -9.656   8.391  67.602  1.00  0.00    -0.188 A  
HETATM   15  C   UNL     1      -9.231   9.705  67.833  1.00  0.00    -0.134 A  
HETATM   16  C   UNL     1      -7.966   9.909  68.397  1.00  0.00    -0.096 A  
HETATM   17  C   UNL     1      -7.144   8.820  68.711  1.00  0.00    -0.063 A  
BRANCH  15  18
HETATM   18  C   UNL     1     -10.107  10.873  67.445  1.00  0.00    -0.223 C  
BRANCH  18  19
HETATM   19  C   UNL     1     -11.489  10.821  68.098  1.00  0.00    -0.271 C  
BRANCH  19  20
HETATM   20  O   UNL     1     -11.842  12.119  68.582  1.00  0.00    -0.309 OA 
BRANCH  20  21
HETATM   21  C   UNL     1     -11.492  13.122  67.628  1.00  0.00    -0.324 C  
BRANCH  21  22
HETATM   22  C   UNL     1     -10.378  13.952  68.177  1.00  0.00    -0.247 C  
HETATM   23  C   UNL     1      -9.627  14.885  67.258  1.00  0.00    -0.216 C  
HETATM   24  C   UNL     1     -10.523  15.446  68.327  1.00  0.00    -0.241 C  
ENDBRANCH  21  22
ENDBRANCH  20  21
ENDBRANCH  19  20
ENDBRANCH  18  19
ENDBRANCH  15  18
ENDBRANCH  11  12
ENDBRANCH  10  11
ENDBRANCH   7  10
ENDBRANCH   6   7
ENDBRANCH   4   6
ENDBRANCH   2   4
TORSDOF 11
ENDMDL
MODEL      331
REMARK 921   NORMALIZED FREE ENERGY PREDICTED BY IDOCK:   -1.88 KCAL/MOL
REMARK 922        TOTAL FREE ENERGY PREDICTED BY IDOCK:   -4.42 KCAL/MOL
REMARK 923 INTER-LIGAND FREE ENERGY PREDICTED BY IDOCK:   -3.30 KCAL/MOL
REMARK 924 INTRA-LIGAND FREE ENERGY PREDICTED BY IDOCK:   -1.12 KCAL/MOL
REMARK 927      BINDING AFFINITY PREDICTED BY RF-SCORE:    0.00 PKD
ROOT
HETATM    1  C   UNL     1      -7.780   8.212  63.978  1.00  0.00    -0.137 C  
HETATM    2  C   UNL     1      -7.969   7.050  64.955  1.00  0.00    -0.129 C  
HETATM    3  C   UNL     1      -9.004   7.435  66.018  1.00  0.00    -0.156 C  
ENDROOT
BRANCH   2   4
HETATM    4  N   UNL     1      -8.426   5.815  64.304  1.00  0.00    -0.310 NA 
HETATM    5  H   UNL     1      -7.631   5.206  64.107  1.00  0.00     0.000 HD 
BRANCH   4   6
HETATM    6  C   UNL     1      -9.463   5.074  65.034  1.00  0.00     0.039 C  
BRANCH   6   7
HETATM    7  C   UNL     1      -9.722   3.622  64.586  1.00  0.00    -0.179 C  
HETATM    8  O   UNL     1     -11.118   3.483  64.278  1.00  0.00    -0.604 OA 
HETATM    9  H   UNL     1     -11.278   2.588  64.002  1.00  0.00     0.000 HD 
BRANCH   7  10
HETATM   10  C   UNL     1      -9.341   2.610  65.670  1.00  0.00    -0.024 C  
BRANCH  10  11
HETATM   11  O   UNL     1      -8.118   3.052  66.285  1.00  0.00    -0.081 OA 
BRANCH  11  12
HETATM   12  C   UNL     1      -8.050   2.915  67.647  1.00  0.00    -0.075 A  
HETATM   13  C   UNL     1      -6.877   2.755  68.384  1.00  0.00    -0.047 A  
HETATM   14  C   UNL     1      -6.934   2.580  69.769  1.00  0.00    -0.033 A  
HETATM   15  C   UNL     1      -8.159   2.589  70.447  1.00  0.00    -0.055 A  
HETATM   16  C   UNL     1      -9.332   2.778  69.705  1.00  0.00    -0.198 A  
HETATM   17  C   UNL     1      -9.274   2.942  68.316  1.00  0.00    -0.247 A  
BRANCH  15  18
HETATM   18  C   UNL     1      -8.211   2.363  71.939  1.00  0.00    -0.058 C  
BRANCH  18  19
HETATM   19  C   UNL     1      -7.935   3.635  72.742  1.00  0.00    -0.077 C  
BRANCH  19  20
HETATM   20  O   UNL     1      -9.009   4.562  72.561  1.00  0.00    -0.118 OA 
BRANCH  20  21
HETATM   21  C   UNL     1      -8.510   5.828  72.126  1.00  0.00    -0.122 C  
BRANCH  21  22
HETATM   22  C   UNL     1      -9.454   6.407  71.123  1.00  0.00    -0.177 C  
HETATM   23  C   UNL     1     -10.921   6.514  71.463  1.00  0.00    -0.298 C  
HETATM   24  C   UNL     1     -10.087   7.759  71.342  1.00  0.00    -0.211 C  
ENDBRANCH  21  22
ENDBRANCH  20  21
ENDBRANCH  19  20
ENDBRANCH  18  19
ENDBRANCH  15  18
ENDBRANCH  11  12
ENDBRANCH  10  11
ENDBRANCH   7  10
ENDBRANCH   6   7
ENDBRANCH   4   6
ENDBRANCH   2   4
TORSDOF 11
ENDMDL
MODEL      332
REMARK 921   NORMALIZED FREE ENERGY PREDICTED BY IDOCK:   -1.87 KCAL/MOL
REMARK 922        TOTAL FREE ENERGY PREDICTED BY IDOCK:   -4.40 KCAL/MOL
REMARK 923 INTER-LIGAND FREE ENERGY PREDICTED BY IDOCK:   -5.18 KCAL/MOL
REMARK 924 INTRA-LIGAND FREE ENERGY PREDICTED BY IDOCK:    0.78 KCAL/MOL
REMARK 927      BINDING AFFINITY PREDICTED BY RF-SCORE:    0.00 PKD
ROOT
HETATM    1  C   UNL     1      -8.643   9.944  68.666  1.00  0.00    -0.119 C  
HETATM    2  C   UNL     1      -9.244  10.588  67.416  1.00  0.00    -0.142 C  
HETATM    3  C   UNL     1      -8.479  10.117  66.175  1.00  0.00    -0.134 C  
ENDROOT
BRANCH   2   4
HETATM    4  N   UNL     1     -10.664  10.263  67.223  1.00  0.00    -0.269 NA 
HETATM    5  H   UNL     1     -10.991   9.656  67.975  1.00  0.00     0.000 HD 
BRANCH   4   6
HETATM    6  C   UNL     1     -11.555  11.422  67.084  1.00  0.00    -0.098 C  
BRANCH   6   7
HETATM    7  C   UNL     1     -11.579  12.116  65.708  1.00  0.00    -0.355 C  
HETATM    8  O   UNL     1     -10.883  11.283  64.766  1.00  0.00    -0.302 OA 
HETATM    9  H   UNL     1     -10.898  11.711  63.918  1.00  0.00     0.000 HD 
BRANCH   7  10
HETATM   10  C   UNL     1     -10.914  13.495  65.749  1.00  0.00    -0.278 C  
BRANCH  10  11
HETATM   11  O   UNL     1     -10.496  13.750  67.102  1.00  0.00    -0.269 OA 
BRANCH  11  12
HETATM   12  C   UNL     1     -10.321  15.067  67.435  1.00  0.00    -0.238 A  
HETATM   13  C   UNL     1     -11.154  16.116  67.046  1.00  0.00    -0.024 A  
HETATM   14  C   UNL     1     -10.849  17.430  67.412  1.00  0.00    -0.165 A  
HETATM   15  C   UNL     1      -9.725  17.718  68.194  1.00  0.00    -0.313 A  
HETATM   16  C   UNL     1      -8.907  16.658  68.605  1.00  0.00    -0.249 A  
HETATM   17  C   UNL     1      -9.207  15.343  68.229  1.00  0.00    -0.188 A  
BRANCH  15  18
HETATM   18  C   UNL     1      -9.385  19.145  68.553  1.00  0.00    -0.426 C  
BRANCH  18  19
HETATM   19  C   UNL     1      -8.930  19.968  67.347  1.00  0.00    -0.347 C  
BRANCH  19  20
HETATM   20  O   UNL     1      -8.785  19.115  66.209  1.00  0.00    -0.320 OA 
BRANCH  20  21
HETATM   21  C   UNL     1      -7.411  19.013  65.831  1.00  0.00    -0.224 C  
BRANCH  21  22
HETATM   22  C   UNL     1      -6.556  19.463  66.971  1.00  0.00    -0.200 C  
HETATM   23  C   UNL     1      -5.160  19.966  66.694  1.00  0.00    -0.162 C  
HETATM   24  C   UNL     1      -6.222  20.921  67.164  1.00  0.00    -0.355 C  
ENDBRANCH  21  22
ENDBRANCH  20  21
ENDBRANCH  19  20
ENDBRANCH  18  19
ENDBRANCH  15  18
ENDBRANCH  11  12
ENDBRANCH  10  11
ENDBRANCH   7  10
ENDBRANCH   6   7
ENDBRANCH   4   6
ENDBRANCH   2   4
TORSDOF 11
ENDMDL
MODEL      333
REMARK 921   NORMALIZED FREE ENERGY PREDICTED BY IDOCK:   -1.86 KCAL/MOL
REMARK 922        TOTAL FREE ENERGY PREDICTED BY IDOCK:   -4.39 KCAL/MOL
REMARK 923 INTER-LIGAND FREE ENERGY PREDICTED BY IDOCK:   -3.91 KCAL/MOL
REMARK 924 INTRA-LIGAND FREE ENERGY PREDICTED BY IDOCK:   -0.48 KCAL/MOL
REMARK 927      BINDING AFFINITY PREDICTED BY RF-SCORE:    0.00 PKD
ROOT
HETATM    1  C   UNL     1      -6.573  19.274  72.155  1.00  0.00     1.634 C  
HETATM    2  C   UNL     1      -6.272  20.407  71.172  1.00  0.00    -0.058 C  
HETATM    3  C   UNL     1      -5.128  21.270  71.715  1.00  0.00     0.127 C  
ENDROOT
BRANCH   2   4
HETATM    4  N   UNL     1      -5.884  19.928  69.838  1.00  0.00    -0.271 NA 
HETATM    5  H   UNL     1      -5.017  20.376  69.542  1.00  0.00     0.000 HD 
BRANCH   4   6
HETATM    6  C   UNL     1      -5.769  18.469  69.710  1.00  0.00    -0.247 C  
BRANCH   6   7
HETATM    7  C   UNL     1      -6.624  17.801  68.616  1.00  0.00    -0.218 C  
HETATM    8  O   UNL     1      -5.744  17.262  67.616  1.00  0.00    -0.121 OA 
HETATM    9  H   UNL     1      -6.271  16.850  66.941  1.00  0.00     0.000 HD 
BRANCH   7  10
HETATM   10  C   UNL     1      -7.589  18.790  67.957  1.00  0.00    -0.261 C  
BRANCH  10  11
HETATM   11  O   UNL     1      -8.096  18.187  66.753  1.00  0.00    -0.230 OA 
BRANCH  11  12
HETATM   12  C   UNL     1      -8.960  17.138  66.928  1.00  0.00    -0.235 A  
HETATM   13  C   UNL     1     -10.145  17.181  67.662  1.00  0.00    -0.305 A  
HETATM   14  C   UNL     1     -10.926  16.031  67.808  1.00  0.00    -0.307 A  
HETATM   15  C   UNL     1     -10.552  14.826  67.202  1.00  0.00    -0.285 A  
HETATM   16  C   UNL     1      -9.375  14.795  66.443  1.00  0.00    -0.320 A  
HETATM   17  C   UNL     1      -8.588  15.944  66.307  1.00  0.00    -0.348 A  
BRANCH  15  18
HETATM   18  C   UNL     1     -11.385  13.580  67.396  1.00  0.00    -0.338 C  
BRANCH  18  19
HETATM   19  C   UNL     1     -11.515  13.177  68.865  1.00  0.00    -0.298 C  
BRANCH  19  20
HETATM   20  O   UNL     1     -10.746  11.996  69.110  1.00  0.00    -0.178 OA 
BRANCH  20  21
HETATM   21  C   UNL     1     -11.603  10.891  69.401  1.00  0.00    -0.316 C  
BRANCH  21  22
HETATM   22  C   UNL     1     -11.847  10.835  70.874  1.00  0.00    -0.400 C  
HETATM   23  C   UNL     1     -13.179  10.344  71.384  1.00  0.00    -0.459 C  
HETATM   24  C   UNL     1     -11.943   9.515  71.596  1.00  0.00    -0.474 C  
ENDBRANCH  21  22
ENDBRANCH  20  21
ENDBRANCH  19  20
ENDBRANCH  18  19
ENDBRANCH  15  18
ENDBRANCH  11  12
ENDBRANCH  10  11
ENDBRANCH   7  10
ENDBRANCH   6   7
ENDBRANCH   4   6
ENDBRANCH   2   4
TORSDOF 11
ENDMDL
MODEL      334
REMARK 921   NORMALIZED FREE ENERGY PREDICTED BY IDOCK:   -1.82 KCAL/MOL
REMARK 922        TOTAL FREE ENERGY PREDICTED BY IDOCK:   -4.33 KCAL/MOL
REMARK 923 INTER-LIGAND FREE ENERGY PREDICTED BY IDOCK:   -3.05 KCAL/MOL
REMARK 924 INTRA-LIGAND FREE ENERGY PREDICTED BY IDOCK:   -1.27 KCAL/MOL
REMARK 927      BINDING AFFINITY PREDICTED BY RF-SCORE:    0.00 PKD
ROOT
HETATM    1  C   UNL     1     -11.808  12.171  68.589  1.00  0.00    -0.358 C  
HETATM    2  C   UNL     1     -10.715  11.263  69.152  1.00  0.00    -0.207 C  
HETATM    3  C   UNL     1     -11.186   9.805  69.113  1.00  0.00    -0.101 C  
ENDROOT
BRANCH   2   4
HETATM    4  N   UNL     1      -9.450  11.349  68.409  1.00  0.00    -0.189 NA 
HETATM    5  H   UNL     1      -8.964  12.215  68.642  1.00  0.00     0.000 HD 
BRANCH   4   6
HETATM    6  C   UNL     1      -8.549  10.202  68.578  1.00  0.00    -0.118 C  
BRANCH   6   7
HETATM    7  C   UNL     1      -7.691   9.810  67.360  1.00  0.00    -0.095 C  
HETATM    8  O   UNL     1      -8.203  10.493  66.204  1.00  0.00    -0.139 OA 
HETATM    9  H   UNL     1      -7.674  10.251  65.452  1.00  0.00     0.000 HD 
BRANCH   7  10
HETATM   10  C   UNL     1      -7.714   8.300  67.104  1.00  0.00    -0.097 C  
BRANCH  10  11
HETATM   11  O   UNL     1      -8.622   7.700  68.044  1.00  0.00    -0.123 OA 
BRANCH  11  12
HETATM   12  C   UNL     1      -8.409   6.375  68.320  1.00  0.00    -0.116 A  
HETATM   13  C   UNL     1      -9.040   5.307  67.684  1.00  0.00    -0.113 A  
HETATM   14  C   UNL     1      -8.775   3.993  68.082  1.00  0.00    -0.120 A  
HETATM   15  C   UNL     1      -7.856   3.722  69.102  1.00  0.00    -0.052 A  
HETATM   16  C   UNL     1      -7.205   4.798  69.720  1.00  0.00    -0.055 A  
HETATM   17  C   UNL     1      -7.480   6.113  69.328  1.00  0.00    -0.089 A  
BRANCH  15  18
HETATM   18  C   UNL     1      -7.603   2.301  69.549  1.00  0.00    -0.043 C  
BRANCH  18  19
HETATM   19  C   UNL     1      -8.252   1.979  70.896  1.00  0.00    -0.049 C  
BRANCH  19  20
HETATM   20  O   UNL     1      -9.575   2.519  70.935  1.00  0.00    -0.147 OA 
BRANCH  20  21
HETATM   21  C   UNL     1      -9.763   3.297  72.118  1.00  0.00    -0.159 C  
BRANCH  21  22
HETATM   22  C   UNL     1     -10.530   4.532  71.774  1.00  0.00    -0.114 C  
HETATM   23  C   UNL     1     -11.231   5.297  72.870  1.00  0.00    -0.375 C  
HETATM   24  C   UNL     1     -10.033   5.895  72.188  1.00  0.00    -0.196 C  
ENDBRANCH  21  22
ENDBRANCH  20  21
ENDBRANCH  19  20
ENDBRANCH  18  19
ENDBRANCH  15  18
ENDBRANCH  11  12
ENDBRANCH  10  11
ENDBRANCH   7  10
ENDBRANCH   6   7
ENDBRANCH   4   6
ENDBRANCH   2   4
TORSDOF 11
ENDMDL
MODEL      335
REMARK 921   NORMALIZED FREE ENERGY PREDICTED BY IDOCK:   -1.79 KCAL/MOL
REMARK 922        TOTAL FREE ENERGY PREDICTED BY IDOCK:   -4.28 KCAL/MOL
REMARK 923 INTER-LIGAND FREE ENERGY PREDICTED BY IDOCK:   -3.43 KCAL/MOL
REMARK 924 INTRA-LIGAND FREE ENERGY PREDICTED BY IDOCK:   -0.85 KCAL/MOL
REMARK 927      BINDING AFFINITY PREDICTED BY RF-SCORE:    0.00 PKD
ROOT
HETATM    1  C   UNL     1     -10.428   7.687  72.153  1.00  0.00    -0.270 C  
HETATM    2  C   UNL     1     -10.226   6.254  71.658  1.00  0.00    -0.194 C  
HETATM    3  C   UNL     1     -10.604   6.164  70.175  1.00  0.00    -0.321 C  
ENDROOT
BRANCH   2   4
HETATM    4  N   UNL     1      -8.842   5.782  71.802  1.00  0.00    -0.136 NA 
HETATM    5  H   UNL     1      -8.701   5.385  72.731  1.00  0.00     0.000 HD 
BRANCH   4   6
HETATM    6  C   UNL     1      -8.398   4.833  70.772  1.00  0.00    -0.094 C  
BRANCH   6   7
HETATM    7  C   UNL     1      -6.897   4.842  70.423  1.00  0.00    -0.037 C  
HETATM    8  O   UNL     1      -6.222   3.921  71.295  1.00  0.00    -0.014 OA 
HETATM    9  H   UNL     1      -5.296   3.926  71.080  1.00  0.00     0.000 HD 
BRANCH   7  10
HETATM   10  C   UNL     1      -6.279   6.234  70.584  1.00  0.00    -0.039 C  
BRANCH  10  11
HETATM   11  O   UNL     1      -6.235   6.856  69.287  1.00  0.00    -0.028 OA 
BRANCH  11  12
HETATM   12  C   UNL     1      -7.032   7.958  69.125  1.00  0.00    -0.057 A  
HETATM   13  C   UNL     1      -7.291   8.917  70.104  1.00  0.00    -0.059 A  
HETATM   14  C   UNL     1      -8.160   9.979  69.836  1.00  0.00    -0.180 A  
HETATM   15  C   UNL     1      -8.763  10.118  68.580  1.00  0.00    -0.123 A  
HETATM   16  C   UNL     1      -8.477   9.166  67.593  1.00  0.00    -0.116 A  
HETATM   17  C   UNL     1      -7.616   8.097  67.865  1.00  0.00    -0.102 A  
BRANCH  15  18
HETATM   18  C   UNL     1      -9.727  11.249  68.313  1.00  0.00    -0.199 C  
BRANCH  18  19
HETATM   19  C   UNL     1      -9.141  12.621  68.650  1.00  0.00     0.045 C  
BRANCH  19  20
HETATM   20  O   UNL     1      -9.429  13.540  67.593  1.00  0.00    -0.208 OA 
BRANCH  20  21
HETATM   21  C   UNL     1     -10.743  13.318  67.081  1.00  0.00    -0.259 C  
BRANCH  21  22
HETATM   22  C   UNL     1     -10.642  12.672  65.737  1.00  0.00    -0.296 C  
HETATM   23  C   UNL     1     -11.883  12.100  65.097  1.00  0.00    -0.356 C  
HETATM   24  C   UNL     1     -11.236  13.325  64.514  1.00  0.00    -0.387 C  
ENDBRANCH  21  22
ENDBRANCH  20  21
ENDBRANCH  19  20
ENDBRANCH  18  19
ENDBRANCH  15  18
ENDBRANCH  11  12
ENDBRANCH  10  11
ENDBRANCH   7  10
ENDBRANCH   6   7
ENDBRANCH   4   6
ENDBRANCH   2   4
TORSDOF 11
ENDMDL
MODEL      336
REMARK 921   NORMALIZED FREE ENERGY PREDICTED BY IDOCK:   -0.88 KCAL/MOL
REMARK 922        TOTAL FREE ENERGY PREDICTED BY IDOCK:   -2.78 KCAL/MOL
REMARK 923 INTER-LIGAND FREE ENERGY PREDICTED BY IDOCK:   -1.99 KCAL/MOL
REMARK 924 INTRA-LIGAND FREE ENERGY PREDICTED BY IDOCK:   -0.80 KCAL/MOL
REMARK 927      BINDING AFFINITY PREDICTED BY RF-SCORE:    0.00 PKD
ROOT
HETATM    1  C   UNL     1      -9.006  11.185  66.146  1.00  0.00    -0.205 C  
HETATM    2  C   UNL     1      -8.505  10.127  67.130  1.00  0.00    -0.125 C  
HETATM    3  C   UNL     1      -9.690   9.307  67.652  1.00  0.00    -0.195 C  
ENDROOT
BRANCH   2   4
HETATM    4  N   UNL     1      -7.537   9.195  66.535  1.00  0.00    -0.092 NA 
HETATM    5  H   UNL     1      -7.536   8.314  67.048  1.00  0.00     0.000 HD 
BRANCH   4   6
HETATM    6  C   UNL     1      -7.717   8.944  65.099  1.00  0.00    -0.102 C  
BRANCH   6   7
HETATM    7  C   UNL     1      -6.510   9.242  64.188  1.00  0.00    -0.090 C  
HETATM    8  O   UNL     1      -6.267  10.658  64.202  1.00  0.00    -0.354 OA 
HETATM    9  H   UNL     1      -5.523  10.842  63.640  1.00  0.00     0.000 HD 
BRANCH   7  10
HETATM   10  C   UNL     1      -6.754   8.787  62.745  1.00  0.00    -0.090 C  
BRANCH  10  11
HETATM   11  O   UNL     1      -5.832   7.723  62.450  1.00  0.00    -0.065 OA 
BRANCH  11  12
HETATM   12  C   UNL     1      -5.990   6.574  63.179  1.00  0.00    -0.030 A  
HETATM   13  C   UNL     1      -5.314   6.267  64.359  1.00  0.00    -0.018 A  
HETATM   14  C   UNL     1      -5.526   5.040  64.994  1.00  0.00    -0.013 A  
HETATM   15  C   UNL     1      -6.436   4.110  64.478  1.00  0.00    -0.042 A  
HETATM   16  C   UNL     1      -7.133   4.435  63.307  1.00  0.00    -0.044 A  
HETATM   17  C   UNL     1      -6.912   5.659  62.666  1.00  0.00    -0.040 A  
BRANCH  15  18
HETATM   18  C   UNL     1      -6.631   2.773  65.152  1.00  0.00    -0.035 C  
BRANCH  18  19
HETATM   19  C   UNL     1      -5.516   2.441  66.145  1.00  0.00    -0.016 C  
BRANCH  19  20
HETATM   20  O   UNL     1      -5.796   3.053  67.407  1.00  0.00    -0.021 OA 
BRANCH  20  21
HETATM   21  C   UNL     1      -6.976   2.493  67.985  1.00  0.00    -0.048 C  
BRANCH  21  22
HETATM   22  C   UNL     1      -7.801   3.591  68.573  1.00  0.00    -0.055 C  
HETATM   23  C   UNL     1      -8.044   4.845  67.771  1.00  0.00    -0.094 C  
HETATM   24  C   UNL     1      -9.179   3.897  68.042  1.00  0.00    -0.212 C  
ENDBRANCH  21  22
ENDBRANCH  20  21
ENDBRANCH  19  20
ENDBRANCH  18  19
ENDBRANCH  15  18
ENDBRANCH  11  12
ENDBRANCH  10  11
ENDBRANCH   7  10
ENDBRANCH   6   7
ENDBRANCH   4   6
ENDBRANCH   2   4
TORSDOF 11
ENDMDL
