MODEL        1
REMARK 921   NORMALIZED FREE ENERGY PREDICTED BY IDOCK:   -3.89 KCAL/MOL
REMARK 922        TOTAL FREE ENERGY PREDICTED BY IDOCK:   -4.93 KCAL/MOL
REMARK 923 INTER-LIGAND FREE ENERGY PREDICTED BY IDOCK:   -4.57 KCAL/MOL
REMARK 924 INTRA-LIGAND FREE ENERGY PREDICTED BY IDOCK:   -0.36 KCAL/MOL
REMARK 927      BINDING AFFINITY PREDICTED BY RF-SCORE:    0.00 PKD
ROOT
HETATM    1  C   UNL     1      -9.497  13.112  66.833  1.00  0.00    -0.244 C  
HETATM    2  N   UNL     1     -10.820  13.611  67.394  1.00  0.00    -0.270 N  
HETATM    3  C   UNL     1     -10.567  14.071  68.825  1.00  0.00    -0.251 C  
HETATM    4  C   UNL     1     -11.835  12.490  67.402  1.00  0.00    -0.312 C  
ENDROOT
BRANCH   2   5
HETATM    5  C   UNL     1     -11.347  14.852  66.614  1.00  0.00    -0.326 C  
BRANCH   5   6
HETATM    6  C   UNL     1     -11.103  14.930  65.081  1.00  0.00    -0.393 C  
HETATM    7  H   UNL     1     -10.565  16.312  63.760  1.00  0.00     0.000 HD 
HETATM    8  O   UNL     1     -10.714  16.264  64.697  1.00  0.00    -0.670 OA 
BRANCH   6   9
HETATM    9  C   UNL     1     -12.208  14.456  64.146  1.00  0.00    -0.393 C  
HETATM   10  C   UNL     1     -12.014  12.986  63.827  1.00  0.00    -0.518 C  
HETATM   11  O   UNL     1     -10.828  12.651  63.575  1.00  0.00    -0.429 OA 
HETATM   12  O   UNL     1     -13.043  12.280  63.994  1.00  0.00    -0.764 OA 
ENDBRANCH   6   9
ENDBRANCH   5   6
ENDBRANCH   2   5
TORSDOF 3
ENDMDL
MODEL        2
REMARK 921   NORMALIZED FREE ENERGY PREDICTED BY IDOCK:   -3.83 KCAL/MOL
REMARK 922        TOTAL FREE ENERGY PREDICTED BY IDOCK:   -4.86 KCAL/MOL
REMARK 923 INTER-LIGAND FREE ENERGY PREDICTED BY IDOCK:   -4.58 KCAL/MOL
REMARK 924 INTRA-LIGAND FREE ENERGY PREDICTED BY IDOCK:   -0.28 KCAL/MOL
REMARK 927      BINDING AFFINITY PREDICTED BY RF-SCORE:    0.00 PKD
ROOT
HETATM    1  C   UNL     1     -11.184  12.270  66.053  1.00  0.00    -0.332 C  
HETATM    2  N   UNL     1     -11.681  13.351  65.106  1.00  0.00    -0.311 N  
HETATM    3  C   UNL     1     -12.839  14.065  65.793  1.00  0.00    -0.377 C  
HETATM    4  C   UNL     1     -12.174  12.726  63.819  1.00  0.00    -0.489 C  
ENDROOT
BRANCH   2   5
HETATM    5  C   UNL     1     -10.591  14.430  64.835  1.00  0.00    -0.434 C  
BRANCH   5   6
HETATM    6  C   UNL     1     -10.861  15.894  65.279  1.00  0.00    -0.387 C  
HETATM    7  H   UNL     1     -11.333  17.617  64.411  1.00  0.00     0.000 HD 
HETATM    8  O   UNL     1     -11.167  16.722  64.139  1.00  0.00    -1.155 OA 
BRANCH   6   9
HETATM    9  C   UNL     1      -9.812  16.600  66.128  1.00  0.00    -0.340 C  
HETATM   10  C   UNL     1      -9.992  16.225  67.585  1.00  0.00    -0.247 C  
HETATM   11  O   UNL     1     -11.185  16.218  67.987  1.00  0.00    -0.334 OA 
HETATM   12  O   UNL     1      -8.938  15.838  68.155  1.00  0.00    -0.177 OA 
ENDBRANCH   6   9
ENDBRANCH   5   6
ENDBRANCH   2   5
TORSDOF 3
ENDMDL
MODEL        3
REMARK 921   NORMALIZED FREE ENERGY PREDICTED BY IDOCK:   -3.83 KCAL/MOL
REMARK 922        TOTAL FREE ENERGY PREDICTED BY IDOCK:   -4.86 KCAL/MOL
REMARK 923 INTER-LIGAND FREE ENERGY PREDICTED BY IDOCK:   -4.57 KCAL/MOL
REMARK 924 INTRA-LIGAND FREE ENERGY PREDICTED BY IDOCK:   -0.29 KCAL/MOL
REMARK 927      BINDING AFFINITY PREDICTED BY RF-SCORE:    0.00 PKD
ROOT
HETATM    1  C   UNL     1     -12.879  13.759  65.446  1.00  0.00    -0.410 C  
HETATM    2  N   UNL     1     -11.542  13.269  64.911  1.00  0.00    -0.314 N  
HETATM    3  C   UNL     1     -11.802  12.616  63.558  1.00  0.00    -0.541 C  
HETATM    4  C   UNL     1     -10.950  12.244  65.854  1.00  0.00    -0.302 C  
ENDROOT
BRANCH   2   5
HETATM    5  C   UNL     1     -10.554  14.445  64.655  1.00  0.00    -0.306 C  
BRANCH   5   6
HETATM    6  C   UNL     1     -10.927  15.860  65.179  1.00  0.00    -0.377 C  
HETATM    7  H   UNL     1     -11.519  17.591  64.405  1.00  0.00     0.000 HD 
HETATM    8  O   UNL     1     -11.291  16.726  64.085  1.00  0.00    -1.194 OA 
BRANCH   6   9
HETATM    9  C   UNL     1      -9.929  16.591  66.068  1.00  0.00    -0.359 C  
HETATM   10  C   UNL     1     -10.045  16.086  67.493  1.00  0.00    -0.247 C  
HETATM   11  O   UNL     1     -11.224  15.937  67.908  1.00  0.00    -0.343 OA 
HETATM   12  O   UNL     1      -8.949  15.753  68.016  1.00  0.00    -0.177 OA 
ENDBRANCH   6   9
ENDBRANCH   5   6
ENDBRANCH   2   5
TORSDOF 3
ENDMDL
MODEL        4
REMARK 921   NORMALIZED FREE ENERGY PREDICTED BY IDOCK:   -3.82 KCAL/MOL
REMARK 922        TOTAL FREE ENERGY PREDICTED BY IDOCK:   -4.85 KCAL/MOL
REMARK 923 INTER-LIGAND FREE ENERGY PREDICTED BY IDOCK:   -4.59 KCAL/MOL
REMARK 924 INTRA-LIGAND FREE ENERGY PREDICTED BY IDOCK:   -0.26 KCAL/MOL
REMARK 927      BINDING AFFINITY PREDICTED BY RF-SCORE:    0.00 PKD
ROOT
HETATM    1  C   UNL     1     -11.980  12.957  63.762  1.00  0.00    -0.512 C  
HETATM    2  N   UNL     1     -11.405  13.487  65.067  1.00  0.00    -0.312 N  
HETATM    3  C   UNL     1     -10.558  12.378  65.679  1.00  0.00    -0.265 C  
HETATM    4  C   UNL     1     -12.525  13.843  66.020  1.00  0.00    -0.461 C  
ENDROOT
BRANCH   2   5
HETATM    5  C   UNL     1     -10.452  14.696  64.830  1.00  0.00    -0.387 C  
BRANCH   5   6
HETATM    6  C   UNL     1     -10.899  16.105  65.309  1.00  0.00    -0.336 C  
HETATM    7  H   UNL     1     -11.589  17.775  64.483  1.00  0.00     0.000 HD 
HETATM    8  O   UNL     1     -11.315  16.913  64.190  1.00  0.00    -1.208 OA 
BRANCH   6   9
HETATM    9  C   UNL     1      -9.939  16.918  66.168  1.00  0.00    -0.332 C  
HETATM   10  C   UNL     1     -10.083  16.514  67.622  1.00  0.00    -0.266 C  
HETATM   11  O   UNL     1     -11.269  16.371  68.017  1.00  0.00    -0.325 OA 
HETATM   12  O   UNL     1      -8.995  16.242  68.195  1.00  0.00    -0.183 OA 
ENDBRANCH   6   9
ENDBRANCH   5   6
ENDBRANCH   2   5
TORSDOF 3
ENDMDL
MODEL        5
REMARK 921   NORMALIZED FREE ENERGY PREDICTED BY IDOCK:   -3.74 KCAL/MOL
REMARK 922        TOTAL FREE ENERGY PREDICTED BY IDOCK:   -4.75 KCAL/MOL
REMARK 923 INTER-LIGAND FREE ENERGY PREDICTED BY IDOCK:   -4.41 KCAL/MOL
REMARK 924 INTRA-LIGAND FREE ENERGY PREDICTED BY IDOCK:   -0.35 KCAL/MOL
REMARK 927      BINDING AFFINITY PREDICTED BY RF-SCORE:    0.00 PKD
ROOT
HETATM    1  C   UNL     1      -9.641  14.513  66.239  1.00  0.00    -0.304 C  
HETATM    2  N   UNL     1     -10.936  14.099  66.922  1.00  0.00    -0.296 N  
HETATM    3  C   UNL     1     -11.277  15.174  67.947  1.00  0.00    -0.329 C  
HETATM    4  C   UNL     1     -10.748  12.776  67.630  1.00  0.00    -0.219 C  
ENDROOT
BRANCH   2   5
HETATM    5  C   UNL     1     -12.127  14.046  65.920  1.00  0.00    -0.428 C  
BRANCH   5   6
HETATM    6  C   UNL     1     -11.841  13.669  64.439  1.00  0.00    -0.424 C  
HETATM    7  H   UNL     1     -12.473  14.235  62.643  1.00  0.00     0.000 HD 
HETATM    8  O   UNL     1     -12.648  14.465  63.549  1.00  0.00    -0.784 OA 
BRANCH   6   9
HETATM    9  C   UNL     1     -11.957  12.207  64.027  1.00  0.00    -0.533 C  
HETATM   10  C   UNL     1     -10.574  11.609  63.862  1.00  0.00    -0.391 C  
HETATM   11  O   UNL     1      -9.749  12.340  63.256  1.00  0.00    -0.353 OA 
HETATM   12  O   UNL     1     -10.403  10.522  64.475  1.00  0.00    -0.348 OA 
ENDBRANCH   6   9
ENDBRANCH   5   6
ENDBRANCH   2   5
TORSDOF 3
ENDMDL
MODEL        6
REMARK 921   NORMALIZED FREE ENERGY PREDICTED BY IDOCK:   -3.73 KCAL/MOL
REMARK 922        TOTAL FREE ENERGY PREDICTED BY IDOCK:   -4.75 KCAL/MOL
REMARK 923 INTER-LIGAND FREE ENERGY PREDICTED BY IDOCK:   -4.47 KCAL/MOL
REMARK 924 INTRA-LIGAND FREE ENERGY PREDICTED BY IDOCK:   -0.27 KCAL/MOL
REMARK 927      BINDING AFFINITY PREDICTED BY RF-SCORE:    0.00 PKD
ROOT
HETATM    1  C   UNL     1     -10.806  13.265  68.124  1.00  0.00    -0.251 C  
HETATM    2  N   UNL     1     -11.022  14.385  67.117  1.00  0.00    -0.296 N  
HETATM    3  C   UNL     1      -9.769  14.472  66.253  1.00  0.00    -0.309 C  
HETATM    4  C   UNL     1     -11.221  15.699  67.839  1.00  0.00    -0.328 C  
ENDROOT
BRANCH   2   5
HETATM    5  C   UNL     1     -12.206  14.078  66.155  1.00  0.00    -0.465 C  
BRANCH   5   6
HETATM    6  C   UNL     1     -11.894  13.714  64.676  1.00  0.00    -0.397 C  
HETATM    7  H   UNL     1     -12.458  14.327  62.874  1.00  0.00     0.000 HD 
HETATM    8  O   UNL     1     -12.650  14.549  63.777  1.00  0.00    -0.825 OA 
BRANCH   6   9
HETATM    9  C   UNL     1     -12.046  12.262  64.239  1.00  0.00    -0.499 C  
HETATM   10  C   UNL     1     -10.687  11.682  63.901  1.00  0.00    -0.398 C  
HETATM   11  O   UNL     1      -9.942  12.438  63.226  1.00  0.00    -0.392 OA 
HETATM   12  O   UNL     1     -10.440  10.581  64.459  1.00  0.00    -0.310 OA 
ENDBRANCH   6   9
ENDBRANCH   5   6
ENDBRANCH   2   5
TORSDOF 3
ENDMDL
MODEL        7
REMARK 921   NORMALIZED FREE ENERGY PREDICTED BY IDOCK:   -3.71 KCAL/MOL
REMARK 922        TOTAL FREE ENERGY PREDICTED BY IDOCK:   -4.73 KCAL/MOL
REMARK 923 INTER-LIGAND FREE ENERGY PREDICTED BY IDOCK:   -4.61 KCAL/MOL
REMARK 924 INTRA-LIGAND FREE ENERGY PREDICTED BY IDOCK:   -0.12 KCAL/MOL
REMARK 927      BINDING AFFINITY PREDICTED BY RF-SCORE:    0.00 PKD
ROOT
HETATM    1  C   UNL     1     -10.226  17.327  67.444  1.00  0.00    -0.325 C  
HETATM    2  N   UNL     1     -10.038  15.884  67.002  1.00  0.00    -0.262 N  
HETATM    3  C   UNL     1      -9.863  15.039  68.258  1.00  0.00    -0.219 C  
HETATM    4  C   UNL     1      -8.798  15.763  66.144  1.00  0.00    -0.311 C  
ENDROOT
BRANCH   2   5
HETATM    5  C   UNL     1     -11.296  15.335  66.267  1.00  0.00    -0.155 C  
BRANCH   5   6
HETATM    6  C   UNL     1     -11.307  15.321  64.713  1.00  0.00    -0.391 C  
HETATM    7  H   UNL     1     -11.326  16.658  63.244  1.00  0.00     0.000 HD 
HETATM    8  O   UNL     1     -11.319  16.666  64.194  1.00  0.00    -1.141 OA 
BRANCH   6   9
HETATM    9  C   UNL     1     -12.386  14.514  64.002  1.00  0.00    -0.207 C  
HETATM   10  C   UNL     1     -12.042  13.038  64.056  1.00  0.00    -0.450 C  
HETATM   11  O   UNL     1     -10.836  12.766  63.824  1.00  0.00    -0.407 OA 
HETATM   12  O   UNL     1     -12.980  12.303  64.463  1.00  0.00    -0.738 OA 
ENDBRANCH   6   9
ENDBRANCH   5   6
ENDBRANCH   2   5
TORSDOF 3
ENDMDL
MODEL        8
REMARK 921   NORMALIZED FREE ENERGY PREDICTED BY IDOCK:   -3.65 KCAL/MOL
REMARK 922        TOTAL FREE ENERGY PREDICTED BY IDOCK:   -4.65 KCAL/MOL
REMARK 923 INTER-LIGAND FREE ENERGY PREDICTED BY IDOCK:   -4.45 KCAL/MOL
REMARK 924 INTRA-LIGAND FREE ENERGY PREDICTED BY IDOCK:   -0.20 KCAL/MOL
REMARK 927      BINDING AFFINITY PREDICTED BY RF-SCORE:    0.00 PKD
ROOT
HETATM    1  C   UNL     1      -9.787  13.403  68.295  1.00  0.00    -0.235 C  
HETATM    2  N   UNL     1     -10.304  13.504  66.868  1.00  0.00    -0.263 N  
HETATM    3  C   UNL     1      -9.809  14.826  66.294  1.00  0.00    -0.296 C  
HETATM    4  C   UNL     1     -11.817  13.493  66.864  1.00  0.00    -0.407 C  
ENDROOT
BRANCH   2   5
HETATM    5  C   UNL     1      -9.723  12.379  65.961  1.00  0.00    -0.244 C  
BRANCH   5   6
HETATM    6  C   UNL     1     -10.673  11.655  64.968  1.00  0.00    -0.296 C  
HETATM    7  H   UNL     1     -10.854   9.837  64.186  1.00  0.00     0.000 HD 
HETATM    8  O   UNL     1     -10.273  10.281  64.794  1.00  0.00    -0.329 OA 
BRANCH   6   9
HETATM    9  C   UNL     1     -10.897  12.276  63.595  1.00  0.00    -0.522 C  
HETATM   10  C   UNL     1     -12.325  12.771  63.482  1.00  0.00    -0.467 C  
HETATM   11  O   UNL     1     -13.197  11.985  63.936  1.00  0.00    -0.705 OA 
HETATM   12  O   UNL     1     -12.431  13.960  63.079  1.00  0.00    -0.689 OA 
ENDBRANCH   6   9
ENDBRANCH   5   6
ENDBRANCH   2   5
TORSDOF 3
ENDMDL
MODEL        9
REMARK 921   NORMALIZED FREE ENERGY PREDICTED BY IDOCK:   -3.62 KCAL/MOL
REMARK 922        TOTAL FREE ENERGY PREDICTED BY IDOCK:   -4.62 KCAL/MOL
REMARK 923 INTER-LIGAND FREE ENERGY PREDICTED BY IDOCK:   -4.24 KCAL/MOL
REMARK 924 INTRA-LIGAND FREE ENERGY PREDICTED BY IDOCK:   -0.38 KCAL/MOL
REMARK 927      BINDING AFFINITY PREDICTED BY RF-SCORE:    0.00 PKD
ROOT
HETATM    1  C   UNL     1      -9.201  12.932  66.931  1.00  0.00    -0.234 C  
HETATM    2  N   UNL     1     -10.358  12.516  66.034  1.00  0.00    -0.251 N  
HETATM    3  C   UNL     1     -11.643  12.692  66.834  1.00  0.00    -0.373 C  
HETATM    4  C   UNL     1     -10.211  11.063  65.640  1.00  0.00    -0.260 C  
ENDROOT
BRANCH   2   5
HETATM    5  C   UNL     1     -10.481  13.436  64.784  1.00  0.00    -0.403 C  
BRANCH   5   6
HETATM    6  C   UNL     1     -11.442  14.656  64.846  1.00  0.00    -0.401 C  
HETATM    7  H   UNL     1     -13.098  15.254  63.927  1.00  0.00     0.000 HD 
HETATM    8  O   UNL     1     -12.510  14.508  63.889  1.00  0.00    -0.814 OA 
BRANCH   6   9
HETATM    9  C   UNL     1     -10.851  16.053  64.706  1.00  0.00    -0.315 C  
HETATM   10  C   UNL     1     -10.135  16.438  65.985  1.00  0.00    -0.353 C  
HETATM   11  O   UNL     1     -10.749  16.149  67.044  1.00  0.00    -0.313 OA 
HETATM   12  O   UNL     1      -8.963  16.867  65.814  1.00  0.00    -0.524 OA 
ENDBRANCH   6   9
ENDBRANCH   5   6
ENDBRANCH   2   5
TORSDOF 3
ENDMDL
MODEL       10
REMARK 921   NORMALIZED FREE ENERGY PREDICTED BY IDOCK:   -3.59 KCAL/MOL
REMARK 922        TOTAL FREE ENERGY PREDICTED BY IDOCK:   -4.58 KCAL/MOL
REMARK 923 INTER-LIGAND FREE ENERGY PREDICTED BY IDOCK:   -4.65 KCAL/MOL
REMARK 924 INTRA-LIGAND FREE ENERGY PREDICTED BY IDOCK:    0.07 KCAL/MOL
REMARK 927      BINDING AFFINITY PREDICTED BY RF-SCORE:    0.00 PKD
ROOT
HETATM    1  C   UNL     1     -11.454  11.322  68.919  1.00  0.00    -0.297 C  
HETATM    2  N   UNL     1     -11.200  12.467  67.950  1.00  0.00    -0.247 N  
HETATM    3  C   UNL     1      -9.720  12.822  68.039  1.00  0.00    -0.220 C  
HETATM    4  C   UNL     1     -12.026  13.672  68.342  1.00  0.00    -0.356 C  
ENDROOT
BRANCH   2   5
HETATM    5  C   UNL     1     -11.469  12.047  66.475  1.00  0.00    -0.349 C  
BRANCH   5   6
HETATM    6  C   UNL     1     -12.048  13.101  65.491  1.00  0.00    -0.442 C  
HETATM    7  H   UNL     1     -13.417  13.156  64.053  1.00  0.00     0.000 HD 
HETATM    8  O   UNL     1     -13.063  12.511  64.655  1.00  0.00    -0.845 OA 
BRANCH   6   9
HETATM    9  C   UNL     1     -11.080  13.879  64.609  1.00  0.00    -0.389 C  
HETATM   10  C   UNL     1     -11.630  15.266  64.342  1.00  0.00    -0.263 C  
HETATM   11  O   UNL     1     -12.857  15.306  64.068  1.00  0.00    -0.613 OA 
HETATM   12  O   UNL     1     -10.814  16.199  64.567  1.00  0.00    -0.628 OA 
ENDBRANCH   6   9
ENDBRANCH   5   6
ENDBRANCH   2   5
TORSDOF 3
ENDMDL
MODEL       11
REMARK 921   NORMALIZED FREE ENERGY PREDICTED BY IDOCK:   -3.57 KCAL/MOL
REMARK 922        TOTAL FREE ENERGY PREDICTED BY IDOCK:   -4.55 KCAL/MOL
REMARK 923 INTER-LIGAND FREE ENERGY PREDICTED BY IDOCK:   -4.89 KCAL/MOL
REMARK 924 INTRA-LIGAND FREE ENERGY PREDICTED BY IDOCK:    0.33 KCAL/MOL
REMARK 927      BINDING AFFINITY PREDICTED BY RF-SCORE:    0.00 PKD
ROOT
HETATM    1  C   UNL     1      -9.120  16.129  68.594  1.00  0.00    -0.218 C  
HETATM    2  N   UNL     1      -9.709  16.896  67.421  1.00  0.00    -0.243 N  
HETATM    3  C   UNL     1      -8.582  17.147  66.426  1.00  0.00    -0.265 C  
HETATM    4  C   UNL     1     -10.261  18.223  67.894  1.00  0.00    -0.384 C  
ENDROOT
BRANCH   2   5
HETATM    5  C   UNL     1     -10.790  16.064  66.669  1.00  0.00    -0.179 C  
BRANCH   5   6
HETATM    6  C   UNL     1     -10.584  15.763  65.159  1.00  0.00    -0.411 C  
HETATM    7  H   UNL     1     -11.259  16.465  63.428  1.00  0.00     0.000 HD 
HETATM    8  O   UNL     1     -11.385  16.649  64.352  1.00  0.00    -1.023 OA 
BRANCH   6   9
HETATM    9  C   UNL     1     -10.792  14.335  64.669  1.00  0.00    -0.384 C  
HETATM   10  C   UNL     1     -12.255  14.111  64.345  1.00  0.00    -0.439 C  
HETATM   11  O   UNL     1     -13.063  14.580  65.188  1.00  0.00    -0.538 OA 
HETATM   12  O   UNL     1     -12.463  13.609  63.209  1.00  0.00    -0.801 OA 
ENDBRANCH   6   9
ENDBRANCH   5   6
ENDBRANCH   2   5
TORSDOF 3
ENDMDL
MODEL       12
REMARK 921   NORMALIZED FREE ENERGY PREDICTED BY IDOCK:   -3.56 KCAL/MOL
REMARK 922        TOTAL FREE ENERGY PREDICTED BY IDOCK:   -4.55 KCAL/MOL
REMARK 923 INTER-LIGAND FREE ENERGY PREDICTED BY IDOCK:   -4.33 KCAL/MOL
REMARK 924 INTRA-LIGAND FREE ENERGY PREDICTED BY IDOCK:   -0.22 KCAL/MOL
REMARK 927      BINDING AFFINITY PREDICTED BY RF-SCORE:    0.00 PKD
ROOT
HETATM    1  C   UNL     1      -9.356  15.632  69.501  1.00  0.00    -0.263 C  
HETATM    2  N   UNL     1     -10.334  15.682  68.337  1.00  0.00    -0.228 N  
HETATM    3  C   UNL     1     -10.637  17.150  68.058  1.00  0.00    -0.374 C  
HETATM    4  C   UNL     1     -11.616  14.970  68.707  1.00  0.00    -0.335 C  
ENDROOT
BRANCH   2   5
HETATM    5  C   UNL     1      -9.713  15.099  67.034  1.00  0.00    -0.231 C  
BRANCH   5   6
HETATM    6  C   UNL     1     -10.521  14.042  66.230  1.00  0.00    -0.286 C  
HETATM    7  H   UNL     1     -10.422  12.089  65.881  1.00  0.00     0.000 HD 
HETATM    8  O   UNL     1      -9.928  12.736  66.373  1.00  0.00    -0.252 OA 
BRANCH   6   9
HETATM    9  C   UNL     1     -10.783  14.301  64.751  1.00  0.00    -0.435 C  
HETATM   10  C   UNL     1     -12.253  14.600  64.535  1.00  0.00    -0.456 C  
HETATM   11  O   UNL     1     -13.044  13.851  65.164  1.00  0.00    -0.773 OA 
HETATM   12  O   UNL     1     -12.476  15.644  63.867  1.00  0.00    -0.693 OA 
ENDBRANCH   6   9
ENDBRANCH   5   6
ENDBRANCH   2   5
TORSDOF 3
ENDMDL
MODEL       13
REMARK 921   NORMALIZED FREE ENERGY PREDICTED BY IDOCK:   -3.54 KCAL/MOL
REMARK 922        TOTAL FREE ENERGY PREDICTED BY IDOCK:   -4.52 KCAL/MOL
REMARK 923 INTER-LIGAND FREE ENERGY PREDICTED BY IDOCK:   -4.23 KCAL/MOL
REMARK 924 INTRA-LIGAND FREE ENERGY PREDICTED BY IDOCK:   -0.29 KCAL/MOL
REMARK 927      BINDING AFFINITY PREDICTED BY RF-SCORE:    0.00 PKD
ROOT
HETATM    1  C   UNL     1      -9.066  12.161  66.546  1.00  0.00    -0.199 C  
HETATM    2  N   UNL     1     -10.316  11.348  66.249  1.00  0.00    -0.235 N  
HETATM    3  C   UNL     1     -10.141   9.983  66.906  1.00  0.00    -0.229 C  
HETATM    4  C   UNL     1     -10.472  11.165  64.755  1.00  0.00    -0.323 C  
ENDROOT
BRANCH   2   5
HETATM    5  C   UNL     1     -11.587  11.988  66.881  1.00  0.00    -0.318 C  
BRANCH   5   6
HETATM    6  C   UNL     1     -11.829  13.511  66.693  1.00  0.00    -0.407 C  
HETATM    7  H   UNL     1     -12.281  15.068  67.840  1.00  0.00     0.000 HD 
HETATM    8  O   UNL     1     -12.133  14.136  67.956  1.00  0.00    -0.351 OA 
BRANCH   6   9
HETATM    9  C   UNL     1     -12.861  13.959  65.665  1.00  0.00    -0.467 C  
HETATM   10  C   UNL     1     -12.160  14.425  64.404  1.00  0.00    -0.470 C  
HETATM   11  O   UNL     1     -11.149  15.148  64.596  1.00  0.00    -0.375 OA 
HETATM   12  O   UNL     1     -12.605  13.910  63.344  1.00  0.00    -0.853 OA 
ENDBRANCH   6   9
ENDBRANCH   5   6
ENDBRANCH   2   5
TORSDOF 3
ENDMDL
MODEL       14
REMARK 921   NORMALIZED FREE ENERGY PREDICTED BY IDOCK:   -3.50 KCAL/MOL
REMARK 922        TOTAL FREE ENERGY PREDICTED BY IDOCK:   -4.48 KCAL/MOL
REMARK 923 INTER-LIGAND FREE ENERGY PREDICTED BY IDOCK:   -4.19 KCAL/MOL
REMARK 924 INTRA-LIGAND FREE ENERGY PREDICTED BY IDOCK:   -0.28 KCAL/MOL
REMARK 927      BINDING AFFINITY PREDICTED BY RF-SCORE:    0.00 PKD
ROOT
HETATM    1  C   UNL     1      -9.103  15.109  69.044  1.00  0.00    -0.218 C  
HETATM    2  N   UNL     1     -10.401  14.744  68.341  1.00  0.00    -0.228 N  
HETATM    3  C   UNL     1     -10.537  15.656  67.127  1.00  0.00    -0.308 C  
HETATM    4  C   UNL     1     -11.574  14.971  69.268  1.00  0.00    -0.315 C  
ENDROOT
BRANCH   2   5
HETATM    5  C   UNL     1     -10.376  13.283  67.800  1.00  0.00    -0.233 C  
BRANCH   5   6
HETATM    6  C   UNL     1     -11.703  12.649  67.299  1.00  0.00    -0.370 C  
HETATM    7  H   UNL     1     -12.943  11.212  67.884  1.00  0.00     0.000 HD 
HETATM    8  O   UNL     1     -12.132  11.600  68.191  1.00  0.00    -0.577 OA 
BRANCH   6   9
HETATM    9  C   UNL     1     -11.764  12.129  65.868  1.00  0.00    -0.393 C  
HETATM   10  C   UNL     1     -12.236  13.232  64.942  1.00  0.00    -0.420 C  
HETATM   11  O   UNL     1     -13.202  13.912  65.376  1.00  0.00    -0.750 OA 
HETATM   12  O   UNL     1     -11.509  13.404  63.928  1.00  0.00    -0.377 OA 
ENDBRANCH   6   9
ENDBRANCH   5   6
ENDBRANCH   2   5
TORSDOF 3
ENDMDL
MODEL       15
REMARK 921   NORMALIZED FREE ENERGY PREDICTED BY IDOCK:   -3.50 KCAL/MOL
REMARK 922        TOTAL FREE ENERGY PREDICTED BY IDOCK:   -4.47 KCAL/MOL
REMARK 923 INTER-LIGAND FREE ENERGY PREDICTED BY IDOCK:   -4.15 KCAL/MOL
REMARK 924 INTRA-LIGAND FREE ENERGY PREDICTED BY IDOCK:   -0.32 KCAL/MOL
REMARK 927      BINDING AFFINITY PREDICTED BY RF-SCORE:    0.00 PKD
ROOT
HETATM    1  C   UNL     1     -10.515  14.577  64.888  1.00  0.00    -0.409 C  
HETATM    2  N   UNL     1     -11.111  13.178  64.927  1.00  0.00    -0.303 N  
HETATM    3  C   UNL     1      -9.980  12.207  65.245  1.00  0.00    -0.237 C  
HETATM    4  C   UNL     1     -11.702  12.830  63.579  1.00  0.00    -0.530 C  
ENDROOT
BRANCH   2   5
HETATM    5  C   UNL     1     -12.162  13.028  66.066  1.00  0.00    -0.399 C  
BRANCH   5   6
HETATM    6  C   UNL     1     -11.665  12.702  67.502  1.00  0.00    -0.368 C  
HETATM    7  H   UNL     1     -11.780  11.180  68.774  1.00  0.00     0.000 HD 
HETATM    8  O   UNL     1     -12.084  11.380  67.896  1.00  0.00    -0.646 OA 
BRANCH   6   9
HETATM    9  C   UNL     1     -12.002  13.675  68.625  1.00  0.00    -0.395 C  
HETATM   10  C   UNL     1     -11.069  14.869  68.567  1.00  0.00    -0.266 C  
HETATM   11  O   UNL     1      -9.861  14.587  68.359  1.00  0.00    -0.214 OA 
HETATM   12  O   UNL     1     -11.653  15.984  68.597  1.00  0.00    -0.386 OA 
ENDBRANCH   6   9
ENDBRANCH   5   6
ENDBRANCH   2   5
TORSDOF 3
ENDMDL
MODEL       16
REMARK 921   NORMALIZED FREE ENERGY PREDICTED BY IDOCK:   -3.48 KCAL/MOL
REMARK 922        TOTAL FREE ENERGY PREDICTED BY IDOCK:   -4.45 KCAL/MOL
REMARK 923 INTER-LIGAND FREE ENERGY PREDICTED BY IDOCK:   -4.26 KCAL/MOL
REMARK 924 INTRA-LIGAND FREE ENERGY PREDICTED BY IDOCK:   -0.20 KCAL/MOL
REMARK 927      BINDING AFFINITY PREDICTED BY RF-SCORE:    0.00 PKD
ROOT
HETATM    1  C   UNL     1      -9.372  17.073  68.330  1.00  0.00    -0.266 C  
HETATM    2  N   UNL     1      -9.595  17.125  66.826  1.00  0.00    -0.259 N  
HETATM    3  C   UNL     1      -8.448  16.368  66.166  1.00  0.00    -0.294 C  
HETATM    4  C   UNL     1      -9.582  18.562  66.351  1.00  0.00    -0.316 C  
ENDROOT
BRANCH   2   5
HETATM    5  C   UNL     1     -10.907  16.399  66.410  1.00  0.00    -0.065 C  
BRANCH   5   6
HETATM    6  C   UNL     1     -11.001  15.781  64.987  1.00  0.00    -0.417 C  
HETATM    7  H   UNL     1     -11.289  16.431  63.132  1.00  0.00     0.000 HD 
HETATM    8  O   UNL     1     -11.232  16.809  64.003  1.00  0.00    -1.089 OA 
BRANCH   6   9
HETATM    9  C   UNL     1     -11.991  14.647  64.752  1.00  0.00    -0.439 C  
HETATM   10  C   UNL     1     -11.436  13.356  65.319  1.00  0.00    -0.298 C  
HETATM   11  O   UNL     1     -10.219  13.150  65.078  1.00  0.00    -0.304 OA 
HETATM   12  O   UNL     1     -12.234  12.736  66.071  1.00  0.00    -0.510 OA 
ENDBRANCH   6   9
ENDBRANCH   5   6
ENDBRANCH   2   5
TORSDOF 3
ENDMDL
MODEL       17
REMARK 921   NORMALIZED FREE ENERGY PREDICTED BY IDOCK:   -3.46 KCAL/MOL
REMARK 922        TOTAL FREE ENERGY PREDICTED BY IDOCK:   -4.42 KCAL/MOL
REMARK 923 INTER-LIGAND FREE ENERGY PREDICTED BY IDOCK:   -4.16 KCAL/MOL
REMARK 924 INTRA-LIGAND FREE ENERGY PREDICTED BY IDOCK:   -0.27 KCAL/MOL
REMARK 927      BINDING AFFINITY PREDICTED BY RF-SCORE:    0.00 PKD
ROOT
HETATM    1  C   UNL     1     -10.643  16.534  67.681  1.00  0.00    -0.321 C  
HETATM    2  N   UNL     1     -10.031  15.588  66.660  1.00  0.00    -0.252 N  
HETATM    3  C   UNL     1      -8.551  15.934  66.544  1.00  0.00    -0.310 C  
HETATM    4  C   UNL     1     -10.695  15.779  65.314  1.00  0.00    -0.428 C  
ENDROOT
BRANCH   2   5
HETATM    5  C   UNL     1     -10.107  14.105  67.127  1.00  0.00    -0.258 C  
BRANCH   5   6
HETATM    6  C   UNL     1     -11.470  13.363  67.042  1.00  0.00    -0.337 C  
HETATM    7  H   UNL     1     -12.829  12.661  68.310  1.00  0.00     0.000 HD 
HETATM    8  O   UNL     1     -11.995  13.114  68.362  1.00  0.00    -0.341 OA 
BRANCH   6   9
HETATM    9  C   UNL     1     -11.545  12.073  66.235  1.00  0.00    -0.378 C  
HETATM   10  C   UNL     1     -12.103  12.361  64.856  1.00  0.00    -0.407 C  
HETATM   11  O   UNL     1     -13.091  13.141  64.836  1.00  0.00    -0.744 OA 
HETATM   12  O   UNL     1     -11.416  11.893  63.910  1.00  0.00    -0.381 OA 
ENDBRANCH   6   9
ENDBRANCH   5   6
ENDBRANCH   2   5
TORSDOF 3
ENDMDL
MODEL       18
REMARK 921   NORMALIZED FREE ENERGY PREDICTED BY IDOCK:   -3.44 KCAL/MOL
REMARK 922        TOTAL FREE ENERGY PREDICTED BY IDOCK:   -4.41 KCAL/MOL
REMARK 923 INTER-LIGAND FREE ENERGY PREDICTED BY IDOCK:   -4.08 KCAL/MOL
REMARK 924 INTRA-LIGAND FREE ENERGY PREDICTED BY IDOCK:   -0.32 KCAL/MOL
REMARK 927      BINDING AFFINITY PREDICTED BY RF-SCORE:    0.00 PKD
ROOT
HETATM    1  C   UNL     1      -9.080  12.395  66.804  1.00  0.00    -0.212 C  
HETATM    2  N   UNL     1     -10.207  11.444  67.177  1.00  0.00    -0.198 N  
HETATM    3  C   UNL     1     -10.016  11.058  68.639  1.00  0.00    -0.199 C  
HETATM    4  C   UNL     1     -10.139  10.199  66.320  1.00  0.00    -0.238 C  
ENDROOT
BRANCH   2   5
HETATM    5  C   UNL     1     -11.601  12.131  67.076  1.00  0.00    -0.337 C  
BRANCH   5   6
HETATM    6  C   UNL     1     -11.702  13.517  66.380  1.00  0.00    -0.369 C  
HETATM    7  H   UNL     1     -12.048  15.397  66.919  1.00  0.00     0.000 HD 
HETATM    8  O   UNL     1     -11.986  14.549  67.345  1.00  0.00    -0.394 OA 
BRANCH   6   9
HETATM    9  C   UNL     1     -12.660  13.670  65.205  1.00  0.00    -0.474 C  
HETATM   10  C   UNL     1     -12.155  12.865  64.023  1.00  0.00    -0.455 C  
HETATM   11  O   UNL     1     -10.919  12.959  63.807  1.00  0.00    -0.413 OA 
HETATM   12  O   UNL     1     -13.017  12.107  63.507  1.00  0.00    -0.794 OA 
ENDBRANCH   6   9
ENDBRANCH   5   6
ENDBRANCH   2   5
TORSDOF 3
ENDMDL
MODEL       19
REMARK 921   NORMALIZED FREE ENERGY PREDICTED BY IDOCK:   -3.44 KCAL/MOL
REMARK 922        TOTAL FREE ENERGY PREDICTED BY IDOCK:   -4.40 KCAL/MOL
REMARK 923 INTER-LIGAND FREE ENERGY PREDICTED BY IDOCK:   -4.07 KCAL/MOL
REMARK 924 INTRA-LIGAND FREE ENERGY PREDICTED BY IDOCK:   -0.33 KCAL/MOL
REMARK 927      BINDING AFFINITY PREDICTED BY RF-SCORE:    0.00 PKD
ROOT
HETATM    1  C   UNL     1     -12.658  14.176  65.843  1.00  0.00    -0.417 C  
HETATM    2  N   UNL     1     -11.194  14.405  66.184  1.00  0.00    -0.330 N  
HETATM    3  C   UNL     1     -11.146  15.228  67.466  1.00  0.00    -0.324 C  
HETATM    4  C   UNL     1     -10.517  15.174  65.072  1.00  0.00    -0.389 C  
ENDROOT
BRANCH   2   5
HETATM    5  C   UNL     1     -10.454  13.068  66.485  1.00  0.00    -0.277 C  
BRANCH   5   6
HETATM    6  C   UNL     1     -11.110  11.733  66.036  1.00  0.00    -0.312 C  
HETATM    7  H   UNL     1     -11.824  10.095  66.903  1.00  0.00     0.000 HD 
HETATM    8  O   UNL     1     -11.423  10.912  67.179  1.00  0.00    -0.428 OA 
BRANCH   6   9
HETATM    9  C   UNL     1     -10.383  10.879  65.005  1.00  0.00    -0.356 C  
HETATM   10  C   UNL     1     -10.663  11.405  63.612  1.00  0.00    -0.401 C  
HETATM   11  O   UNL     1     -11.863  11.718  63.395  1.00  0.00    -0.453 OA 
HETATM   12  O   UNL     1      -9.634  11.588  62.909  1.00  0.00    -0.380 OA 
ENDBRANCH   6   9
ENDBRANCH   5   6
ENDBRANCH   2   5
TORSDOF 3
ENDMDL
MODEL       20
REMARK 921   NORMALIZED FREE ENERGY PREDICTED BY IDOCK:   -3.43 KCAL/MOL
REMARK 922        TOTAL FREE ENERGY PREDICTED BY IDOCK:   -4.39 KCAL/MOL
REMARK 923 INTER-LIGAND FREE ENERGY PREDICTED BY IDOCK:   -4.13 KCAL/MOL
REMARK 924 INTRA-LIGAND FREE ENERGY PREDICTED BY IDOCK:   -0.26 KCAL/MOL
REMARK 927      BINDING AFFINITY PREDICTED BY RF-SCORE:    0.00 PKD
ROOT
HETATM    1  C   UNL     1     -11.675  14.100  67.565  1.00  0.00    -0.386 C  
HETATM    2  N   UNL     1     -10.240  14.448  67.198  1.00  0.00    -0.256 N  
HETATM    3  C   UNL     1      -9.341  13.914  68.307  1.00  0.00    -0.209 C  
HETATM    4  C   UNL     1     -10.079  15.949  67.106  1.00  0.00    -0.264 C  
ENDROOT
BRANCH   2   5
HETATM    5  C   UNL     1      -9.792  13.744  65.883  1.00  0.00    -0.260 C  
BRANCH   5   6
HETATM    6  C   UNL     1     -10.602  12.517  65.379  1.00  0.00    -0.281 C  
HETATM    7  H   UNL     1     -10.432  10.539  65.430  1.00  0.00     0.000 HD 
HETATM    8  O   UNL     1      -9.937  11.289  65.738  1.00  0.00    -0.218 OA 
BRANCH   6   9
HETATM    9  C   UNL     1     -10.982  12.454  63.905  1.00  0.00    -0.467 C  
HETATM   10  C   UNL     1     -12.431  12.862  63.731  1.00  0.00    -0.347 C  
HETATM   11  O   UNL     1     -13.225  12.375  64.578  1.00  0.00    -0.834 OA 
HETATM   12  O   UNL     1     -12.620  13.741  62.850  1.00  0.00    -0.611 OA 
ENDBRANCH   6   9
ENDBRANCH   5   6
ENDBRANCH   2   5
TORSDOF 3
ENDMDL
MODEL       21
REMARK 921   NORMALIZED FREE ENERGY PREDICTED BY IDOCK:   -3.43 KCAL/MOL
REMARK 922        TOTAL FREE ENERGY PREDICTED BY IDOCK:   -4.39 KCAL/MOL
REMARK 923 INTER-LIGAND FREE ENERGY PREDICTED BY IDOCK:   -4.06 KCAL/MOL
REMARK 924 INTRA-LIGAND FREE ENERGY PREDICTED BY IDOCK:   -0.33 KCAL/MOL
REMARK 927      BINDING AFFINITY PREDICTED BY RF-SCORE:    0.00 PKD
ROOT
HETATM    1  C   UNL     1      -9.941   9.404  66.435  1.00  0.00    -0.276 C  
HETATM    2  N   UNL     1     -10.067  10.872  66.055  1.00  0.00    -0.241 N  
HETATM    3  C   UNL     1     -10.158  10.945  64.536  1.00  0.00    -0.341 C  
HETATM    4  C   UNL     1      -8.844  11.633  66.519  1.00  0.00    -0.188 C  
ENDROOT
BRANCH   2   5
HETATM    5  C   UNL     1     -11.377  11.504  66.611  1.00  0.00    -0.214 C  
BRANCH   5   6
HETATM    6  C   UNL     1     -11.443  13.045  66.795  1.00  0.00    -0.345 C  
HETATM    7  H   UNL     1     -11.711  14.324  68.291  1.00  0.00     0.000 HD 
HETATM    8  O   UNL     1     -11.670  13.381  68.179  1.00  0.00    -0.320 OA 
BRANCH   6   9
HETATM    9  C   UNL     1     -12.419  13.837  65.934  1.00  0.00    -0.512 C  
HETATM   10  C   UNL     1     -11.749  14.236  64.634  1.00  0.00    -0.430 C  
HETATM   11  O   UNL     1     -10.570  14.661  64.753  1.00  0.00    -0.421 OA 
HETATM   12  O   UNL     1     -12.413  13.956  63.601  1.00  0.00    -0.768 OA 
ENDBRANCH   6   9
ENDBRANCH   5   6
ENDBRANCH   2   5
TORSDOF 3
ENDMDL
MODEL       22
REMARK 921   NORMALIZED FREE ENERGY PREDICTED BY IDOCK:   -3.41 KCAL/MOL
REMARK 922        TOTAL FREE ENERGY PREDICTED BY IDOCK:   -4.37 KCAL/MOL
REMARK 923 INTER-LIGAND FREE ENERGY PREDICTED BY IDOCK:   -4.30 KCAL/MOL
REMARK 924 INTRA-LIGAND FREE ENERGY PREDICTED BY IDOCK:   -0.07 KCAL/MOL
REMARK 927      BINDING AFFINITY PREDICTED BY RF-SCORE:    0.00 PKD
ROOT
HETATM    1  C   UNL     1     -10.070  15.692  68.136  1.00  0.00    -0.222 C  
HETATM    2  N   UNL     1     -10.143  14.485  67.213  1.00  0.00    -0.246 N  
HETATM    3  C   UNL     1      -9.312  13.374  67.845  1.00  0.00    -0.216 C  
HETATM    4  C   UNL     1      -9.564  14.832  65.860  1.00  0.00    -0.285 C  
ENDROOT
BRANCH   2   5
HETATM    5  C   UNL     1     -11.596  13.938  67.089  1.00  0.00    -0.364 C  
BRANCH   5   6
HETATM    6  C   UNL     1     -12.207  13.758  65.671  1.00  0.00    -0.454 C  
HETATM    7  H   UNL     1     -13.898  14.230  64.743  1.00  0.00     0.000 HD 
HETATM    8  O   UNL     1     -13.525  14.340  65.610  1.00  0.00    -0.502 OA 
BRANCH   6   9
HETATM    9  C   UNL     1     -12.265  12.355  65.080  1.00  0.00    -0.465 C  
HETATM   10  C   UNL     1     -11.906  12.404  63.608  1.00  0.00    -0.526 C  
HETATM   11  O   UNL     1     -12.431  13.350  62.965  1.00  0.00    -0.667 OA 
HETATM   12  O   UNL     1     -11.023  11.575  63.262  1.00  0.00    -0.351 OA 
ENDBRANCH   6   9
ENDBRANCH   5   6
ENDBRANCH   2   5
TORSDOF 3
ENDMDL
MODEL       23
REMARK 921   NORMALIZED FREE ENERGY PREDICTED BY IDOCK:   -3.41 KCAL/MOL
REMARK 922        TOTAL FREE ENERGY PREDICTED BY IDOCK:   -4.37 KCAL/MOL
REMARK 923 INTER-LIGAND FREE ENERGY PREDICTED BY IDOCK:   -4.15 KCAL/MOL
REMARK 924 INTRA-LIGAND FREE ENERGY PREDICTED BY IDOCK:   -0.21 KCAL/MOL
REMARK 927      BINDING AFFINITY PREDICTED BY RF-SCORE:    0.00 PKD
ROOT
HETATM    1  C   UNL     1     -10.430  10.053  67.457  1.00  0.00    -0.254 C  
HETATM    2  N   UNL     1     -10.370  11.573  67.454  1.00  0.00    -0.202 N  
HETATM    3  C   UNL     1      -9.271  11.990  68.424  1.00  0.00    -0.160 C  
HETATM    4  C   UNL     1     -11.691  12.145  67.921  1.00  0.00    -0.336 C  
ENDROOT
BRANCH   2   5
HETATM    5  C   UNL     1      -9.968  12.134  66.058  1.00  0.00    -0.236 C  
BRANCH   5   6
HETATM    6  C   UNL     1     -10.623  11.521  64.789  1.00  0.00    -0.305 C  
HETATM    7  H   UNL     1     -10.150  10.169  63.412  1.00  0.00     0.000 HD 
HETATM    8  O   UNL     1      -9.749  10.545  64.188  1.00  0.00    -0.280 OA 
BRANCH   6   9
HETATM    9  C   UNL     1     -11.123  12.464  63.702  1.00  0.00    -0.535 C  
HETATM   10  C   UNL     1     -12.415  13.120  64.146  1.00  0.00    -0.274 C  
HETATM   11  O   UNL     1     -13.241  12.346  64.695  1.00  0.00    -0.822 OA 
HETATM   12  O   UNL     1     -12.427  14.374  64.029  1.00  0.00    -0.748 OA 
ENDBRANCH   6   9
ENDBRANCH   5   6
ENDBRANCH   2   5
TORSDOF 3
ENDMDL
MODEL       24
REMARK 921   NORMALIZED FREE ENERGY PREDICTED BY IDOCK:   -3.40 KCAL/MOL
REMARK 922        TOTAL FREE ENERGY PREDICTED BY IDOCK:   -4.35 KCAL/MOL
REMARK 923 INTER-LIGAND FREE ENERGY PREDICTED BY IDOCK:   -4.16 KCAL/MOL
REMARK 924 INTRA-LIGAND FREE ENERGY PREDICTED BY IDOCK:   -0.19 KCAL/MOL
REMARK 927      BINDING AFFINITY PREDICTED BY RF-SCORE:    0.00 PKD
ROOT
HETATM    1  C   UNL     1     -14.092  15.055  71.365  1.00  0.00    -0.487 C  
HETATM    2  N   UNL     1     -12.645  14.733  71.023  1.00  0.00    -0.310 N  
HETATM    3  C   UNL     1     -12.529  13.217  70.908  1.00  0.00    -0.342 C  
HETATM    4  C   UNL     1     -11.731  15.221  72.124  1.00  0.00    -0.448 C  
ENDROOT
BRANCH   2   5
HETATM    5  C   UNL     1     -12.234  15.317  69.639  1.00  0.00    -0.271 C  
BRANCH   5   6
HETATM    6  C   UNL     1     -11.348  14.455  68.697  1.00  0.00    -0.273 C  
HETATM    7  H   UNL     1      -9.423  13.998  68.522  1.00  0.00     0.000 HD 
HETATM    8  O   UNL     1      -9.965  14.526  69.098  1.00  0.00    -0.197 OA 
BRANCH   6   9
HETATM    9  C   UNL     1     -11.435  14.699  67.196  1.00  0.00    -0.380 C  
HETATM   10  C   UNL     1     -12.212  13.576  66.538  1.00  0.00    -0.380 C  
HETATM   11  O   UNL     1     -11.921  12.421  66.943  1.00  0.00    -0.550 OA 
HETATM   12  O   UNL     1     -13.138  13.964  65.777  1.00  0.00    -0.526 OA 
ENDBRANCH   6   9
ENDBRANCH   5   6
ENDBRANCH   2   5
TORSDOF 3
ENDMDL
MODEL       25
REMARK 921   NORMALIZED FREE ENERGY PREDICTED BY IDOCK:   -3.39 KCAL/MOL
REMARK 922        TOTAL FREE ENERGY PREDICTED BY IDOCK:   -4.35 KCAL/MOL
REMARK 923 INTER-LIGAND FREE ENERGY PREDICTED BY IDOCK:   -4.08 KCAL/MOL
REMARK 924 INTRA-LIGAND FREE ENERGY PREDICTED BY IDOCK:   -0.27 KCAL/MOL
REMARK 927      BINDING AFFINITY PREDICTED BY RF-SCORE:    0.00 PKD
ROOT
HETATM    1  C   UNL     1     -11.213  11.561  69.012  1.00  0.00    -0.262 C  
HETATM    2  N   UNL     1     -10.738  12.126  67.682  1.00  0.00    -0.214 N  
HETATM    3  C   UNL     1     -10.668  10.970  66.691  1.00  0.00    -0.249 C  
HETATM    4  C   UNL     1      -9.361  12.732  67.839  1.00  0.00    -0.208 C  
ENDROOT
BRANCH   2   5
HETATM    5  C   UNL     1     -11.750  13.155  67.096  1.00  0.00    -0.377 C  
BRANCH   5   6
HETATM    6  C   UNL     1     -11.390  13.886  65.773  1.00  0.00    -0.307 C  
HETATM    7  H   UNL     1     -10.799  15.702  65.225  1.00  0.00     0.000 HD 
HETATM    8  O   UNL     1     -11.020  15.255  66.035  1.00  0.00    -0.332 OA 
BRANCH   6   9
HETATM    9  C   UNL     1     -12.401  13.864  64.633  1.00  0.00    -0.421 C  
HETATM   10  C   UNL     1     -12.104  12.702  63.706  1.00  0.00    -0.522 C  
HETATM   11  O   UNL     1     -10.886  12.540  63.433  1.00  0.00    -0.439 OA 
HETATM   12  O   UNL     1     -13.100  11.975  63.450  1.00  0.00    -0.747 OA 
ENDBRANCH   6   9
ENDBRANCH   5   6
ENDBRANCH   2   5
TORSDOF 3
ENDMDL
MODEL       26
REMARK 921   NORMALIZED FREE ENERGY PREDICTED BY IDOCK:   -3.38 KCAL/MOL
REMARK 922        TOTAL FREE ENERGY PREDICTED BY IDOCK:   -4.33 KCAL/MOL
REMARK 923 INTER-LIGAND FREE ENERGY PREDICTED BY IDOCK:   -4.04 KCAL/MOL
REMARK 924 INTRA-LIGAND FREE ENERGY PREDICTED BY IDOCK:   -0.29 KCAL/MOL
REMARK 927      BINDING AFFINITY PREDICTED BY RF-SCORE:    0.00 PKD
ROOT
HETATM    1  C   UNL     1      -9.204  16.215  66.139  1.00  0.00    -0.347 C  
HETATM    2  N   UNL     1      -9.428  15.162  67.214  1.00  0.00    -0.207 N  
HETATM    3  C   UNL     1     -10.814  15.398  67.803  1.00  0.00    -0.302 C  
HETATM    4  C   UNL     1      -8.391  15.306  68.305  1.00  0.00    -0.148 C  
ENDROOT
BRANCH   2   5
HETATM    5  C   UNL     1      -9.436  13.722  66.620  1.00  0.00    -0.279 C  
BRANCH   5   6
HETATM    6  C   UNL     1     -10.749  13.180  65.992  1.00  0.00    -0.276 C  
HETATM    7  H   UNL     1     -11.605  11.410  65.703  1.00  0.00     0.000 HD 
HETATM    8  O   UNL     1     -10.801  11.742  66.088  1.00  0.00    -0.270 OA 
BRANCH   6   9
HETATM    9  C   UNL     1     -11.092  13.587  64.564  1.00  0.00    -0.394 C  
HETATM   10  C   UNL     1     -12.358  14.421  64.558  1.00  0.00    -0.418 C  
HETATM   11  O   UNL     1     -13.279  13.992  65.299  1.00  0.00    -0.782 OA 
HETATM   12  O   UNL     1     -12.261  15.504  63.922  1.00  0.00    -0.614 OA 
ENDBRANCH   6   9
ENDBRANCH   5   6
ENDBRANCH   2   5
TORSDOF 3
ENDMDL
MODEL       27
REMARK 921   NORMALIZED FREE ENERGY PREDICTED BY IDOCK:   -3.37 KCAL/MOL
REMARK 922        TOTAL FREE ENERGY PREDICTED BY IDOCK:   -4.33 KCAL/MOL
REMARK 923 INTER-LIGAND FREE ENERGY PREDICTED BY IDOCK:   -3.96 KCAL/MOL
REMARK 924 INTRA-LIGAND FREE ENERGY PREDICTED BY IDOCK:   -0.36 KCAL/MOL
REMARK 927      BINDING AFFINITY PREDICTED BY RF-SCORE:    0.00 PKD
ROOT
HETATM    1  C   UNL     1      -7.048  18.043  66.611  1.00  0.00    -0.211 C  
HETATM    2  N   UNL     1      -7.099  19.135  67.668  1.00  0.00    -0.223 N  
HETATM    3  C   UNL     1      -7.310  20.461  66.946  1.00  0.00    -0.300 C  
HETATM    4  C   UNL     1      -5.791  19.183  68.426  1.00  0.00    -0.210 C  
ENDROOT
BRANCH   2   5
HETATM    5  C   UNL     1      -8.310  18.954  68.630  1.00  0.00    -0.349 C  
BRANCH   5   6
HETATM    6  C   UNL     1      -9.705  19.469  68.180  1.00  0.00    -0.388 C  
HETATM    7  H   UNL     1     -11.249  20.407  69.008  1.00  0.00     0.000 HD 
HETATM    8  O   UNL     1     -10.395  20.092  69.283  1.00  0.00    -0.310 OA 
BRANCH   6   9
HETATM    9  C   UNL     1     -10.655  18.492  67.499  1.00  0.00    -0.461 C  
HETATM   10  C   UNL     1     -10.592  18.679  65.996  1.00  0.00    -0.365 C  
HETATM   11  O   UNL     1     -10.584  19.876  65.611  1.00  0.00    -0.495 OA 
HETATM   12  O   UNL     1     -10.416  17.613  65.348  1.00  0.00    -0.648 OA 
ENDBRANCH   6   9
ENDBRANCH   5   6
ENDBRANCH   2   5
TORSDOF 3
ENDMDL
MODEL       28
REMARK 921   NORMALIZED FREE ENERGY PREDICTED BY IDOCK:   -3.34 KCAL/MOL
REMARK 922        TOTAL FREE ENERGY PREDICTED BY IDOCK:   -4.28 KCAL/MOL
REMARK 923 INTER-LIGAND FREE ENERGY PREDICTED BY IDOCK:   -3.92 KCAL/MOL
REMARK 924 INTRA-LIGAND FREE ENERGY PREDICTED BY IDOCK:   -0.36 KCAL/MOL
REMARK 927      BINDING AFFINITY PREDICTED BY RF-SCORE:    0.00 PKD
ROOT
HETATM    1  C   UNL     1     -13.002  13.896  65.354  1.00  0.00    -0.326 C  
HETATM    2  N   UNL     1     -11.692  13.316  64.842  1.00  0.00    -0.329 N  
HETATM    3  C   UNL     1     -11.909  12.904  63.391  1.00  0.00    -0.507 C  
HETATM    4  C   UNL     1     -11.314  12.097  65.655  1.00  0.00    -0.347 C  
ENDROOT
BRANCH   2   5
HETATM    5  C   UNL     1     -10.552  14.376  64.839  1.00  0.00    -0.434 C  
BRANCH   5   6
HETATM    6  C   UNL     1     -10.540  15.464  65.949  1.00  0.00    -0.339 C  
HETATM    7  H   UNL     1     -10.013  17.372  66.113  1.00  0.00     0.000 HD 
HETATM    8  O   UNL     1     -10.020  16.707  65.435  1.00  0.00    -0.565 OA 
BRANCH   6   9
HETATM    9  C   UNL     1      -9.842  15.150  67.266  1.00  0.00    -0.228 C  
HETATM   10  C   UNL     1     -10.873  14.813  68.326  1.00  0.00    -0.249 C  
HETATM   11  O   UNL     1     -11.880  15.568  68.344  1.00  0.00    -0.351 OA 
HETATM   12  O   UNL     1     -10.645  13.743  68.948  1.00  0.00    -0.248 OA 
ENDBRANCH   6   9
ENDBRANCH   5   6
ENDBRANCH   2   5
TORSDOF 3
ENDMDL
MODEL       29
REMARK 921   NORMALIZED FREE ENERGY PREDICTED BY IDOCK:   -3.33 KCAL/MOL
REMARK 922        TOTAL FREE ENERGY PREDICTED BY IDOCK:   -4.27 KCAL/MOL
REMARK 923 INTER-LIGAND FREE ENERGY PREDICTED BY IDOCK:   -4.29 KCAL/MOL
REMARK 924 INTRA-LIGAND FREE ENERGY PREDICTED BY IDOCK:    0.01 KCAL/MOL
REMARK 927      BINDING AFFINITY PREDICTED BY RF-SCORE:    0.00 PKD
ROOT
HETATM    1  C   UNL     1      -8.462  18.385  66.834  1.00  0.00    -0.265 C  
HETATM    2  N   UNL     1      -9.976  18.353  66.696  1.00  0.00    -0.347 N  
HETATM    3  C   UNL     1     -10.421  19.732  66.221  1.00  0.00    -0.506 C  
HETATM    4  C   UNL     1     -10.612  18.059  68.037  1.00  0.00    -0.347 C  
ENDROOT
BRANCH   2   5
HETATM    5  C   UNL     1     -10.438  17.337  65.611  1.00  0.00    -0.181 C  
BRANCH   5   6
HETATM    6  C   UNL     1     -10.353  15.817  65.925  1.00  0.00    -0.354 C  
HETATM    7  H   UNL     1      -8.926  14.469  66.225  1.00  0.00     0.000 HD 
HETATM    8  O   UNL     1      -8.978  15.398  66.032  1.00  0.00    -0.310 OA 
BRANCH   6   9
HETATM    9  C   UNL     1     -11.090  14.845  65.013  1.00  0.00    -0.422 C  
HETATM   10  C   UNL     1     -12.127  14.080  65.811  1.00  0.00    -0.427 C  
HETATM   11  O   UNL     1     -11.736  13.670  66.934  1.00  0.00    -0.347 OA 
HETATM   12  O   UNL     1     -13.278  14.079  65.299  1.00  0.00    -0.782 OA 
ENDBRANCH   6   9
ENDBRANCH   5   6
ENDBRANCH   2   5
TORSDOF 3
ENDMDL
MODEL       30
REMARK 921   NORMALIZED FREE ENERGY PREDICTED BY IDOCK:   -3.33 KCAL/MOL
REMARK 922        TOTAL FREE ENERGY PREDICTED BY IDOCK:   -4.27 KCAL/MOL
REMARK 923 INTER-LIGAND FREE ENERGY PREDICTED BY IDOCK:   -4.00 KCAL/MOL
REMARK 924 INTRA-LIGAND FREE ENERGY PREDICTED BY IDOCK:   -0.27 KCAL/MOL
REMARK 927      BINDING AFFINITY PREDICTED BY RF-SCORE:    0.00 PKD
ROOT
HETATM    1  C   UNL     1     -10.254  13.530  65.405  1.00  0.00    -0.302 C  
HETATM    2  N   UNL     1     -11.565  13.473  66.173  1.00  0.00    -0.331 N  
HETATM    3  C   UNL     1     -11.520  12.237  67.065  1.00  0.00    -0.354 C  
HETATM    4  C   UNL     1     -12.725  13.350  65.210  1.00  0.00    -0.422 C  
ENDROOT
BRANCH   2   5
HETATM    5  C   UNL     1     -11.736  14.698  67.118  1.00  0.00    -0.373 C  
BRANCH   5   6
HETATM    6  C   UNL     1     -10.468  15.463  67.588  1.00  0.00    -0.272 C  
HETATM    7  H   UNL     1      -9.283  15.480  69.182  1.00  0.00     0.000 HD 
HETATM    8  O   UNL     1     -10.059  15.013  68.895  1.00  0.00    -0.220 OA 
BRANCH   6   9
HETATM    9  C   UNL     1     -10.495  16.986  67.582  1.00  0.00    -0.343 C  
HETATM   10  C   UNL     1      -9.979  17.504  66.254  1.00  0.00    -0.308 C  
HETATM   11  O   UNL     1      -8.953  16.920  65.820  1.00  0.00    -0.524 OA 
HETATM   12  O   UNL     1     -10.729  18.352  65.702  1.00  0.00    -0.548 OA 
ENDBRANCH   6   9
ENDBRANCH   5   6
ENDBRANCH   2   5
TORSDOF 3
ENDMDL
MODEL       31
REMARK 921   NORMALIZED FREE ENERGY PREDICTED BY IDOCK:   -3.33 KCAL/MOL
REMARK 922        TOTAL FREE ENERGY PREDICTED BY IDOCK:   -4.27 KCAL/MOL
REMARK 923 INTER-LIGAND FREE ENERGY PREDICTED BY IDOCK:   -4.00 KCAL/MOL
REMARK 924 INTRA-LIGAND FREE ENERGY PREDICTED BY IDOCK:   -0.27 KCAL/MOL
REMARK 927      BINDING AFFINITY PREDICTED BY RF-SCORE:    0.00 PKD
ROOT
HETATM    1  C   UNL     1     -12.152  12.974  63.471  1.00  0.00    -0.542 C  
HETATM    2  N   UNL     1     -11.383  12.829  64.775  1.00  0.00    -0.298 N  
HETATM    3  C   UNL     1     -10.385  13.979  64.849  1.00  0.00    -0.409 C  
HETATM    4  C   UNL     1     -10.631  11.516  64.790  1.00  0.00    -0.305 C  
ENDROOT
BRANCH   2   5
HETATM    5  C   UNL     1     -12.314  12.967  66.015  1.00  0.00    -0.262 C  
BRANCH   5   6
HETATM    6  C   UNL     1     -11.697  12.820  67.434  1.00  0.00    -0.366 C  
HETATM    7  H   UNL     1     -11.675  11.457  68.879  1.00  0.00     0.000 HD 
HETATM    8  O   UNL     1     -12.053  11.547  68.012  1.00  0.00    -0.617 OA 
BRANCH   6   9
HETATM    9  C   UNL     1     -11.967  13.914  68.459  1.00  0.00    -0.394 C  
HETATM   10  C   UNL     1     -10.835  14.922  68.443  1.00  0.00    -0.251 C  
HETATM   11  O   UNL     1      -9.681  14.423  68.385  1.00  0.00    -0.214 OA 
HETATM   12  O   UNL     1     -11.210  16.121  68.349  1.00  0.00    -0.345 OA 
ENDBRANCH   6   9
ENDBRANCH   5   6
ENDBRANCH   2   5
TORSDOF 3
ENDMDL
MODEL       32
REMARK 921   NORMALIZED FREE ENERGY PREDICTED BY IDOCK:   -3.29 KCAL/MOL
REMARK 922        TOTAL FREE ENERGY PREDICTED BY IDOCK:   -4.23 KCAL/MOL
REMARK 923 INTER-LIGAND FREE ENERGY PREDICTED BY IDOCK:   -3.86 KCAL/MOL
REMARK 924 INTRA-LIGAND FREE ENERGY PREDICTED BY IDOCK:   -0.37 KCAL/MOL
REMARK 927      BINDING AFFINITY PREDICTED BY RF-SCORE:    0.00 PKD
ROOT
HETATM    1  C   UNL     1     -12.728  12.599  64.724  1.00  0.00    -0.379 C  
HETATM    2  N   UNL     1     -11.776  13.732  65.078  1.00  0.00    -0.331 N  
HETATM    3  C   UNL     1     -12.225  14.966  64.304  1.00  0.00    -0.344 C  
HETATM    4  C   UNL     1     -10.366  13.371  64.666  1.00  0.00    -0.381 C  
ENDROOT
BRANCH   2   5
HETATM    5  C   UNL     1     -11.852  14.101  66.588  1.00  0.00    -0.424 C  
BRANCH   5   6
HETATM    6  C   UNL     1     -10.594  14.702  67.275  1.00  0.00    -0.284 C  
HETATM    7  H   UNL     1      -9.604  14.451  68.979  1.00  0.00     0.000 HD 
HETATM    8  O   UNL     1     -10.373  14.083  68.559  1.00  0.00    -0.237 OA 
BRANCH   6   9
HETATM    9  C   UNL     1     -10.510  16.214  67.440  1.00  0.00    -0.310 C  
HETATM   10  C   UNL     1      -9.647  16.803  66.342  1.00  0.00    -0.281 C  
HETATM   11  O   UNL     1      -8.590  16.166  66.099  1.00  0.00    -0.326 OA 
HETATM   12  O   UNL     1     -10.175  17.770  65.731  1.00  0.00    -0.566 OA 
ENDBRANCH   6   9
ENDBRANCH   5   6
ENDBRANCH   2   5
TORSDOF 3
ENDMDL
MODEL       33
REMARK 921   NORMALIZED FREE ENERGY PREDICTED BY IDOCK:   -3.28 KCAL/MOL
REMARK 922        TOTAL FREE ENERGY PREDICTED BY IDOCK:   -4.21 KCAL/MOL
REMARK 923 INTER-LIGAND FREE ENERGY PREDICTED BY IDOCK:   -3.96 KCAL/MOL
REMARK 924 INTRA-LIGAND FREE ENERGY PREDICTED BY IDOCK:   -0.25 KCAL/MOL
REMARK 927      BINDING AFFINITY PREDICTED BY RF-SCORE:    0.00 PKD
ROOT
HETATM    1  C   UNL     1     -11.268  15.681  68.187  1.00  0.00    -0.345 C  
HETATM    2  N   UNL     1     -10.127  16.229  67.343  1.00  0.00    -0.255 N  
HETATM    3  C   UNL     1      -8.906  16.347  68.247  1.00  0.00    -0.202 C  
HETATM    4  C   UNL     1     -10.488  17.598  66.810  1.00  0.00    -0.289 C  
ENDROOT
BRANCH   2   5
HETATM    5  C   UNL     1      -9.739  15.254  66.193  1.00  0.00    -0.314 C  
BRANCH   5   6
HETATM    6  C   UNL     1     -10.021  13.736  66.373  1.00  0.00    -0.297 C  
HETATM    7  H   UNL     1      -8.992  12.110  66.865  1.00  0.00     0.000 HD 
HETATM    8  O   UNL     1      -8.819  13.038  66.755  1.00  0.00    -0.207 OA 
BRANCH   6   9
HETATM    9  C   UNL     1     -10.681  12.981  65.226  1.00  0.00    -0.317 C  
HETATM   10  C   UNL     1     -12.097  12.600  65.609  1.00  0.00    -0.443 C  
HETATM   11  O   UNL     1     -12.228  12.153  66.778  1.00  0.00    -0.553 OA 
HETATM   12  O   UNL     1     -12.968  12.915  64.755  1.00  0.00    -0.743 OA 
ENDBRANCH   6   9
ENDBRANCH   5   6
ENDBRANCH   2   5
TORSDOF 3
ENDMDL
MODEL       34
REMARK 921   NORMALIZED FREE ENERGY PREDICTED BY IDOCK:   -3.26 KCAL/MOL
REMARK 922        TOTAL FREE ENERGY PREDICTED BY IDOCK:   -4.19 KCAL/MOL
REMARK 923 INTER-LIGAND FREE ENERGY PREDICTED BY IDOCK:   -3.89 KCAL/MOL
REMARK 924 INTRA-LIGAND FREE ENERGY PREDICTED BY IDOCK:   -0.30 KCAL/MOL
REMARK 927      BINDING AFFINITY PREDICTED BY RF-SCORE:    0.00 PKD
ROOT
HETATM    1  C   UNL     1      -9.927  14.979  68.576  1.00  0.00    -0.219 C  
HETATM    2  N   UNL     1     -10.451  15.597  67.289  1.00  0.00    -0.286 N  
HETATM    3  C   UNL     1      -9.426  15.316  66.196  1.00  0.00    -0.326 C  
HETATM    4  C   UNL     1     -10.604  17.092  67.457  1.00  0.00    -0.323 C  
ENDROOT
BRANCH   2   5
HETATM    5  C   UNL     1     -11.784  14.935  66.830  1.00  0.00    -0.248 C  
BRANCH   5   6
HETATM    6  C   UNL     1     -11.780  14.056  65.549  1.00  0.00    -0.350 C  
HETATM    7  H   UNL     1     -12.487  14.176  63.697  1.00  0.00     0.000 HD 
HETATM    8  O   UNL     1     -12.490  14.714  64.481  1.00  0.00    -0.579 OA 
BRANCH   6   9
HETATM    9  C   UNL     1     -12.276  12.619  65.653  1.00  0.00    -0.474 C  
HETATM   10  C   UNL     1     -11.303  11.798  66.476  1.00  0.00    -0.305 C  
HETATM   11  O   UNL     1     -10.088  11.998  66.214  1.00  0.00    -0.213 OA 
HETATM   12  O   UNL     1     -11.839  11.135  67.402  1.00  0.00    -0.570 OA 
ENDBRANCH   6   9
ENDBRANCH   5   6
ENDBRANCH   2   5
TORSDOF 3
ENDMDL
MODEL       35
REMARK 921   NORMALIZED FREE ENERGY PREDICTED BY IDOCK:   -3.18 KCAL/MOL
REMARK 922        TOTAL FREE ENERGY PREDICTED BY IDOCK:   -4.10 KCAL/MOL
REMARK 923 INTER-LIGAND FREE ENERGY PREDICTED BY IDOCK:   -3.83 KCAL/MOL
REMARK 924 INTRA-LIGAND FREE ENERGY PREDICTED BY IDOCK:   -0.27 KCAL/MOL
REMARK 927      BINDING AFFINITY PREDICTED BY RF-SCORE:    0.00 PKD
ROOT
HETATM    1  C   UNL     1     -11.898  14.405  66.789  1.00  0.00    -0.410 C  
HETATM    2  N   UNL     1     -10.653  15.269  66.652  1.00  0.00    -0.299 N  
HETATM    3  C   UNL     1     -10.762  16.022  65.332  1.00  0.00    -0.383 C  
HETATM    4  C   UNL     1      -9.417  14.397  66.628  1.00  0.00    -0.283 C  
ENDROOT
BRANCH   2   5
HETATM    5  C   UNL     1     -10.570  16.345  67.774  1.00  0.00    -0.321 C  
BRANCH   5   6
HETATM    6  C   UNL     1      -9.289  17.220  67.877  1.00  0.00    -0.258 C  
HETATM    7  H   UNL     1      -7.713  17.362  69.077  1.00  0.00     0.000 HD 
HETATM    8  O   UNL     1      -8.497  16.827  69.015  1.00  0.00    -0.231 OA 
BRANCH   6   9
HETATM    9  C   UNL     1      -9.445  18.736  67.890  1.00  0.00    -0.339 C  
HETATM   10  C   UNL     1      -9.263  19.283  66.489  1.00  0.00    -0.350 C  
HETATM   11  O   UNL     1      -8.305  18.783  65.845  1.00  0.00    -0.490 OA 
HETATM   12  O   UNL     1     -10.180  20.061  66.113  1.00  0.00    -0.465 OA 
ENDBRANCH   6   9
ENDBRANCH   5   6
ENDBRANCH   2   5
TORSDOF 3
ENDMDL
MODEL       36
REMARK 921   NORMALIZED FREE ENERGY PREDICTED BY IDOCK:   -3.12 KCAL/MOL
REMARK 922        TOTAL FREE ENERGY PREDICTED BY IDOCK:   -4.03 KCAL/MOL
REMARK 923 INTER-LIGAND FREE ENERGY PREDICTED BY IDOCK:   -3.69 KCAL/MOL
REMARK 924 INTRA-LIGAND FREE ENERGY PREDICTED BY IDOCK:   -0.34 KCAL/MOL
REMARK 927      BINDING AFFINITY PREDICTED BY RF-SCORE:    0.00 PKD
ROOT
HETATM    1  C   UNL     1      -9.684  13.566  66.705  1.00  0.00    -0.280 C  
HETATM    2  N   UNL     1     -10.586  14.575  67.399  1.00  0.00    -0.268 N  
HETATM    3  C   UNL     1     -11.976  14.445  66.785  1.00  0.00    -0.399 C  
HETATM    4  C   UNL     1     -10.069  15.978  67.169  1.00  0.00    -0.270 C  
ENDROOT
BRANCH   2   5
HETATM    5  C   UNL     1     -10.740  14.265  68.917  1.00  0.00    -0.257 C  
BRANCH   5   6
HETATM    6  C   UNL     1     -12.056  13.606  69.417  1.00  0.00    -0.314 C  
HETATM    7  H   UNL     1     -13.622  14.132  70.520  1.00  0.00     0.000 HD 
HETATM    8  O   UNL     1     -12.817  14.535  70.215  1.00  0.00    -0.329 OA 
BRANCH   6   9
HETATM    9  C   UNL     1     -11.965  12.281  70.162  1.00  0.00    -0.377 C  
HETATM   10  C   UNL     1     -11.563  11.178  69.203  1.00  0.00    -0.324 C  
HETATM   11  O   UNL     1     -12.150  11.203  68.091  1.00  0.00    -0.633 OA 
HETATM   12  O   UNL     1     -10.597  10.474  69.599  1.00  0.00    -0.236 OA 
ENDBRANCH   6   9
ENDBRANCH   5   6
ENDBRANCH   2   5
TORSDOF 3
ENDMDL
MODEL       37
REMARK 921   NORMALIZED FREE ENERGY PREDICTED BY IDOCK:   -3.11 KCAL/MOL
REMARK 922        TOTAL FREE ENERGY PREDICTED BY IDOCK:   -4.02 KCAL/MOL
REMARK 923 INTER-LIGAND FREE ENERGY PREDICTED BY IDOCK:   -3.66 KCAL/MOL
REMARK 924 INTRA-LIGAND FREE ENERGY PREDICTED BY IDOCK:   -0.36 KCAL/MOL
REMARK 927      BINDING AFFINITY PREDICTED BY RF-SCORE:    0.00 PKD
ROOT
HETATM    1  C   UNL     1      -6.858  18.976  66.237  1.00  0.00    -0.219 C  
HETATM    2  N   UNL     1      -7.459  19.733  67.411  1.00  0.00    -0.254 N  
HETATM    3  C   UNL     1      -6.703  21.050  67.542  1.00  0.00    -0.368 C  
HETATM    4  C   UNL     1      -7.291  18.933  68.684  1.00  0.00    -0.310 C  
ENDROOT
BRANCH   2   5
HETATM    5  C   UNL     1      -8.952  20.099  67.161  1.00  0.00    -0.360 C  
BRANCH   5   6
HETATM    6  C   UNL     1      -9.823  19.140  66.303  1.00  0.00    -0.383 C  
HETATM    7  H   UNL     1     -11.299  19.299  64.983  1.00  0.00     0.000 HD 
HETATM    8  O   UNL     1     -10.766  19.886  65.508  1.00  0.00    -0.461 OA 
BRANCH   6   9
HETATM    9  C   UNL     1     -10.563  18.008  67.005  1.00  0.00    -0.320 C  
HETATM   10  C   UNL     1      -9.835  16.699  66.776  1.00  0.00    -0.273 C  
HETATM   11  O   UNL     1      -9.433  16.514  65.598  1.00  0.00    -0.497 OA 
HETATM   12  O   UNL     1      -9.610  16.040  67.826  1.00  0.00    -0.217 OA 
ENDBRANCH   6   9
ENDBRANCH   5   6
ENDBRANCH   2   5
TORSDOF 3
ENDMDL
MODEL       38
REMARK 921   NORMALIZED FREE ENERGY PREDICTED BY IDOCK:   -3.09 KCAL/MOL
REMARK 922        TOTAL FREE ENERGY PREDICTED BY IDOCK:   -4.00 KCAL/MOL
REMARK 923 INTER-LIGAND FREE ENERGY PREDICTED BY IDOCK:   -3.78 KCAL/MOL
REMARK 924 INTRA-LIGAND FREE ENERGY PREDICTED BY IDOCK:   -0.22 KCAL/MOL
REMARK 927      BINDING AFFINITY PREDICTED BY RF-SCORE:    0.00 PKD
ROOT
HETATM    1  C   UNL     1     -10.609  13.306  64.672  1.00  0.00    -0.404 C  
HETATM    2  N   UNL     1     -11.300  14.496  65.320  1.00  0.00    -0.339 N  
HETATM    3  C   UNL     1     -12.735  14.082  65.626  1.00  0.00    -0.481 C  
HETATM    4  C   UNL     1     -11.314  15.670  64.365  1.00  0.00    -0.263 C  
ENDROOT
BRANCH   2   5
HETATM    5  C   UNL     1     -10.646  14.876  66.681  1.00  0.00    -0.305 C  
BRANCH   5   6
HETATM    6  C   UNL     1      -9.603  16.028  66.713  1.00  0.00    -0.232 C  
HETATM    7  H   UNL     1      -7.651  16.218  67.026  1.00  0.00     0.000 HD 
HETATM    8  O   UNL     1      -8.289  15.514  67.006  1.00  0.00    -0.193 OA 
BRANCH   6   9
HETATM    9  C   UNL     1      -9.872  17.225  67.616  1.00  0.00    -0.279 C  
HETATM   10  C   UNL     1      -9.867  18.499  66.794  1.00  0.00    -0.342 C  
HETATM   11  O   UNL     1      -8.938  18.581  65.949  1.00  0.00    -0.480 OA 
HETATM   12  O   UNL     1     -10.871  19.236  66.975  1.00  0.00    -0.464 OA 
ENDBRANCH   6   9
ENDBRANCH   5   6
ENDBRANCH   2   5
TORSDOF 3
ENDMDL
MODEL       39
REMARK 921   NORMALIZED FREE ENERGY PREDICTED BY IDOCK:   -3.07 KCAL/MOL
REMARK 922        TOTAL FREE ENERGY PREDICTED BY IDOCK:   -3.97 KCAL/MOL
REMARK 923 INTER-LIGAND FREE ENERGY PREDICTED BY IDOCK:   -3.95 KCAL/MOL
REMARK 924 INTRA-LIGAND FREE ENERGY PREDICTED BY IDOCK:   -0.02 KCAL/MOL
REMARK 927      BINDING AFFINITY PREDICTED BY RF-SCORE:    0.00 PKD
ROOT
HETATM    1  C   UNL     1     -11.793  14.151  67.053  1.00  0.00    -0.429 C  
HETATM    2  N   UNL     1     -11.400  14.733  68.402  1.00  0.00    -0.285 N  
HETATM    3  C   UNL     1     -11.214  16.235  68.216  1.00  0.00    -0.324 C  
HETATM    4  C   UNL     1     -10.097  14.123  68.870  1.00  0.00    -0.150 C  
ENDROOT
BRANCH   2   5
HETATM    5  C   UNL     1     -12.527  14.552  69.461  1.00  0.00    -0.125 C  
BRANCH   5   6
HETATM    6  C   UNL     1     -12.226  13.718  70.738  1.00  0.00    -0.363 C  
HETATM    7  H   UNL     1     -11.981  11.803  71.203  1.00  0.00     0.000 HD 
HETATM    8  O   UNL     1     -12.165  12.313  70.422  1.00  0.00    -0.342 OA 
BRANCH   6   9
HETATM    9  C   UNL     1     -13.122  13.907  71.955  1.00  0.00    -0.480 C  
HETATM   10  C   UNL     1     -12.798  15.225  72.631  1.00  0.00    -0.389 C  
HETATM   11  O   UNL     1     -11.570  15.475  72.744  1.00  0.00    -0.460 OA 
HETATM   12  O   UNL     1     -13.802  15.950  72.861  1.00  0.00    -0.605 OA 
ENDBRANCH   6   9
ENDBRANCH   5   6
ENDBRANCH   2   5
TORSDOF 3
ENDMDL
MODEL       40
REMARK 921   NORMALIZED FREE ENERGY PREDICTED BY IDOCK:   -3.07 KCAL/MOL
REMARK 922        TOTAL FREE ENERGY PREDICTED BY IDOCK:   -3.97 KCAL/MOL
REMARK 923 INTER-LIGAND FREE ENERGY PREDICTED BY IDOCK:   -3.71 KCAL/MOL
REMARK 924 INTRA-LIGAND FREE ENERGY PREDICTED BY IDOCK:   -0.26 KCAL/MOL
REMARK 927      BINDING AFFINITY PREDICTED BY RF-SCORE:    0.00 PKD
ROOT
HETATM    1  C   UNL     1     -11.997  13.737  66.781  1.00  0.00    -0.426 C  
HETATM    2  N   UNL     1     -10.908  13.639  67.838  1.00  0.00    -0.246 N  
HETATM    3  C   UNL     1      -9.587  13.409  67.115  1.00  0.00    -0.241 C  
HETATM    4  C   UNL     1     -11.183  12.470  68.758  1.00  0.00    -0.273 C  
ENDROOT
BRANCH   2   5
HETATM    5  C   UNL     1     -10.755  14.968  68.635  1.00  0.00    -0.244 C  
BRANCH   5   6
HETATM    6  C   UNL     1      -9.859  16.094  68.045  1.00  0.00    -0.231 C  
HETATM    7  H   UNL     1      -8.483  17.361  68.713  1.00  0.00     0.000 HD 
HETATM    8  O   UNL     1      -9.031  16.673  69.073  1.00  0.00    -0.256 OA 
BRANCH   6   9
HETATM    9  C   UNL     1     -10.528  17.218  67.265  1.00  0.00    -0.319 C  
HETATM   10  C   UNL     1      -9.942  17.293  65.869  1.00  0.00    -0.173 C  
HETATM   11  O   UNL     1      -8.690  17.184  65.813  1.00  0.00    -0.527 OA 
HETATM   12  O   UNL     1     -10.800  17.313  64.947  1.00  0.00    -0.773 OA 
ENDBRANCH   6   9
ENDBRANCH   5   6
ENDBRANCH   2   5
TORSDOF 3
ENDMDL
MODEL       41
REMARK 921   NORMALIZED FREE ENERGY PREDICTED BY IDOCK:   -3.06 KCAL/MOL
REMARK 922        TOTAL FREE ENERGY PREDICTED BY IDOCK:   -3.96 KCAL/MOL
REMARK 923 INTER-LIGAND FREE ENERGY PREDICTED BY IDOCK:   -4.20 KCAL/MOL
REMARK 924 INTRA-LIGAND FREE ENERGY PREDICTED BY IDOCK:    0.23 KCAL/MOL
REMARK 927      BINDING AFFINITY PREDICTED BY RF-SCORE:    0.00 PKD
ROOT
HETATM    1  C   UNL     1     -13.850  13.117  72.442  1.00  0.00    -0.483 C  
HETATM    2  N   UNL     1     -13.327  14.481  72.017  1.00  0.00    -0.344 N  
HETATM    3  C   UNL     1     -12.990  15.258  73.284  1.00  0.00    -0.527 C  
HETATM    4  C   UNL     1     -14.392  15.226  71.243  1.00  0.00    -0.381 C  
ENDROOT
BRANCH   2   5
HETATM    5  C   UNL     1     -12.005  14.365  71.201  1.00  0.00    -0.316 C  
BRANCH   5   6
HETATM    6  C   UNL     1     -12.008  13.533  69.888  1.00  0.00    -0.348 C  
HETATM    7  H   UNL     1     -11.820  11.624  69.372  1.00  0.00     0.000 HD 
HETATM    8  O   UNL     1     -11.818  12.133  70.175  1.00  0.00    -0.333 OA 
BRANCH   6   9
HETATM    9  C   UNL     1     -11.054  13.937  68.771  1.00  0.00    -0.291 C  
HETATM   10  C   UNL     1     -11.682  13.635  67.425  1.00  0.00    -0.381 C  
HETATM   11  O   UNL     1     -12.260  12.520  67.348  1.00  0.00    -0.430 OA 
HETATM   12  O   UNL     1     -11.659  14.599  66.615  1.00  0.00    -0.362 OA 
ENDBRANCH   6   9
ENDBRANCH   5   6
ENDBRANCH   2   5
TORSDOF 3
ENDMDL
MODEL       42
REMARK 921   NORMALIZED FREE ENERGY PREDICTED BY IDOCK:   -3.05 KCAL/MOL
REMARK 922        TOTAL FREE ENERGY PREDICTED BY IDOCK:   -3.95 KCAL/MOL
REMARK 923 INTER-LIGAND FREE ENERGY PREDICTED BY IDOCK:   -3.59 KCAL/MOL
REMARK 924 INTRA-LIGAND FREE ENERGY PREDICTED BY IDOCK:   -0.37 KCAL/MOL
REMARK 927      BINDING AFFINITY PREDICTED BY RF-SCORE:    0.00 PKD
ROOT
HETATM    1  C   UNL     1     -10.768  13.117  64.343  1.00  0.00    -0.407 C  
HETATM    2  N   UNL     1     -11.244  14.246  65.245  1.00  0.00    -0.323 N  
HETATM    3  C   UNL     1     -12.653  13.897  65.709  1.00  0.00    -0.494 C  
HETATM    4  C   UNL     1     -11.281  15.546  64.472  1.00  0.00    -0.315 C  
ENDROOT
BRANCH   2   5
HETATM    5  C   UNL     1     -10.369  14.370  66.527  1.00  0.00    -0.281 C  
BRANCH   5   6
HETATM    6  C   UNL     1     -10.818  13.620  67.813  1.00  0.00    -0.253 C  
HETATM    7  H   UNL     1     -11.143  14.066  69.721  1.00  0.00     0.000 HD 
HETATM    8  O   UNL     1     -10.869  14.524  68.935  1.00  0.00    -0.238 OA 
BRANCH   6   9
HETATM    9  C   UNL     1     -10.052  12.370  68.227  1.00  0.00    -0.227 C  
HETATM   10  C   UNL     1     -10.718  11.142  67.638  1.00  0.00    -0.230 C  
HETATM   11  O   UNL     1     -11.974  11.131  67.716  1.00  0.00    -0.630 OA 
HETATM   12  O   UNL     1      -9.933  10.368  67.030  1.00  0.00    -0.190 OA 
ENDBRANCH   6   9
ENDBRANCH   5   6
ENDBRANCH   2   5
TORSDOF 3
ENDMDL
MODEL       43
REMARK 921   NORMALIZED FREE ENERGY PREDICTED BY IDOCK:   -3.03 KCAL/MOL
REMARK 922        TOTAL FREE ENERGY PREDICTED BY IDOCK:   -3.93 KCAL/MOL
REMARK 923 INTER-LIGAND FREE ENERGY PREDICTED BY IDOCK:   -3.99 KCAL/MOL
REMARK 924 INTRA-LIGAND FREE ENERGY PREDICTED BY IDOCK:    0.06 KCAL/MOL
REMARK 927      BINDING AFFINITY PREDICTED BY RF-SCORE:    0.00 PKD
ROOT
HETATM    1  C   UNL     1      -8.752  15.915  66.475  1.00  0.00    -0.315 C  
HETATM    2  N   UNL     1     -10.243  16.198  66.570  1.00  0.00    -0.287 N  
HETATM    3  C   UNL     1     -10.828  16.044  65.171  1.00  0.00    -0.395 C  
HETATM    4  C   UNL     1     -10.471  17.614  67.052  1.00  0.00    -0.305 C  
ENDROOT
BRANCH   2   5
HETATM    5  C   UNL     1     -10.973  15.162  67.475  1.00  0.00    -0.310 C  
BRANCH   5   6
HETATM    6  C   UNL     1     -11.039  15.423  69.005  1.00  0.00    -0.268 C  
HETATM    7  H   UNL     1      -9.785  15.391  70.545  1.00  0.00     0.000 HD 
HETATM    8  O   UNL     1      -9.745  15.231  69.609  1.00  0.00    -0.249 OA 
BRANCH   6   9
HETATM    9  C   UNL     1     -12.078  14.668  69.825  1.00  0.00    -0.371 C  
HETATM   10  C   UNL     1     -12.611  15.562  70.927  1.00  0.00    -0.456 C  
HETATM   11  O   UNL     1     -11.737  16.233  71.535  1.00  0.00    -0.469 OA 
HETATM   12  O   UNL     1     -13.868  15.614  70.989  1.00  0.00    -0.567 OA 
ENDBRANCH   6   9
ENDBRANCH   5   6
ENDBRANCH   2   5
TORSDOF 3
ENDMDL
MODEL       44
REMARK 921   NORMALIZED FREE ENERGY PREDICTED BY IDOCK:   -3.02 KCAL/MOL
REMARK 922        TOTAL FREE ENERGY PREDICTED BY IDOCK:   -3.92 KCAL/MOL
REMARK 923 INTER-LIGAND FREE ENERGY PREDICTED BY IDOCK:   -3.60 KCAL/MOL
REMARK 924 INTRA-LIGAND FREE ENERGY PREDICTED BY IDOCK:   -0.32 KCAL/MOL
REMARK 927      BINDING AFFINITY PREDICTED BY RF-SCORE:    0.00 PKD
ROOT
HETATM    1  C   UNL     1     -11.928  14.214  66.437  1.00  0.00    -0.436 C  
HETATM    2  N   UNL     1     -10.750  14.550  65.535  1.00  0.00    -0.320 N  
HETATM    3  C   UNL     1     -11.070  15.867  64.836  1.00  0.00    -0.389 C  
HETATM    4  C   UNL     1     -10.567  13.466  64.497  1.00  0.00    -0.425 C  
ENDROOT
BRANCH   2   5
HETATM    5  C   UNL     1      -9.445  14.785  66.351  1.00  0.00    -0.301 C  
BRANCH   5   6
HETATM    6  C   UNL     1      -8.996  16.245  66.639  1.00  0.00    -0.251 C  
HETATM    7  H   UNL     1      -7.458  17.414  66.178  1.00  0.00     0.000 HD 
HETATM    8  O   UNL     1      -7.732  16.521  66.002  1.00  0.00    -0.165 OA 
BRANCH   6   9
HETATM    9  C   UNL     1      -8.924  16.709  68.088  1.00  0.00    -0.210 C  
HETATM   10  C   UNL     1     -10.247  17.330  68.494  1.00  0.00    -0.358 C  
HETATM   11  O   UNL     1     -10.755  18.101  67.640  1.00  0.00    -0.416 OA 
HETATM   12  O   UNL     1     -10.721  16.879  69.570  1.00  0.00    -0.326 OA 
ENDBRANCH   6   9
ENDBRANCH   5   6
ENDBRANCH   2   5
TORSDOF 3
ENDMDL
MODEL       45
REMARK 921   NORMALIZED FREE ENERGY PREDICTED BY IDOCK:   -3.02 KCAL/MOL
REMARK 922        TOTAL FREE ENERGY PREDICTED BY IDOCK:   -3.92 KCAL/MOL
REMARK 923 INTER-LIGAND FREE ENERGY PREDICTED BY IDOCK:   -4.26 KCAL/MOL
REMARK 924 INTRA-LIGAND FREE ENERGY PREDICTED BY IDOCK:    0.34 KCAL/MOL
REMARK 927      BINDING AFFINITY PREDICTED BY RF-SCORE:    0.00 PKD
ROOT
HETATM    1  C   UNL     1     -10.709  17.372  68.315  1.00  0.00    -0.327 C  
HETATM    2  N   UNL     1      -9.799  16.979  67.162  1.00  0.00    -0.262 N  
HETATM    3  C   UNL     1      -8.653  16.157  67.742  1.00  0.00    -0.167 C  
HETATM    4  C   UNL     1      -9.238  18.218  66.500  1.00  0.00    -0.292 C  
ENDROOT
BRANCH   2   5
HETATM    5  C   UNL     1     -10.528  16.064  66.135  1.00  0.00    -0.326 C  
BRANCH   5   6
HETATM    6  C   UNL     1     -10.633  14.542  66.432  1.00  0.00    -0.302 C  
HETATM    7  H   UNL     1      -9.951  12.852  65.643  1.00  0.00     0.000 HD 
HETATM    8  O   UNL     1      -9.887  13.782  65.461  1.00  0.00    -0.254 OA 
BRANCH   6   9
HETATM    9  C   UNL     1     -12.019  13.925  66.575  1.00  0.00    -0.470 C  
HETATM   10  C   UNL     1     -12.642  13.741  65.205  1.00  0.00    -0.473 C  
HETATM   11  O   UNL     1     -12.495  14.714  64.421  1.00  0.00    -0.624 OA 
HETATM   12  O   UNL     1     -13.100  12.587  64.995  1.00  0.00    -0.765 OA 
ENDBRANCH   6   9
ENDBRANCH   5   6
ENDBRANCH   2   5
TORSDOF 3
ENDMDL
MODEL       46
REMARK 921   NORMALIZED FREE ENERGY PREDICTED BY IDOCK:   -3.01 KCAL/MOL
REMARK 922        TOTAL FREE ENERGY PREDICTED BY IDOCK:   -3.90 KCAL/MOL
REMARK 923 INTER-LIGAND FREE ENERGY PREDICTED BY IDOCK:   -3.60 KCAL/MOL
REMARK 924 INTRA-LIGAND FREE ENERGY PREDICTED BY IDOCK:   -0.30 KCAL/MOL
REMARK 927      BINDING AFFINITY PREDICTED BY RF-SCORE:    0.00 PKD
ROOT
HETATM    1  C   UNL     1      -9.449  13.293  68.039  1.00  0.00    -0.219 C  
HETATM    2  N   UNL     1     -10.754  13.898  67.546  1.00  0.00    -0.265 N  
HETATM    3  C   UNL     1     -10.928  13.487  66.088  1.00  0.00    -0.284 C  
HETATM    4  C   UNL     1     -10.693  15.407  67.635  1.00  0.00    -0.292 C  
ENDROOT
BRANCH   2   5
HETATM    5  C   UNL     1     -11.982  13.331  68.318  1.00  0.00    -0.302 C  
BRANCH   5   6
HETATM    6  C   UNL     1     -11.811  12.942  69.813  1.00  0.00    -0.310 C  
HETATM    7  H   UNL     1     -11.709  11.270  70.881  1.00  0.00     0.000 HD 
HETATM    8  O   UNL     1     -11.814  11.508  69.967  1.00  0.00    -0.310 OA 
BRANCH   6   9
HETATM    9  C   UNL     1     -12.767  13.545  70.833  1.00  0.00    -0.366 C  
HETATM   10  C   UNL     1     -12.411  14.999  71.073  1.00  0.00    -0.338 C  
HETATM   11  O   UNL     1     -11.180  15.231  71.192  1.00  0.00    -0.339 OA 
HETATM   12  O   UNL     1     -13.385  15.793  70.981  1.00  0.00    -0.580 OA 
ENDBRANCH   6   9
ENDBRANCH   5   6
ENDBRANCH   2   5
TORSDOF 3
ENDMDL
MODEL       47
REMARK 921   NORMALIZED FREE ENERGY PREDICTED BY IDOCK:   -3.01 KCAL/MOL
REMARK 922        TOTAL FREE ENERGY PREDICTED BY IDOCK:   -3.90 KCAL/MOL
REMARK 923 INTER-LIGAND FREE ENERGY PREDICTED BY IDOCK:   -3.79 KCAL/MOL
REMARK 924 INTRA-LIGAND FREE ENERGY PREDICTED BY IDOCK:   -0.11 KCAL/MOL
REMARK 927      BINDING AFFINITY PREDICTED BY RF-SCORE:    0.00 PKD
ROOT
HETATM    1  C   UNL     1      -9.692  11.577  63.093  1.00  0.00    -0.390 C  
HETATM    2  N   UNL     1     -10.839  11.990  64.003  1.00  0.00    -0.340 N  
HETATM    3  C   UNL     1     -10.767  11.123  65.254  1.00  0.00    -0.203 C  
HETATM    4  C   UNL     1     -12.162  11.755  63.308  1.00  0.00    -0.285 C  
ENDROOT
BRANCH   2   5
HETATM    5  C   UNL     1     -10.698  13.467  64.476  1.00  0.00    -0.418 C  
BRANCH   5   6
HETATM    6  C   UNL     1     -11.628  13.980  65.610  1.00  0.00    -0.331 C  
HETATM    7  H   UNL     1     -13.454  14.746  65.763  1.00  0.00     0.000 HD 
HETATM    8  O   UNL     1     -12.885  14.433  65.069  1.00  0.00    -0.631 OA 
BRANCH   6   9
HETATM    9  C   UNL     1     -11.094  15.044  66.561  1.00  0.00    -0.329 C  
HETATM   10  C   UNL     1     -11.112  14.518  67.983  1.00  0.00    -0.276 C  
HETATM   11  O   UNL     1     -12.157  13.895  68.304  1.00  0.00    -0.366 OA 
HETATM   12  O   UNL     1     -10.023  14.657  68.600  1.00  0.00    -0.223 OA 
ENDBRANCH   6   9
ENDBRANCH   5   6
ENDBRANCH   2   5
TORSDOF 3
ENDMDL
MODEL       48
REMARK 921   NORMALIZED FREE ENERGY PREDICTED BY IDOCK:   -2.99 KCAL/MOL
REMARK 922        TOTAL FREE ENERGY PREDICTED BY IDOCK:   -3.87 KCAL/MOL
REMARK 923 INTER-LIGAND FREE ENERGY PREDICTED BY IDOCK:   -4.21 KCAL/MOL
REMARK 924 INTRA-LIGAND FREE ENERGY PREDICTED BY IDOCK:    0.33 KCAL/MOL
REMARK 927      BINDING AFFINITY PREDICTED BY RF-SCORE:    0.00 PKD
ROOT
HETATM    1  C   UNL     1     -11.108  12.818  64.234  1.00  0.00    -0.370 C  
HETATM    2  N   UNL     1     -11.229  13.661  65.494  1.00  0.00    -0.292 N  
HETATM    3  C   UNL     1     -10.707  12.824  66.656  1.00  0.00    -0.261 C  
HETATM    4  C   UNL     1     -12.679  14.012  65.745  1.00  0.00    -0.450 C  
ENDROOT
BRANCH   2   5
HETATM    5  C   UNL     1     -10.337  14.935  65.426  1.00  0.00    -0.388 C  
BRANCH   5   6
HETATM    6  C   UNL     1     -10.953  16.302  65.837  1.00  0.00    -0.037 C  
HETATM    7  H   UNL     1     -11.391  18.027  64.956  1.00  0.00     0.000 HD 
HETATM    8  O   UNL     1     -11.014  17.192  64.705  1.00  0.00    -1.005 OA 
BRANCH   6   9
HETATM    9  C   UNL     1     -10.339  17.049  67.014  1.00  0.00    -0.304 C  
HETATM   10  C   UNL     1      -9.178  17.897  66.533  1.00  0.00    -0.273 C  
HETATM   11  O   UNL     1      -8.409  17.329  65.715  1.00  0.00    -0.535 OA 
HETATM   12  O   UNL     1      -9.221  19.097  66.912  1.00  0.00    -0.291 OA 
ENDBRANCH   6   9
ENDBRANCH   5   6
ENDBRANCH   2   5
TORSDOF 3
ENDMDL
MODEL       49
REMARK 921   NORMALIZED FREE ENERGY PREDICTED BY IDOCK:   -2.99 KCAL/MOL
REMARK 922        TOTAL FREE ENERGY PREDICTED BY IDOCK:   -3.87 KCAL/MOL
REMARK 923 INTER-LIGAND FREE ENERGY PREDICTED BY IDOCK:   -3.64 KCAL/MOL
REMARK 924 INTRA-LIGAND FREE ENERGY PREDICTED BY IDOCK:   -0.23 KCAL/MOL
REMARK 927      BINDING AFFINITY PREDICTED BY RF-SCORE:    0.00 PKD
ROOT
HETATM    1  C   UNL     1      -8.840   9.573  68.116  1.00  0.00    -0.124 C  
HETATM    2  N   UNL     1      -9.790   9.627  66.929  1.00  0.00    -0.188 N  
HETATM    3  C   UNL     1     -10.499   8.280  66.848  1.00  0.00    -0.295 C  
HETATM    4  C   UNL     1      -9.012   9.858  65.652  1.00  0.00    -0.171 C  
ENDROOT
BRANCH   2   5
HETATM    5  C   UNL     1     -10.899  10.703  67.124  1.00  0.00    -0.270 C  
BRANCH   5   6
HETATM    6  C   UNL     1     -10.703  12.103  66.478  1.00  0.00    -0.255 C  
HETATM    7  H   UNL     1      -9.775  13.800  66.932  1.00  0.00     0.000 HD 
HETATM    8  O   UNL     1      -9.895  12.944  67.326  1.00  0.00    -0.212 OA 
BRANCH   6   9
HETATM    9  C   UNL     1     -11.939  12.884  66.051  1.00  0.00    -0.505 C  
HETATM   10  C   UNL     1     -12.222  12.635  64.583  1.00  0.00    -0.452 C  
HETATM   11  O   UNL     1     -11.209  12.658  63.837  1.00  0.00    -0.381 OA 
HETATM   12  O   UNL     1     -13.411  12.303  64.334  1.00  0.00    -0.786 OA 
ENDBRANCH   6   9
ENDBRANCH   5   6
ENDBRANCH   2   5
TORSDOF 3
ENDMDL
MODEL       50
REMARK 921   NORMALIZED FREE ENERGY PREDICTED BY IDOCK:   -2.99 KCAL/MOL
REMARK 922        TOTAL FREE ENERGY PREDICTED BY IDOCK:   -3.87 KCAL/MOL
REMARK 923 INTER-LIGAND FREE ENERGY PREDICTED BY IDOCK:   -3.50 KCAL/MOL
REMARK 924 INTRA-LIGAND FREE ENERGY PREDICTED BY IDOCK:   -0.37 KCAL/MOL
REMARK 927      BINDING AFFINITY PREDICTED BY RF-SCORE:    0.00 PKD
ROOT
HETATM    1  C   UNL     1     -11.815  12.609  63.459  1.00  0.00    -0.541 C  
HETATM    2  N   UNL     1     -11.531  13.119  64.864  1.00  0.00    -0.300 N  
HETATM    3  C   UNL     1     -12.772  13.865  65.340  1.00  0.00    -0.490 C  
HETATM    4  C   UNL     1     -10.355  14.070  64.842  1.00  0.00    -0.409 C  
ENDROOT
BRANCH   2   5
HETATM    5  C   UNL     1     -11.301  11.951  65.868  1.00  0.00    -0.308 C  
BRANCH   5   6
HETATM    6  C   UNL     1     -10.243  12.130  66.992  1.00  0.00    -0.207 C  
HETATM    7  H   UNL     1      -8.601  11.198  67.610  1.00  0.00     0.000 HD 
HETATM    8  O   UNL     1      -9.248  11.089  66.922  1.00  0.00    -0.153 OA 
BRANCH   6   9
HETATM    9  C   UNL     1     -10.728  12.246  68.432  1.00  0.00    -0.255 C  
HETATM   10  C   UNL     1     -11.105  13.683  68.733  1.00  0.00    -0.270 C  
HETATM   11  O   UNL     1     -10.297  14.545  68.299  1.00  0.00    -0.227 OA 
HETATM   12  O   UNL     1     -12.243  13.822  69.253  1.00  0.00    -0.337 OA 
ENDBRANCH   6   9
ENDBRANCH   5   6
ENDBRANCH   2   5
TORSDOF 3
ENDMDL
MODEL       51
REMARK 921   NORMALIZED FREE ENERGY PREDICTED BY IDOCK:   -2.96 KCAL/MOL
REMARK 922        TOTAL FREE ENERGY PREDICTED BY IDOCK:   -3.85 KCAL/MOL
REMARK 923 INTER-LIGAND FREE ENERGY PREDICTED BY IDOCK:   -3.62 KCAL/MOL
REMARK 924 INTRA-LIGAND FREE ENERGY PREDICTED BY IDOCK:   -0.23 KCAL/MOL
REMARK 927      BINDING AFFINITY PREDICTED BY RF-SCORE:    0.00 PKD
ROOT
HETATM    1  C   UNL     1     -11.117   7.611  72.916  1.00  0.00    -0.393 C  
HETATM    2  N   UNL     1     -11.820   8.045  71.638  1.00  0.00    -0.277 N  
HETATM    3  C   UNL     1     -13.312   8.121  71.940  1.00  0.00    -0.324 C  
HETATM    4  C   UNL     1     -11.583   7.025  70.546  1.00  0.00    -0.319 C  
ENDROOT
BRANCH   2   5
HETATM    5  C   UNL     1     -11.382   9.471  71.192  1.00  0.00    -0.370 C  
BRANCH   5   6
HETATM    6  C   UNL     1     -10.312   9.608  70.073  1.00  0.00    -0.257 C  
HETATM    7  H   UNL     1      -8.330   9.576  69.940  1.00  0.00     0.000 HD 
HETATM    8  O   UNL     1      -8.984   9.492  70.624  1.00  0.00    -0.241 OA 
BRANCH   6   9
HETATM    9  C   UNL     1     -10.360  10.833  69.169  1.00  0.00    -0.238 C  
HETATM   10  C   UNL     1     -11.088  10.494  67.883  1.00  0.00    -0.304 C  
HETATM   11  O   UNL     1     -10.779   9.384  67.376  1.00  0.00    -0.280 OA 
HETATM   12  O   UNL     1     -12.001  11.304  67.575  1.00  0.00    -0.612 OA 
ENDBRANCH   6   9
ENDBRANCH   5   6
ENDBRANCH   2   5
TORSDOF 3
ENDMDL
MODEL       52
REMARK 921   NORMALIZED FREE ENERGY PREDICTED BY IDOCK:   -2.95 KCAL/MOL
REMARK 922        TOTAL FREE ENERGY PREDICTED BY IDOCK:   -3.83 KCAL/MOL
REMARK 923 INTER-LIGAND FREE ENERGY PREDICTED BY IDOCK:   -3.59 KCAL/MOL
REMARK 924 INTRA-LIGAND FREE ENERGY PREDICTED BY IDOCK:   -0.24 KCAL/MOL
REMARK 927      BINDING AFFINITY PREDICTED BY RF-SCORE:    0.00 PKD
ROOT
HETATM    1  C   UNL     1     -10.017  19.630  68.579  1.00  0.00    -0.443 C  
HETATM    2  N   UNL     1      -9.848  19.037  67.189  1.00  0.00    -0.312 N  
HETATM    3  C   UNL     1      -8.357  19.026  66.873  1.00  0.00    -0.277 C  
HETATM    4  C   UNL     1     -10.567  19.894  66.170  1.00  0.00    -0.420 C  
ENDROOT
BRANCH   2   5
HETATM    5  C   UNL     1     -10.327  17.557  67.129  1.00  0.00    -0.330 C  
BRANCH   5   6
HETATM    6  C   UNL     1      -9.706  16.613  66.062  1.00  0.00    -0.278 C  
HETATM    7  H   UNL     1     -10.159  15.982  64.234  1.00  0.00     0.000 HD 
HETATM    8  O   UNL     1     -10.539  16.559  64.886  1.00  0.00    -0.689 OA 
BRANCH   6   9
HETATM    9  C   UNL     1      -9.347  15.191  66.472  1.00  0.00    -0.308 C  
HETATM   10  C   UNL     1      -8.013  15.185  67.192  1.00  0.00    -0.215 C  
HETATM   11  O   UNL     1      -7.123  15.901  66.664  1.00  0.00    -0.195 OA 
HETATM   12  O   UNL     1      -8.021  14.576  68.294  1.00  0.00    -0.122 OA 
ENDBRANCH   6   9
ENDBRANCH   5   6
ENDBRANCH   2   5
TORSDOF 3
ENDMDL
MODEL       53
REMARK 921   NORMALIZED FREE ENERGY PREDICTED BY IDOCK:   -2.94 KCAL/MOL
REMARK 922        TOTAL FREE ENERGY PREDICTED BY IDOCK:   -3.82 KCAL/MOL
REMARK 923 INTER-LIGAND FREE ENERGY PREDICTED BY IDOCK:   -3.61 KCAL/MOL
REMARK 924 INTRA-LIGAND FREE ENERGY PREDICTED BY IDOCK:   -0.21 KCAL/MOL
REMARK 927      BINDING AFFINITY PREDICTED BY RF-SCORE:    0.00 PKD
ROOT
HETATM    1  C   UNL     1      -9.960  18.559  68.521  1.00  0.00    -0.384 C  
HETATM    2  N   UNL     1      -9.513  17.828  67.265  1.00  0.00    -0.251 N  
HETATM    3  C   UNL     1      -8.072  18.237  66.985  1.00  0.00    -0.230 C  
HETATM    4  C   UNL     1     -10.382  18.232  66.094  1.00  0.00    -0.398 C  
ENDROOT
BRANCH   2   5
HETATM    5  C   UNL     1      -9.507  16.284  67.465  1.00  0.00    -0.227 C  
BRANCH   5   6
HETATM    6  C   UNL     1     -10.762  15.471  67.041  1.00  0.00    -0.321 C  
HETATM    7  H   UNL     1     -12.485  14.916  67.859  1.00  0.00     0.000 HD 
HETATM    8  O   UNL     1     -11.717  15.413  68.119  1.00  0.00    -0.351 OA 
BRANCH   6   9
HETATM    9  C   UNL     1     -10.563  14.064  66.489  1.00  0.00    -0.279 C  
HETATM   10  C   UNL     1     -11.020  14.009  65.045  1.00  0.00    -0.375 C  
HETATM   11  O   UNL     1     -12.107  14.599  64.811  1.00  0.00    -0.421 OA 
HETATM   12  O   UNL     1     -10.181  13.502  64.255  1.00  0.00    -0.368 OA 
ENDBRANCH   6   9
ENDBRANCH   5   6
ENDBRANCH   2   5
TORSDOF 3
ENDMDL
MODEL       54
REMARK 921   NORMALIZED FREE ENERGY PREDICTED BY IDOCK:   -2.94 KCAL/MOL
REMARK 922        TOTAL FREE ENERGY PREDICTED BY IDOCK:   -3.82 KCAL/MOL
REMARK 923 INTER-LIGAND FREE ENERGY PREDICTED BY IDOCK:   -3.83 KCAL/MOL
REMARK 924 INTRA-LIGAND FREE ENERGY PREDICTED BY IDOCK:    0.01 KCAL/MOL
REMARK 927      BINDING AFFINITY PREDICTED BY RF-SCORE:    0.00 PKD
ROOT
HETATM    1  C   UNL     1     -10.233   6.499  71.136  1.00  0.00    -0.192 C  
HETATM    2  N   UNL     1     -10.908   7.549  72.006  1.00  0.00    -0.226 N  
HETATM    3  C   UNL     1     -10.201   8.876  71.754  1.00  0.00    -0.344 C  
HETATM    4  C   UNL     1     -10.768   7.180  73.467  1.00  0.00    -0.333 C  
ENDROOT
BRANCH   2   5
HETATM    5  C   UNL     1     -12.399   7.757  71.611  1.00  0.00    -0.321 C  
BRANCH   5   6
HETATM    6  C   UNL     1     -13.059   9.138  71.883  1.00  0.00    -0.411 C  
HETATM    7  H   UNL     1     -14.729   9.816  72.716  1.00  0.00     0.000 HD 
HETATM    8  O   UNL     1     -14.326   8.971  72.550  1.00  0.00    -0.570 OA 
BRANCH   6   9
HETATM    9  C   UNL     1     -13.245  10.095  70.712  1.00  0.00    -0.290 C  
HETATM   10  C   UNL     1     -12.867  11.501  71.134  1.00  0.00    -0.315 C  
HETATM   11  O   UNL     1     -13.292  11.847  72.267  1.00  0.00    -0.471 OA 
HETATM   12  O   UNL     1     -12.065  12.078  70.354  1.00  0.00    -0.351 OA 
ENDBRANCH   6   9
ENDBRANCH   5   6
ENDBRANCH   2   5
TORSDOF 3
ENDMDL
MODEL       55
REMARK 921   NORMALIZED FREE ENERGY PREDICTED BY IDOCK:   -2.89 KCAL/MOL
REMARK 922        TOTAL FREE ENERGY PREDICTED BY IDOCK:   -3.76 KCAL/MOL
REMARK 923 INTER-LIGAND FREE ENERGY PREDICTED BY IDOCK:   -3.47 KCAL/MOL
REMARK 924 INTRA-LIGAND FREE ENERGY PREDICTED BY IDOCK:   -0.29 KCAL/MOL
REMARK 927      BINDING AFFINITY PREDICTED BY RF-SCORE:    0.00 PKD
ROOT
HETATM    1  C   UNL     1     -11.428   7.136  70.521  1.00  0.00    -0.295 C  
HETATM    2  N   UNL     1     -10.521   7.807  71.541  1.00  0.00    -0.204 N  
HETATM    3  C   UNL     1      -9.180   7.082  71.508  1.00  0.00    -0.153 C  
HETATM    4  C   UNL     1     -11.118   7.687  72.925  1.00  0.00    -0.393 C  
ENDROOT
BRANCH   2   5
HETATM    5  C   UNL     1     -10.233   9.292  71.170  1.00  0.00    -0.317 C  
BRANCH   5   6
HETATM    6  C   UNL     1     -11.018   9.934  69.992  1.00  0.00    -0.291 C  
HETATM    7  H   UNL     1     -10.618  10.594  68.162  1.00  0.00     0.000 HD 
HETATM    8  O   UNL     1     -10.138  10.201  68.882  1.00  0.00    -0.181 OA 
BRANCH   6   9
HETATM    9  C   UNL     1     -11.850  11.180  70.268  1.00  0.00    -0.455 C  
HETATM   10  C   UNL     1     -12.986  10.841  71.213  1.00  0.00    -0.402 C  
HETATM   11  O   UNL     1     -13.584   9.764  70.958  1.00  0.00    -0.320 OA 
HETATM   12  O   UNL     1     -13.083  11.612  72.204  1.00  0.00    -0.457 OA 
ENDBRANCH   6   9
ENDBRANCH   5   6
ENDBRANCH   2   5
TORSDOF 3
ENDMDL
MODEL       56
REMARK 921   NORMALIZED FREE ENERGY PREDICTED BY IDOCK:   -2.89 KCAL/MOL
REMARK 922        TOTAL FREE ENERGY PREDICTED BY IDOCK:   -3.76 KCAL/MOL
REMARK 923 INTER-LIGAND FREE ENERGY PREDICTED BY IDOCK:   -3.60 KCAL/MOL
REMARK 924 INTRA-LIGAND FREE ENERGY PREDICTED BY IDOCK:   -0.16 KCAL/MOL
REMARK 927      BINDING AFFINITY PREDICTED BY RF-SCORE:    0.00 PKD
ROOT
HETATM    1  C   UNL     1     -10.013   6.790  70.675  1.00  0.00    -0.187 C  
HETATM    2  N   UNL     1     -11.081   7.074  71.720  1.00  0.00    -0.235 N  
HETATM    3  C   UNL     1     -10.451   7.954  72.793  1.00  0.00    -0.346 C  
HETATM    4  C   UNL     1     -11.548   5.779  72.348  1.00  0.00    -0.264 C  
ENDROOT
BRANCH   2   5
HETATM    5  C   UNL     1     -12.273   7.881  71.125  1.00  0.00    -0.255 C  
BRANCH   5   6
HETATM    6  C   UNL     1     -12.673   9.225  71.794  1.00  0.00    -0.381 C  
HETATM    7  H   UNL     1     -14.024   9.853  73.108  1.00  0.00     0.000 HD 
HETATM    8  O   UNL     1     -13.779   9.031  72.699  1.00  0.00    -0.470 OA 
BRANCH   6   9
HETATM    9  C   UNL     1     -12.979  10.419  70.898  1.00  0.00    -0.475 C  
HETATM   10  C   UNL     1     -11.840  10.631  69.920  1.00  0.00    -0.315 C  
HETATM   11  O   UNL     1     -10.689  10.531  70.417  1.00  0.00    -0.217 OA 
HETATM   12  O   UNL     1     -12.203  10.740  68.719  1.00  0.00    -0.460 OA 
ENDBRANCH   6   9
ENDBRANCH   5   6
ENDBRANCH   2   5
TORSDOF 3
ENDMDL
MODEL       57
REMARK 921   NORMALIZED FREE ENERGY PREDICTED BY IDOCK:   -2.88 KCAL/MOL
REMARK 922        TOTAL FREE ENERGY PREDICTED BY IDOCK:   -3.74 KCAL/MOL
REMARK 923 INTER-LIGAND FREE ENERGY PREDICTED BY IDOCK:   -3.50 KCAL/MOL
REMARK 924 INTRA-LIGAND FREE ENERGY PREDICTED BY IDOCK:   -0.24 KCAL/MOL
REMARK 927      BINDING AFFINITY PREDICTED BY RF-SCORE:    0.00 PKD
ROOT
HETATM    1  C   UNL     1      -8.490  15.354  69.020  1.00  0.00    -0.229 C  
HETATM    2  N   UNL     1      -9.361  14.943  67.842  1.00  0.00    -0.189 N  
HETATM    3  C   UNL     1     -10.802  15.296  68.193  1.00  0.00    -0.273 C  
HETATM    4  C   UNL     1      -9.255  13.451  67.615  1.00  0.00    -0.212 C  
ENDROOT
BRANCH   2   5
HETATM    5  C   UNL     1      -9.007  15.742  66.554  1.00  0.00    -0.306 C  
BRANCH   5   6
HETATM    6  C   UNL     1      -9.722  17.097  66.295  1.00  0.00    -0.278 C  
HETATM    7  H   UNL     1     -10.854  17.900  64.874  1.00  0.00     0.000 HD 
HETATM    8  O   UNL     1     -10.416  17.071  65.032  1.00  0.00    -0.660 OA 
BRANCH   6   9
HETATM    9  C   UNL     1      -8.901  18.378  66.375  1.00  0.00    -0.262 C  
HETATM   10  C   UNL     1      -9.436  19.263  67.484  1.00  0.00    -0.310 C  
HETATM   11  O   UNL     1     -10.690  19.349  67.535  1.00  0.00    -0.459 OA 
HETATM   12  O   UNL     1      -8.557  19.677  68.286  1.00  0.00    -0.326 OA 
ENDBRANCH   6   9
ENDBRANCH   5   6
ENDBRANCH   2   5
TORSDOF 3
ENDMDL
MODEL       58
REMARK 921   NORMALIZED FREE ENERGY PREDICTED BY IDOCK:   -2.86 KCAL/MOL
REMARK 922        TOTAL FREE ENERGY PREDICTED BY IDOCK:   -3.72 KCAL/MOL
REMARK 923 INTER-LIGAND FREE ENERGY PREDICTED BY IDOCK:   -3.87 KCAL/MOL
REMARK 924 INTRA-LIGAND FREE ENERGY PREDICTED BY IDOCK:    0.15 KCAL/MOL
REMARK 927      BINDING AFFINITY PREDICTED BY RF-SCORE:    0.00 PKD
ROOT
HETATM    1  C   UNL     1      -9.677  13.621  67.643  1.00  0.00    -0.228 C  
HETATM    2  N   UNL     1     -11.166  13.667  67.953  1.00  0.00    -0.263 N  
HETATM    3  C   UNL     1     -11.717  12.260  67.758  1.00  0.00    -0.337 C  
HETATM    4  C   UNL     1     -11.864  14.613  67.001  1.00  0.00    -0.337 C  
ENDROOT
BRANCH   2   5
HETATM    5  C   UNL     1     -11.436  14.050  69.438  1.00  0.00    -0.290 C  
BRANCH   5   6
HETATM    6  C   UNL     1     -11.860  15.509  69.768  1.00  0.00    -0.359 C  
HETATM    7  H   UNL     1     -11.199  17.341  69.381  1.00  0.00     0.000 HD 
HETATM    8  O   UNL     1     -10.940  16.449  69.179  1.00  0.00    -0.303 OA 
BRANCH   6   9
HETATM    9  C   UNL     1     -12.079  15.888  71.227  1.00  0.00    -0.487 C  
HETATM   10  C   UNL     1     -13.392  15.311  71.716  1.00  0.00    -0.448 C  
HETATM   11  O   UNL     1     -14.354  15.428  70.914  1.00  0.00    -0.379 OA 
HETATM   12  O   UNL     1     -13.306  14.671  72.797  1.00  0.00    -0.445 OA 
ENDBRANCH   6   9
ENDBRANCH   5   6
ENDBRANCH   2   5
TORSDOF 3
ENDMDL
MODEL       59
REMARK 921   NORMALIZED FREE ENERGY PREDICTED BY IDOCK:   -2.86 KCAL/MOL
REMARK 922        TOTAL FREE ENERGY PREDICTED BY IDOCK:   -3.72 KCAL/MOL
REMARK 923 INTER-LIGAND FREE ENERGY PREDICTED BY IDOCK:   -3.51 KCAL/MOL
REMARK 924 INTRA-LIGAND FREE ENERGY PREDICTED BY IDOCK:   -0.22 KCAL/MOL
REMARK 927      BINDING AFFINITY PREDICTED BY RF-SCORE:    0.00 PKD
ROOT
HETATM    1  C   UNL     1     -13.348  13.399  72.440  1.00  0.00    -0.528 C  
HETATM    2  N   UNL     1     -12.736  14.315  71.391  1.00  0.00    -0.332 N  
HETATM    3  C   UNL     1     -11.613  15.096  72.064  1.00  0.00    -0.412 C  
HETATM    4  C   UNL     1     -13.779  15.283  70.878  1.00  0.00    -0.293 C  
ENDROOT
BRANCH   2   5
HETATM    5  C   UNL     1     -12.085  13.510  70.228  1.00  0.00    -0.355 C  
BRANCH   5   6
HETATM    6  C   UNL     1     -11.677  14.265  68.933  1.00  0.00    -0.328 C  
HETATM    7  H   UNL     1     -12.120  14.185  66.998  1.00  0.00     0.000 HD 
HETATM    8  O   UNL     1     -12.369  13.723  67.791  1.00  0.00    -0.251 OA 
BRANCH   6   9
HETATM    9  C   UNL     1     -10.195  14.380  68.596  1.00  0.00    -0.245 C  
HETATM   10  C   UNL     1      -9.805  15.841  68.494  1.00  0.00    -0.209 C  
HETATM   11  O   UNL     1     -10.621  16.566  67.869  1.00  0.00    -0.308 OA 
HETATM   12  O   UNL     1      -8.788  16.154  69.167  1.00  0.00    -0.246 OA 
ENDBRANCH   6   9
ENDBRANCH   5   6
ENDBRANCH   2   5
TORSDOF 3
ENDMDL
MODEL       60
REMARK 921   NORMALIZED FREE ENERGY PREDICTED BY IDOCK:   -2.84 KCAL/MOL
REMARK 922        TOTAL FREE ENERGY PREDICTED BY IDOCK:   -3.70 KCAL/MOL
REMARK 923 INTER-LIGAND FREE ENERGY PREDICTED BY IDOCK:   -3.44 KCAL/MOL
REMARK 924 INTRA-LIGAND FREE ENERGY PREDICTED BY IDOCK:   -0.26 KCAL/MOL
REMARK 927      BINDING AFFINITY PREDICTED BY RF-SCORE:    0.00 PKD
ROOT
HETATM    1  C   UNL     1      -9.158  15.960  68.680  1.00  0.00    -0.206 C  
HETATM    2  N   UNL     1     -10.117  15.667  67.536  1.00  0.00    -0.249 N  
HETATM    3  C   UNL     1     -11.471  15.329  68.148  1.00  0.00    -0.346 C  
HETATM    4  C   UNL     1      -9.622  14.483  66.735  1.00  0.00    -0.263 C  
ENDROOT
BRANCH   2   5
HETATM    5  C   UNL     1     -10.335  16.915  66.631  1.00  0.00    -0.299 C  
BRANCH   5   6
HETATM    6  C   UNL     1      -9.829  18.298  67.129  1.00  0.00    -0.324 C  
HETATM    7  H   UNL     1     -10.627  19.970  67.847  1.00  0.00     0.000 HD 
HETATM    8  O   UNL     1     -10.936  19.124  67.541  1.00  0.00    -0.456 OA 
BRANCH   6   9
HETATM    9  C   UNL     1      -8.926  19.113  66.213  1.00  0.00    -0.320 C  
HETATM   10  C   UNL     1      -7.486  18.674  66.389  1.00  0.00    -0.249 C  
HETATM   11  O   UNL     1      -7.128  18.495  67.582  1.00  0.00    -0.207 OA 
HETATM   12  O   UNL     1      -6.888  18.414  65.311  1.00  0.00    -0.520 OA 
ENDBRANCH   6   9
ENDBRANCH   5   6
ENDBRANCH   2   5
TORSDOF 3
ENDMDL
MODEL       61
REMARK 921   NORMALIZED FREE ENERGY PREDICTED BY IDOCK:   -2.83 KCAL/MOL
REMARK 922        TOTAL FREE ENERGY PREDICTED BY IDOCK:   -3.69 KCAL/MOL
REMARK 923 INTER-LIGAND FREE ENERGY PREDICTED BY IDOCK:   -3.41 KCAL/MOL
REMARK 924 INTRA-LIGAND FREE ENERGY PREDICTED BY IDOCK:   -0.28 KCAL/MOL
REMARK 927      BINDING AFFINITY PREDICTED BY RF-SCORE:    0.00 PKD
ROOT
HETATM    1  C   UNL     1     -12.156  14.452  66.907  1.00  0.00    -0.356 C  
HETATM    2  N   UNL     1     -11.582  13.918  65.604  1.00  0.00    -0.325 N  
HETATM    3  C   UNL     1     -10.099  14.270  65.578  1.00  0.00    -0.345 C  
HETATM    4  C   UNL     1     -12.271  14.574  64.427  1.00  0.00    -0.458 C  
ENDROOT
BRANCH   2   5
HETATM    5  C   UNL     1     -11.673  12.365  65.524  1.00  0.00    -0.407 C  
BRANCH   5   6
HETATM    6  C   UNL     1     -10.575  11.592  64.742  1.00  0.00    -0.305 C  
HETATM    7  H   UNL     1     -10.275  10.975  62.878  1.00  0.00     0.000 HD 
HETATM    8  O   UNL     1     -10.947  11.447  63.357  1.00  0.00    -0.383 OA 
BRANCH   6   9
HETATM    9  C   UNL     1     -10.127  10.235  65.271  1.00  0.00    -0.359 C  
HETATM   10  C   UNL     1      -9.193  10.427  66.450  1.00  0.00    -0.161 C  
HETATM   11  O   UNL     1      -8.330  11.330  66.301  1.00  0.00    -0.170 OA 
HETATM   12  O   UNL     1      -9.500   9.753  67.469  1.00  0.00    -0.145 OA 
ENDBRANCH   6   9
ENDBRANCH   5   6
ENDBRANCH   2   5
TORSDOF 3
ENDMDL
MODEL       62
REMARK 921   NORMALIZED FREE ENERGY PREDICTED BY IDOCK:   -2.83 KCAL/MOL
REMARK 922        TOTAL FREE ENERGY PREDICTED BY IDOCK:   -3.69 KCAL/MOL
REMARK 923 INTER-LIGAND FREE ENERGY PREDICTED BY IDOCK:   -3.43 KCAL/MOL
REMARK 924 INTRA-LIGAND FREE ENERGY PREDICTED BY IDOCK:   -0.26 KCAL/MOL
REMARK 927      BINDING AFFINITY PREDICTED BY RF-SCORE:    0.00 PKD
ROOT
HETATM    1  C   UNL     1     -10.704  13.275  64.232  1.00  0.00    -0.387 C  
HETATM    2  N   UNL     1     -10.971  14.345  65.279  1.00  0.00    -0.329 N  
HETATM    3  C   UNL     1     -12.245  13.953  66.019  1.00  0.00    -0.462 C  
HETATM    4  C   UNL     1     -11.176  15.685  64.609  1.00  0.00    -0.369 C  
ENDROOT
BRANCH   2   5
HETATM    5  C   UNL     1      -9.838  14.407  66.345  1.00  0.00    -0.295 C  
BRANCH   5   6
HETATM    6  C   UNL     1      -9.975  15.412  67.523  1.00  0.00    -0.226 C  
HETATM    7  H   UNL     1      -9.033  17.037  68.170  1.00  0.00     0.000 HD 
HETATM    8  O   UNL     1      -8.949  16.422  67.450  1.00  0.00    -0.189 OA 
BRANCH   6   9
HETATM    9  C   UNL     1     -10.020  14.863  68.944  1.00  0.00    -0.233 C  
HETATM   10  C   UNL     1     -11.448  14.863  69.450  1.00  0.00    -0.299 C  
HETATM   11  O   UNL     1     -12.103  15.905  69.188  1.00  0.00    -0.339 OA 
HETATM   12  O   UNL     1     -11.824  13.766  69.941  1.00  0.00    -0.297 OA 
ENDBRANCH   6   9
ENDBRANCH   5   6
ENDBRANCH   2   5
TORSDOF 3
ENDMDL
MODEL       63
REMARK 921   NORMALIZED FREE ENERGY PREDICTED BY IDOCK:   -2.79 KCAL/MOL
REMARK 922        TOTAL FREE ENERGY PREDICTED BY IDOCK:   -3.64 KCAL/MOL
REMARK 923 INTER-LIGAND FREE ENERGY PREDICTED BY IDOCK:   -3.48 KCAL/MOL
REMARK 924 INTRA-LIGAND FREE ENERGY PREDICTED BY IDOCK:   -0.15 KCAL/MOL
REMARK 927      BINDING AFFINITY PREDICTED BY RF-SCORE:    0.00 PKD
ROOT
HETATM    1  C   UNL     1     -11.262  14.903  67.138  1.00  0.00    -0.343 C  
HETATM    2  N   UNL     1     -11.374  14.379  65.714  1.00  0.00    -0.325 N  
HETATM    3  C   UNL     1     -10.993  15.518  64.776  1.00  0.00    -0.399 C  
HETATM    4  C   UNL     1     -12.797  13.953  65.429  1.00  0.00    -0.427 C  
ENDROOT
BRANCH   2   5
HETATM    5  C   UNL     1     -10.367  13.223  65.442  1.00  0.00    -0.306 C  
BRANCH   5   6
HETATM    6  C   UNL     1      -9.958  12.295  66.620  1.00  0.00    -0.215 C  
HETATM    7  H   UNL     1      -8.363  11.241  67.159  1.00  0.00     0.000 HD 
HETATM    8  O   UNL     1      -8.613  11.808  66.438  1.00  0.00    -0.179 OA 
BRANCH   6   9
HETATM    9  C   UNL     1     -10.862  11.118  66.965  1.00  0.00    -0.338 C  
HETATM   10  C   UNL     1     -11.095  11.072  68.462  1.00  0.00    -0.243 C  
HETATM   11  O   UNL     1     -10.070  11.269  69.165  1.00  0.00    -0.174 OA 
HETATM   12  O   UNL     1     -12.306  10.981  68.795  1.00  0.00    -0.533 OA 
ENDBRANCH   6   9
ENDBRANCH   5   6
ENDBRANCH   2   5
TORSDOF 3
ENDMDL
MODEL       64
REMARK 921   NORMALIZED FREE ENERGY PREDICTED BY IDOCK:   -2.79 KCAL/MOL
REMARK 922        TOTAL FREE ENERGY PREDICTED BY IDOCK:   -3.64 KCAL/MOL
REMARK 923 INTER-LIGAND FREE ENERGY PREDICTED BY IDOCK:   -3.47 KCAL/MOL
REMARK 924 INTRA-LIGAND FREE ENERGY PREDICTED BY IDOCK:   -0.16 KCAL/MOL
REMARK 927      BINDING AFFINITY PREDICTED BY RF-SCORE:    0.00 PKD
ROOT
HETATM    1  C   UNL     1      -7.632  17.350  66.191  1.00  0.00    -0.286 C  
HETATM    2  N   UNL     1      -7.427  18.851  66.334  1.00  0.00    -0.244 N  
HETATM    3  C   UNL     1      -6.295  19.250  65.395  1.00  0.00    -0.268 C  
HETATM    4  C   UNL     1      -7.036  19.186  67.757  1.00  0.00    -0.226 C  
ENDROOT
BRANCH   2   5
HETATM    5  C   UNL     1      -8.684  19.652  65.884  1.00  0.00    -0.114 C  
BRANCH   5   6
HETATM    6  C   UNL     1     -10.091  19.067  66.188  1.00  0.00    -0.406 C  
HETATM    7  H   UNL     1     -11.806  18.817  65.217  1.00  0.00     0.000 HD 
HETATM    8  O   UNL     1     -10.945  19.175  65.032  1.00  0.00    -0.404 OA 
BRANCH   6   9
HETATM    9  C   UNL     1     -10.847  19.589  67.404  1.00  0.00    -0.536 C  
HETATM   10  C   UNL     1     -10.260  18.993  68.668  1.00  0.00    -0.311 C  
HETATM   11  O   UNL     1     -10.001  17.763  68.603  1.00  0.00    -0.342 OA 
HETATM   12  O   UNL     1      -9.984  19.838  69.560  1.00  0.00    -0.337 OA 
ENDBRANCH   6   9
ENDBRANCH   5   6
ENDBRANCH   2   5
TORSDOF 3
ENDMDL
MODEL       65
REMARK 921   NORMALIZED FREE ENERGY PREDICTED BY IDOCK:   -2.78 KCAL/MOL
REMARK 922        TOTAL FREE ENERGY PREDICTED BY IDOCK:   -3.62 KCAL/MOL
REMARK 923 INTER-LIGAND FREE ENERGY PREDICTED BY IDOCK:   -3.35 KCAL/MOL
REMARK 924 INTRA-LIGAND FREE ENERGY PREDICTED BY IDOCK:   -0.27 KCAL/MOL
REMARK 927      BINDING AFFINITY PREDICTED BY RF-SCORE:    0.00 PKD
ROOT
HETATM    1  C   UNL     1     -10.259   8.490  68.957  1.00  0.00    -0.207 C  
HETATM    2  N   UNL     1     -10.422   7.037  68.534  1.00  0.00    -0.193 N  
HETATM    3  C   UNL     1      -9.063   6.363  68.678  1.00  0.00    -0.127 C  
HETATM    4  C   UNL     1     -10.864   6.965  67.089  1.00  0.00    -0.377 C  
ENDROOT
BRANCH   2   5
HETATM    5  C   UNL     1     -11.402   6.269  69.469  1.00  0.00    -0.404 C  
BRANCH   5   6
HETATM    6  C   UNL     1     -11.404   6.605  70.987  1.00  0.00    -0.315 C  
HETATM    7  H   UNL     1     -10.832   5.727  72.674  1.00  0.00     0.000 HD 
HETATM    8  O   UNL     1     -10.831   5.522  71.746  1.00  0.00    -0.242 OA 
BRANCH   6   9
HETATM    9  C   UNL     1     -12.720   7.014  71.637  1.00  0.00    -0.417 C  
HETATM   10  C   UNL     1     -12.771   8.522  71.787  1.00  0.00    -0.349 C  
HETATM   11  O   UNL     1     -11.706   9.050  72.200  1.00  0.00    -0.356 OA 
HETATM   12  O   UNL     1     -13.825   9.051  71.346  1.00  0.00    -0.361 OA 
ENDBRANCH   6   9
ENDBRANCH   5   6
ENDBRANCH   2   5
TORSDOF 3
ENDMDL
MODEL       66
REMARK 921   NORMALIZED FREE ENERGY PREDICTED BY IDOCK:   -2.76 KCAL/MOL
REMARK 922        TOTAL FREE ENERGY PREDICTED BY IDOCK:   -3.60 KCAL/MOL
REMARK 923 INTER-LIGAND FREE ENERGY PREDICTED BY IDOCK:   -3.22 KCAL/MOL
REMARK 924 INTRA-LIGAND FREE ENERGY PREDICTED BY IDOCK:   -0.38 KCAL/MOL
REMARK 927      BINDING AFFINITY PREDICTED BY RF-SCORE:    0.00 PKD
ROOT
HETATM    1  C   UNL     1     -11.498  11.783  68.371  1.00  0.00    -0.294 C  
HETATM    2  N   UNL     1     -11.241  13.055  67.578  1.00  0.00    -0.271 N  
HETATM    3  C   UNL     1      -9.751  13.363  67.677  1.00  0.00    -0.222 C  
HETATM    4  C   UNL     1     -12.027  14.203  68.171  1.00  0.00    -0.332 C  
ENDROOT
BRANCH   2   5
HETATM    5  C   UNL     1     -11.557  12.869  66.065  1.00  0.00    -0.375 C  
BRANCH   5   6
HETATM    6  C   UNL     1     -10.431  12.361  65.123  1.00  0.00    -0.292 C  
HETATM    7  H   UNL     1      -9.658  12.874  63.366  1.00  0.00     0.000 HD 
HETATM    8  O   UNL     1     -10.348  13.184  63.942  1.00  0.00    -0.354 OA 
BRANCH   6   9
HETATM    9  C   UNL     1     -10.445  10.898  64.698  1.00  0.00    -0.384 C  
HETATM   10  C   UNL     1      -9.589  10.080  65.644  1.00  0.00    -0.252 C  
HETATM   11  O   UNL     1      -8.488  10.606  65.952  1.00  0.00    -0.157 OA 
HETATM   12  O   UNL     1     -10.157   9.053  66.101  1.00  0.00    -0.290 OA 
ENDBRANCH   6   9
ENDBRANCH   5   6
ENDBRANCH   2   5
TORSDOF 3
ENDMDL
MODEL       67
REMARK 921   NORMALIZED FREE ENERGY PREDICTED BY IDOCK:   -2.76 KCAL/MOL
REMARK 922        TOTAL FREE ENERGY PREDICTED BY IDOCK:   -3.60 KCAL/MOL
REMARK 923 INTER-LIGAND FREE ENERGY PREDICTED BY IDOCK:   -3.40 KCAL/MOL
REMARK 924 INTRA-LIGAND FREE ENERGY PREDICTED BY IDOCK:   -0.20 KCAL/MOL
REMARK 927      BINDING AFFINITY PREDICTED BY RF-SCORE:    0.00 PKD
ROOT
HETATM    1  C   UNL     1      -7.348  11.033  66.561  1.00  0.00    -0.144 C  
HETATM    2  N   UNL     1      -8.691  10.981  67.273  1.00  0.00    -0.129 N  
HETATM    3  C   UNL     1      -8.772  12.198  68.187  1.00  0.00    -0.185 C  
HETATM    4  C   UNL     1      -8.787   9.723  68.108  1.00  0.00    -0.119 C  
ENDROOT
BRANCH   2   5
HETATM    5  C   UNL     1      -9.880  11.094  66.274  1.00  0.00    -0.214 C  
BRANCH   5   6
HETATM    6  C   UNL     1     -11.141  11.897  66.700  1.00  0.00    -0.310 C  
HETATM    7  H   UNL     1     -12.762  11.586  67.804  1.00  0.00     0.000 HD 
HETATM    8  O   UNL     1     -11.991  11.095  67.544  1.00  0.00    -0.580 OA 
BRANCH   6   9
HETATM    9  C   UNL     1     -11.995  12.537  65.613  1.00  0.00    -0.492 C  
HETATM   10  C   UNL     1     -11.968  14.045  65.761  1.00  0.00    -0.404 C  
HETATM   11  O   UNL     1     -12.085  14.464  66.941  1.00  0.00    -0.425 OA 
HETATM   12  O   UNL     1     -11.694  14.665  64.699  1.00  0.00    -0.404 OA 
ENDBRANCH   6   9
ENDBRANCH   5   6
ENDBRANCH   2   5
TORSDOF 3
ENDMDL
MODEL       68
REMARK 921   NORMALIZED FREE ENERGY PREDICTED BY IDOCK:   -2.74 KCAL/MOL
REMARK 922        TOTAL FREE ENERGY PREDICTED BY IDOCK:   -3.58 KCAL/MOL
REMARK 923 INTER-LIGAND FREE ENERGY PREDICTED BY IDOCK:   -3.31 KCAL/MOL
REMARK 924 INTRA-LIGAND FREE ENERGY PREDICTED BY IDOCK:   -0.27 KCAL/MOL
REMARK 927      BINDING AFFINITY PREDICTED BY RF-SCORE:    0.00 PKD
ROOT
HETATM    1  C   UNL     1     -11.008  15.840  67.589  1.00  0.00    -0.302 C  
HETATM    2  N   UNL     1     -10.842  14.683  68.563  1.00  0.00    -0.243 N  
HETATM    3  C   UNL     1     -11.012  15.242  69.971  1.00  0.00    -0.288 C  
HETATM    4  C   UNL     1      -9.458  14.087  68.428  1.00  0.00    -0.213 C  
ENDROOT
BRANCH   2   5
HETATM    5  C   UNL     1     -11.948  13.604  68.375  1.00  0.00    -0.356 C  
BRANCH   5   6
HETATM    6  C   UNL     1     -11.550  12.218  67.796  1.00  0.00    -0.351 C  
HETATM    7  H   UNL     1     -11.764  11.239  66.081  1.00  0.00     0.000 HD 
HETATM    8  O   UNL     1     -12.008  12.086  66.435  1.00  0.00    -0.611 OA 
BRANCH   6   9
HETATM    9  C   UNL     1     -11.949  10.967  68.569  1.00  0.00    -0.206 C  
HETATM   10  C   UNL     1     -10.799  10.519  69.449  1.00  0.00    -0.249 C  
HETATM   11  O   UNL     1      -9.668  10.551  68.900  1.00  0.00    -0.181 OA 
HETATM   12  O   UNL     1     -11.117  10.310  70.650  1.00  0.00    -0.315 OA 
ENDBRANCH   6   9
ENDBRANCH   5   6
ENDBRANCH   2   5
TORSDOF 3
ENDMDL
MODEL       69
REMARK 921   NORMALIZED FREE ENERGY PREDICTED BY IDOCK:   -2.73 KCAL/MOL
REMARK 922        TOTAL FREE ENERGY PREDICTED BY IDOCK:   -3.57 KCAL/MOL
REMARK 923 INTER-LIGAND FREE ENERGY PREDICTED BY IDOCK:   -3.47 KCAL/MOL
REMARK 924 INTRA-LIGAND FREE ENERGY PREDICTED BY IDOCK:   -0.10 KCAL/MOL
REMARK 927      BINDING AFFINITY PREDICTED BY RF-SCORE:    0.00 PKD
ROOT
HETATM    1  C   UNL     1     -12.335  13.346  71.473  1.00  0.00    -0.038 C  
HETATM    2  N   UNL     1     -12.833  14.731  71.856  1.00  0.00    -0.310 N  
HETATM    3  C   UNL     1     -12.606  14.902  73.353  1.00  0.00    -0.483 C  
HETATM    4  C   UNL     1     -14.312  14.850  71.559  1.00  0.00    -0.539 C  
ENDROOT
BRANCH   2   5
HETATM    5  C   UNL     1     -12.019  15.855  71.150  1.00  0.00    -0.427 C  
BRANCH   5   6
HETATM    6  C   UNL     1     -11.094  15.474  69.960  1.00  0.00    -0.315 C  
HETATM    7  H   UNL     1      -9.460  16.197  69.094  1.00  0.00     0.000 HD 
HETATM    8  O   UNL     1     -10.025  16.431  69.822  1.00  0.00    -0.155 OA 
BRANCH   6   9
HETATM    9  C   UNL     1     -11.728  15.248  68.593  1.00  0.00    -0.367 C  
HETATM   10  C   UNL     1     -11.206  13.957  67.993  1.00  0.00    -0.271 C  
HETATM   11  O   UNL     1      -9.967  13.776  68.119  1.00  0.00    -0.228 OA 
HETATM   12  O   UNL     1     -12.105  13.180  67.575  1.00  0.00    -0.339 OA 
ENDBRANCH   6   9
ENDBRANCH   5   6
ENDBRANCH   2   5
TORSDOF 3
ENDMDL
MODEL       70
REMARK 921   NORMALIZED FREE ENERGY PREDICTED BY IDOCK:   -2.73 KCAL/MOL
REMARK 922        TOTAL FREE ENERGY PREDICTED BY IDOCK:   -3.57 KCAL/MOL
REMARK 923 INTER-LIGAND FREE ENERGY PREDICTED BY IDOCK:   -3.21 KCAL/MOL
REMARK 924 INTRA-LIGAND FREE ENERGY PREDICTED BY IDOCK:   -0.36 KCAL/MOL
REMARK 927      BINDING AFFINITY PREDICTED BY RF-SCORE:    0.00 PKD
ROOT
HETATM    1  C   UNL     1     -10.226   8.362  68.965  1.00  0.00    -0.207 C  
HETATM    2  N   UNL     1      -9.942   6.986  69.547  1.00  0.00    -0.160 N  
HETATM    3  C   UNL     1      -8.870   6.334  68.681  1.00  0.00    -0.119 C  
HETATM    4  C   UNL     1     -11.195   6.140  69.511  1.00  0.00    -0.411 C  
ENDROOT
BRANCH   2   5
HETATM    5  C   UNL     1      -9.357   7.076  70.987  1.00  0.00    -0.159 C  
BRANCH   5   6
HETATM    6  C   UNL     1      -9.837   8.224  71.919  1.00  0.00    -0.232 C  
HETATM    7  H   UNL     1      -9.081   9.315  73.396  1.00  0.00     0.000 HD 
HETATM    8  O   UNL     1      -8.787   8.612  72.827  1.00  0.00    -0.374 OA 
BRANCH   6   9
HETATM    9  C   UNL     1     -11.121   8.024  72.713  1.00  0.00    -0.448 C  
HETATM   10  C   UNL     1     -12.263   8.755  72.035  1.00  0.00    -0.377 C  
HETATM   11  O   UNL     1     -11.984   9.911  71.625  1.00  0.00    -0.393 OA 
HETATM   12  O   UNL     1     -13.292   8.052  71.852  1.00  0.00    -0.330 OA 
ENDBRANCH   6   9
ENDBRANCH   5   6
ENDBRANCH   2   5
TORSDOF 3
ENDMDL
MODEL       71
REMARK 921   NORMALIZED FREE ENERGY PREDICTED BY IDOCK:   -2.72 KCAL/MOL
REMARK 922        TOTAL FREE ENERGY PREDICTED BY IDOCK:   -3.56 KCAL/MOL
REMARK 923 INTER-LIGAND FREE ENERGY PREDICTED BY IDOCK:   -3.41 KCAL/MOL
REMARK 924 INTRA-LIGAND FREE ENERGY PREDICTED BY IDOCK:   -0.15 KCAL/MOL
REMARK 927      BINDING AFFINITY PREDICTED BY RF-SCORE:    0.00 PKD
ROOT
HETATM    1  C   UNL     1      -9.182   5.503  74.248  1.00  0.00    -0.123 C  
HETATM    2  N   UNL     1     -10.169   5.859  73.146  1.00  0.00    -0.185 N  
HETATM    3  C   UNL     1     -11.384   4.953  73.311  1.00  0.00    -0.327 C  
HETATM    4  C   UNL     1      -9.543   5.612  71.791  1.00  0.00    -0.156 C  
ENDROOT
BRANCH   2   5
HETATM    5  C   UNL     1     -10.683   7.322  73.279  1.00  0.00    -0.383 C  
BRANCH   5   6
HETATM    6  C   UNL     1     -10.658   8.240  72.025  1.00  0.00    -0.296 C  
HETATM    7  H   UNL     1      -9.454   9.616  71.249  1.00  0.00     0.000 HD 
HETATM    8  O   UNL     1      -9.469   9.055  72.016  1.00  0.00    -0.339 OA 
BRANCH   6   9
HETATM    9  C   UNL     1     -11.864   9.131  71.755  1.00  0.00    -0.453 C  
HETATM   10  C   UNL     1     -13.127   8.293  71.730  1.00  0.00    -0.344 C  
HETATM   11  O   UNL     1     -13.030   7.207  71.103  1.00  0.00    -0.366 OA 
HETATM   12  O   UNL     1     -14.056   8.734  72.457  1.00  0.00    -0.440 OA 
ENDBRANCH   6   9
ENDBRANCH   5   6
ENDBRANCH   2   5
TORSDOF 3
ENDMDL
MODEL       72
REMARK 921   NORMALIZED FREE ENERGY PREDICTED BY IDOCK:   -2.72 KCAL/MOL
REMARK 922        TOTAL FREE ENERGY PREDICTED BY IDOCK:   -3.56 KCAL/MOL
REMARK 923 INTER-LIGAND FREE ENERGY PREDICTED BY IDOCK:   -3.28 KCAL/MOL
REMARK 924 INTRA-LIGAND FREE ENERGY PREDICTED BY IDOCK:   -0.28 KCAL/MOL
REMARK 927      BINDING AFFINITY PREDICTED BY RF-SCORE:    0.00 PKD
ROOT
HETATM    1  C   UNL     1     -11.002   6.429  67.688  1.00  0.00    -0.349 C  
HETATM    2  N   UNL     1     -10.574   6.330  69.145  1.00  0.00    -0.237 N  
HETATM    3  C   UNL     1      -9.535   7.417  69.392  1.00  0.00    -0.155 C  
HETATM    4  C   UNL     1      -9.953   4.976  69.411  1.00  0.00    -0.220 C  
ENDROOT
BRANCH   2   5
HETATM    5  C   UNL     1     -11.758   6.615  70.116  1.00  0.00    -0.351 C  
BRANCH   5   6
HETATM    6  C   UNL     1     -11.456   7.285  71.485  1.00  0.00    -0.263 C  
HETATM    7  H   UNL     1     -10.956   6.699  73.316  1.00  0.00     0.000 HD 
HETATM    8  O   UNL     1     -11.141   6.289  72.479  1.00  0.00    -0.247 OA 
BRANCH   6   9
HETATM    9  C   UNL     1     -12.487   8.246  72.065  1.00  0.00    -0.393 C  
HETATM   10  C   UNL     1     -12.412   9.577  71.344  1.00  0.00    -0.362 C  
HETATM   11  O   UNL     1     -11.246  10.001  71.134  1.00  0.00    -0.350 OA 
HETATM   12  O   UNL     1     -13.522  10.005  70.931  1.00  0.00    -0.352 OA 
ENDBRANCH   6   9
ENDBRANCH   5   6
ENDBRANCH   2   5
TORSDOF 3
ENDMDL
MODEL       73
REMARK 921   NORMALIZED FREE ENERGY PREDICTED BY IDOCK:   -2.72 KCAL/MOL
REMARK 922        TOTAL FREE ENERGY PREDICTED BY IDOCK:   -3.56 KCAL/MOL
REMARK 923 INTER-LIGAND FREE ENERGY PREDICTED BY IDOCK:   -3.30 KCAL/MOL
REMARK 924 INTRA-LIGAND FREE ENERGY PREDICTED BY IDOCK:   -0.25 KCAL/MOL
REMARK 927      BINDING AFFINITY PREDICTED BY RF-SCORE:    0.00 PKD
ROOT
HETATM    1  C   UNL     1     -11.703  15.463  64.288  1.00  0.00    -0.206 C  
HETATM    2  N   UNL     1     -11.681  14.002  64.710  1.00  0.00    -0.374 N  
HETATM    3  C   UNL     1     -11.951  13.163  63.466  1.00  0.00    -0.513 C  
HETATM    4  C   UNL     1     -12.764  13.741  65.732  1.00  0.00    -0.446 C  
ENDROOT
BRANCH   2   5
HETATM    5  C   UNL     1     -10.281  13.574  65.240  1.00  0.00    -0.306 C  
BRANCH   5   6
HETATM    6  C   UNL     1      -9.809  14.109  66.621  1.00  0.00    -0.283 C  
HETATM    7  H   UNL     1      -8.396  15.324  67.308  1.00  0.00     0.000 HD 
HETATM    8  O   UNL     1      -8.684  14.996  66.464  1.00  0.00    -0.269 OA 
BRANCH   6   9
HETATM    9  C   UNL     1      -9.488  13.102  67.718  1.00  0.00    -0.209 C  
HETATM   10  C   UNL     1     -10.698  12.911  68.611  1.00  0.00    -0.247 C  
HETATM   11  O   UNL     1     -11.297  13.972  68.925  1.00  0.00    -0.248 OA 
HETATM   12  O   UNL     1     -11.018  11.708  68.799  1.00  0.00    -0.202 OA 
ENDBRANCH   6   9
ENDBRANCH   5   6
ENDBRANCH   2   5
TORSDOF 3
ENDMDL
MODEL       74
REMARK 921   NORMALIZED FREE ENERGY PREDICTED BY IDOCK:   -2.71 KCAL/MOL
REMARK 922        TOTAL FREE ENERGY PREDICTED BY IDOCK:   -3.55 KCAL/MOL
REMARK 923 INTER-LIGAND FREE ENERGY PREDICTED BY IDOCK:   -3.29 KCAL/MOL
REMARK 924 INTRA-LIGAND FREE ENERGY PREDICTED BY IDOCK:   -0.26 KCAL/MOL
REMARK 927      BINDING AFFINITY PREDICTED BY RF-SCORE:    0.00 PKD
ROOT
HETATM    1  C   UNL     1      -9.378  16.148  66.118  1.00  0.00    -0.336 C  
HETATM    2  N   UNL     1     -10.460  15.111  66.379  1.00  0.00    -0.288 N  
HETATM    3  C   UNL     1     -11.331  15.034  65.130  1.00  0.00    -0.372 C  
HETATM    4  C   UNL     1     -11.311  15.535  67.555  1.00  0.00    -0.232 C  
ENDROOT
BRANCH   2   5
HETATM    5  C   UNL     1      -9.860  13.689  66.591  1.00  0.00    -0.284 C  
BRANCH   5   6
HETATM    6  C   UNL     1      -9.564  13.213  68.040  1.00  0.00    -0.220 C  
HETATM    7  H   UNL     1      -7.973  13.018  69.214  1.00  0.00     0.000 HD 
HETATM    8  O   UNL     1      -8.154  13.309  68.328  1.00  0.00    -0.145 OA 
BRANCH   6   9
HETATM    9  C   UNL     1     -10.056  11.835  68.466  1.00  0.00    -0.212 C  
HETATM   10  C   UNL     1     -11.473  11.937  68.994  1.00  0.00    -0.297 C  
HETATM   11  O   UNL     1     -11.685  12.913  69.759  1.00  0.00    -0.307 OA 
HETATM   12  O   UNL     1     -12.276  11.111  68.485  1.00  0.00    -0.600 OA 
ENDBRANCH   6   9
ENDBRANCH   5   6
ENDBRANCH   2   5
TORSDOF 3
ENDMDL
MODEL       75
REMARK 921   NORMALIZED FREE ENERGY PREDICTED BY IDOCK:   -2.70 KCAL/MOL
REMARK 922        TOTAL FREE ENERGY PREDICTED BY IDOCK:   -3.54 KCAL/MOL
REMARK 923 INTER-LIGAND FREE ENERGY PREDICTED BY IDOCK:   -3.26 KCAL/MOL
REMARK 924 INTRA-LIGAND FREE ENERGY PREDICTED BY IDOCK:   -0.27 KCAL/MOL
REMARK 927      BINDING AFFINITY PREDICTED BY RF-SCORE:    0.00 PKD
ROOT
HETATM    1  C   UNL     1     -10.637  15.152  64.938  1.00  0.00    -0.365 C  
HETATM    2  N   UNL     1     -11.142  13.724  65.078  1.00  0.00    -0.330 N  
HETATM    3  C   UNL     1     -10.531  12.909  63.944  1.00  0.00    -0.304 C  
HETATM    4  C   UNL     1     -12.650  13.693  64.958  1.00  0.00    -0.390 C  
ENDROOT
BRANCH   2   5
HETATM    5  C   UNL     1     -10.662  13.068  66.407  1.00  0.00    -0.282 C  
BRANCH   5   6
HETATM    6  C   UNL     1     -10.764  11.525  66.558  1.00  0.00    -0.273 C  
HETATM    7  H   UNL     1     -11.951  10.226  67.478  1.00  0.00     0.000 HD 
HETATM    8  O   UNL     1     -11.889  11.170  67.386  1.00  0.00    -0.570 OA 
BRANCH   6   9
HETATM    9  C   UNL     1      -9.538  10.762  67.045  1.00  0.00    -0.195 C  
HETATM   10  C   UNL     1      -8.825  10.130  65.866  1.00  0.00    -0.149 C  
HETATM   11  O   UNL     1      -9.579   9.580  65.022  1.00  0.00    -0.268 OA 
HETATM   12  O   UNL     1      -7.588  10.364  65.823  1.00  0.00    -0.138 OA 
ENDBRANCH   6   9
ENDBRANCH   5   6
ENDBRANCH   2   5
TORSDOF 3
ENDMDL
MODEL       76
REMARK 921   NORMALIZED FREE ENERGY PREDICTED BY IDOCK:   -2.70 KCAL/MOL
REMARK 922        TOTAL FREE ENERGY PREDICTED BY IDOCK:   -3.53 KCAL/MOL
REMARK 923 INTER-LIGAND FREE ENERGY PREDICTED BY IDOCK:   -3.30 KCAL/MOL
REMARK 924 INTRA-LIGAND FREE ENERGY PREDICTED BY IDOCK:   -0.24 KCAL/MOL
REMARK 927      BINDING AFFINITY PREDICTED BY RF-SCORE:    0.00 PKD
ROOT
HETATM    1  C   UNL     1     -11.638  11.987  66.822  1.00  0.00    -0.321 C  
HETATM    2  N   UNL     1     -10.997  11.825  68.192  1.00  0.00    -0.213 N  
HETATM    3  C   UNL     1     -11.733  12.749  69.155  1.00  0.00    -0.322 C  
HETATM    4  C   UNL     1      -9.539  12.226  68.133  1.00  0.00    -0.213 C  
ENDROOT
BRANCH   2   5
HETATM    5  C   UNL     1     -11.168  10.379  68.744  1.00  0.00    -0.241 C  
BRANCH   5   6
HETATM    6  C   UNL     1     -10.916  10.121  70.255  1.00  0.00    -0.317 C  
HETATM    7  H   UNL     1      -9.386   9.599  71.409  1.00  0.00     0.000 HD 
HETATM    8  O   UNL     1      -9.540   9.756  70.485  1.00  0.00    -0.239 OA 
BRANCH   6   9
HETATM    9  C   UNL     1     -11.813   9.125  70.981  1.00  0.00    -0.354 C  
HETATM   10  C   UNL     1     -13.093   9.810  71.417  1.00  0.00    -0.400 C  
HETATM   11  O   UNL     1     -12.938  10.955  71.916  1.00  0.00    -0.458 OA 
HETATM   12  O   UNL     1     -14.144   9.199  71.091  1.00  0.00    -0.219 OA 
ENDBRANCH   6   9
ENDBRANCH   5   6
ENDBRANCH   2   5
TORSDOF 3
ENDMDL
MODEL       77
REMARK 921   NORMALIZED FREE ENERGY PREDICTED BY IDOCK:   -2.70 KCAL/MOL
REMARK 922        TOTAL FREE ENERGY PREDICTED BY IDOCK:   -3.53 KCAL/MOL
REMARK 923 INTER-LIGAND FREE ENERGY PREDICTED BY IDOCK:   -3.27 KCAL/MOL
REMARK 924 INTRA-LIGAND FREE ENERGY PREDICTED BY IDOCK:   -0.26 KCAL/MOL
REMARK 927      BINDING AFFINITY PREDICTED BY RF-SCORE:    0.00 PKD
ROOT
HETATM    1  C   UNL     1      -9.458  19.973  67.433  1.00  0.00    -0.382 C  
HETATM    2  N   UNL     1      -9.485  18.452  67.462  1.00  0.00    -0.268 N  
HETATM    3  C   UNL     1     -10.212  17.983  66.207  1.00  0.00    -0.381 C  
HETATM    4  C   UNL     1     -10.237  17.971  68.683  1.00  0.00    -0.377 C  
ENDROOT
BRANCH   2   5
HETATM    5  C   UNL     1      -8.052  17.846  67.399  1.00  0.00    -0.211 C  
BRANCH   5   6
HETATM    6  C   UNL     1      -6.833  18.810  67.395  1.00  0.00    -0.204 C  
HETATM    7  H   UNL     1      -5.204  19.094  66.295  1.00  0.00     0.000 HD 
HETATM    8  O   UNL     1      -5.949  18.504  66.298  1.00  0.00    -0.149 OA 
BRANCH   6   9
HETATM    9  C   UNL     1      -6.005  18.939  68.667  1.00  0.00    -0.228 C  
HETATM   10  C   UNL     1      -6.149  20.338  69.234  1.00  0.00    -0.336 C  
HETATM   11  O   UNL     1      -6.092  21.263  68.383  1.00  0.00    -0.278 OA 
HETATM   12  O   UNL     1      -6.446  20.373  70.457  1.00  0.00    -0.458 OA 
ENDBRANCH   6   9
ENDBRANCH   5   6
ENDBRANCH   2   5
TORSDOF 3
ENDMDL
MODEL       78
REMARK 921   NORMALIZED FREE ENERGY PREDICTED BY IDOCK:   -2.69 KCAL/MOL
REMARK 922        TOTAL FREE ENERGY PREDICTED BY IDOCK:   -3.52 KCAL/MOL
REMARK 923 INTER-LIGAND FREE ENERGY PREDICTED BY IDOCK:   -3.27 KCAL/MOL
REMARK 924 INTRA-LIGAND FREE ENERGY PREDICTED BY IDOCK:   -0.25 KCAL/MOL
REMARK 927      BINDING AFFINITY PREDICTED BY RF-SCORE:    0.00 PKD
ROOT
HETATM    1  C   UNL     1     -10.063  18.865  68.822  1.00  0.00    -0.355 C  
HETATM    2  N   UNL     1      -8.867  18.745  67.890  1.00  0.00    -0.290 N  
HETATM    3  C   UNL     1      -7.661  19.333  68.612  1.00  0.00    -0.359 C  
HETATM    4  C   UNL     1      -9.119  19.529  66.621  1.00  0.00    -0.351 C  
ENDROOT
BRANCH   2   5
HETATM    5  C   UNL     1      -8.520  17.258  67.582  1.00  0.00    -0.209 C  
BRANCH   5   6
HETATM    6  C   UNL     1      -9.213  16.142  68.413  1.00  0.00    -0.203 C  
HETATM    7  H   UNL     1      -8.785  15.030  70.002  1.00  0.00     0.000 HD 
HETATM    8  O   UNL     1      -8.361  15.713  69.494  1.00  0.00    -0.246 OA 
BRANCH   6   9
HETATM    9  C   UNL     1      -9.732  14.910  67.682  1.00  0.00    -0.212 C  
HETATM   10  C   UNL     1     -11.217  15.060  67.414  1.00  0.00    -0.335 C  
HETATM   11  O   UNL     1     -11.886  15.514  68.378  1.00  0.00    -0.351 OA 
HETATM   12  O   UNL     1     -11.552  14.842  66.220  1.00  0.00    -0.358 OA 
ENDBRANCH   6   9
ENDBRANCH   5   6
ENDBRANCH   2   5
TORSDOF 3
ENDMDL
MODEL       79
REMARK 921   NORMALIZED FREE ENERGY PREDICTED BY IDOCK:   -2.66 KCAL/MOL
REMARK 922        TOTAL FREE ENERGY PREDICTED BY IDOCK:   -3.49 KCAL/MOL
REMARK 923 INTER-LIGAND FREE ENERGY PREDICTED BY IDOCK:   -3.19 KCAL/MOL
REMARK 924 INTRA-LIGAND FREE ENERGY PREDICTED BY IDOCK:   -0.30 KCAL/MOL
REMARK 927      BINDING AFFINITY PREDICTED BY RF-SCORE:    0.00 PKD
ROOT
HETATM    1  C   UNL     1     -11.493  15.870  68.556  1.00  0.00    -0.377 C  
HETATM    2  N   UNL     1     -10.493  15.646  67.432  1.00  0.00    -0.284 N  
HETATM    3  C   UNL     1      -9.260  14.989  68.042  1.00  0.00    -0.183 C  
HETATM    4  C   UNL     1     -10.099  16.970  66.817  1.00  0.00    -0.300 C  
ENDROOT
BRANCH   2   5
HETATM    5  C   UNL     1     -11.039  14.658  66.359  1.00  0.00    -0.334 C  
BRANCH   5   6
HETATM    6  C   UNL     1     -10.771  13.138  66.537  1.00  0.00    -0.279 C  
HETATM    7  H   UNL     1     -10.481  11.562  65.362  1.00  0.00     0.000 HD 
HETATM    8  O   UNL     1     -10.646  12.492  65.254  1.00  0.00    -0.276 OA 
BRANCH   6   9
HETATM    9  C   UNL     1     -11.729  12.328  67.400  1.00  0.00    -0.405 C  
HETATM   10  C   UNL     1     -11.048  11.939  68.697  1.00  0.00    -0.246 C  
HETATM   11  O   UNL     1      -9.863  11.534  68.573  1.00  0.00    -0.192 OA 
HETATM   12  O   UNL     1     -11.713  12.205  69.732  1.00  0.00    -0.310 OA 
ENDBRANCH   6   9
ENDBRANCH   5   6
ENDBRANCH   2   5
TORSDOF 3
ENDMDL
MODEL       80
REMARK 921   NORMALIZED FREE ENERGY PREDICTED BY IDOCK:   -2.66 KCAL/MOL
REMARK 922        TOTAL FREE ENERGY PREDICTED BY IDOCK:   -3.48 KCAL/MOL
REMARK 923 INTER-LIGAND FREE ENERGY PREDICTED BY IDOCK:   -3.84 KCAL/MOL
REMARK 924 INTRA-LIGAND FREE ENERGY PREDICTED BY IDOCK:    0.36 KCAL/MOL
REMARK 927      BINDING AFFINITY PREDICTED BY RF-SCORE:    0.00 PKD
ROOT
HETATM    1  C   UNL     1      -9.924  11.462  63.308  1.00  0.00    -0.401 C  
HETATM    2  N   UNL     1     -10.964  12.259  64.079  1.00  0.00    -0.346 N  
HETATM    3  C   UNL     1     -11.136  11.593  65.439  1.00  0.00    -0.239 C  
HETATM    4  C   UNL     1     -12.285  12.236  63.342  1.00  0.00    -0.527 C  
ENDROOT
BRANCH   2   5
HETATM    5  C   UNL     1     -10.490  13.717  64.353  1.00  0.00    -0.300 C  
BRANCH   5   6
HETATM    6  C   UNL     1     -11.509  14.738  64.932  1.00  0.00    -0.412 C  
HETATM    7  H   UNL     1     -12.290  16.483  64.393  1.00  0.00     0.000 HD 
HETATM    8  O   UNL     1     -11.666  15.859  64.039  1.00  0.00    -0.549 OA 
BRANCH   6   9
HETATM    9  C   UNL     1     -11.284  15.265  66.344  1.00  0.00    -0.224 C  
HETATM   10  C   UNL     1     -10.448  16.529  66.293  1.00  0.00    -0.281 C  
HETATM   11  O   UNL     1      -9.468  16.485  65.504  1.00  0.00    -0.473 OA 
HETATM   12  O   UNL     1     -10.930  17.495  66.941  1.00  0.00    -0.090 OA 
ENDBRANCH   6   9
ENDBRANCH   5   6
ENDBRANCH   2   5
TORSDOF 3
ENDMDL
MODEL       81
REMARK 921   NORMALIZED FREE ENERGY PREDICTED BY IDOCK:   -2.64 KCAL/MOL
REMARK 922        TOTAL FREE ENERGY PREDICTED BY IDOCK:   -3.47 KCAL/MOL
REMARK 923 INTER-LIGAND FREE ENERGY PREDICTED BY IDOCK:   -3.23 KCAL/MOL
REMARK 924 INTRA-LIGAND FREE ENERGY PREDICTED BY IDOCK:   -0.24 KCAL/MOL
REMARK 927      BINDING AFFINITY PREDICTED BY RF-SCORE:    0.00 PKD
ROOT
HETATM    1  C   UNL     1      -9.286  14.420  67.648  1.00  0.00    -0.200 C  
HETATM    2  N   UNL     1     -10.635  14.889  67.123  1.00  0.00    -0.279 N  
HETATM    3  C   UNL     1     -11.701  13.978  67.720  1.00  0.00    -0.368 C  
HETATM    4  C   UNL     1     -10.671  14.777  65.614  1.00  0.00    -0.336 C  
ENDROOT
BRANCH   2   5
HETATM    5  C   UNL     1     -10.969  16.335  67.595  1.00  0.00    -0.245 C  
BRANCH   5   6
HETATM    6  C   UNL     1     -10.151  16.946  68.767  1.00  0.00    -0.295 C  
HETATM    7  H   UNL     1     -10.321  17.097  70.740  1.00  0.00     0.000 HD 
HETATM    8  O   UNL     1     -10.821  16.724  70.023  1.00  0.00    -0.282 OA 
BRANCH   6   9
HETATM    9  C   UNL     1      -9.746  18.412  68.681  1.00  0.00    -0.387 C  
HETATM   10  C   UNL     1      -8.267  18.519  68.365  1.00  0.00    -0.328 C  
HETATM   11  O   UNL     1      -7.529  17.729  69.008  1.00  0.00    -0.251 OA 
HETATM   12  O   UNL     1      -7.997  19.287  67.404  1.00  0.00    -0.258 OA 
ENDBRANCH   6   9
ENDBRANCH   5   6
ENDBRANCH   2   5
TORSDOF 3
ENDMDL
MODEL       82
REMARK 921   NORMALIZED FREE ENERGY PREDICTED BY IDOCK:   -2.64 KCAL/MOL
REMARK 922        TOTAL FREE ENERGY PREDICTED BY IDOCK:   -3.46 KCAL/MOL
REMARK 923 INTER-LIGAND FREE ENERGY PREDICTED BY IDOCK:   -3.28 KCAL/MOL
REMARK 924 INTRA-LIGAND FREE ENERGY PREDICTED BY IDOCK:   -0.18 KCAL/MOL
REMARK 927      BINDING AFFINITY PREDICTED BY RF-SCORE:    0.00 PKD
ROOT
HETATM    1  C   UNL     1     -12.775  13.745  65.579  1.00  0.00    -0.488 C  
HETATM    2  N   UNL     1     -11.308  13.965  65.917  1.00  0.00    -0.309 N  
HETATM    3  C   UNL     1     -10.501  13.693  64.653  1.00  0.00    -0.423 C  
HETATM    4  C   UNL     1     -10.876  13.002  67.001  1.00  0.00    -0.261 C  
ENDROOT
BRANCH   2   5
HETATM    5  C   UNL     1     -11.023  15.442  66.319  1.00  0.00    -0.278 C  
BRANCH   5   6
HETATM    6  C   UNL     1     -10.563  15.745  67.773  1.00  0.00    -0.292 C  
HETATM    7  H   UNL     1     -11.419  16.195  69.508  1.00  0.00     0.000 HD 
HETATM    8  O   UNL     1     -11.700  16.010  68.619  1.00  0.00    -0.382 OA 
BRANCH   6   9
HETATM    9  C   UNL     1      -9.525  16.838  67.992  1.00  0.00    -0.233 C  
HETATM   10  C   UNL     1      -8.307  16.258  68.683  1.00  0.00    -0.220 C  
HETATM   11  O   UNL     1      -8.560  15.470  69.631  1.00  0.00    -0.246 OA 
HETATM   12  O   UNL     1      -7.213  16.536  68.124  1.00  0.00    -0.145 OA 
ENDBRANCH   6   9
ENDBRANCH   5   6
ENDBRANCH   2   5
TORSDOF 3
ENDMDL
MODEL       83
REMARK 921   NORMALIZED FREE ENERGY PREDICTED BY IDOCK:   -2.63 KCAL/MOL
REMARK 922        TOTAL FREE ENERGY PREDICTED BY IDOCK:   -3.46 KCAL/MOL
REMARK 923 INTER-LIGAND FREE ENERGY PREDICTED BY IDOCK:   -3.20 KCAL/MOL
REMARK 924 INTRA-LIGAND FREE ENERGY PREDICTED BY IDOCK:   -0.26 KCAL/MOL
REMARK 927      BINDING AFFINITY PREDICTED BY RF-SCORE:    0.00 PKD
ROOT
HETATM    1  C   UNL     1      -5.967  17.392  69.644  1.00  0.00    -0.248 C  
HETATM    2  N   UNL     1      -6.963  16.799  68.660  1.00  0.00    -0.170 N  
HETATM    3  C   UNL     1      -7.699  15.673  69.376  1.00  0.00    -0.218 C  
HETATM    4  C   UNL     1      -6.234  16.233  67.461  1.00  0.00    -0.157 C  
ENDROOT
BRANCH   2   5
HETATM    5  C   UNL     1      -8.043  17.836  68.233  1.00  0.00    -0.283 C  
BRANCH   5   6
HETATM    6  C   UNL     1      -9.241  17.355  67.368  1.00  0.00    -0.236 C  
HETATM    7  H   UNL     1      -9.940  17.680  65.537  1.00  0.00     0.000 HD 
HETATM    8  O   UNL     1      -9.208  17.974  66.066  1.00  0.00    -0.508 OA 
BRANCH   6   9
HETATM    9  C   UNL     1     -10.648  17.491  67.938  1.00  0.00    -0.390 C  
HETATM   10  C   UNL     1     -11.194  16.122  68.290  1.00  0.00    -0.343 C  
HETATM   11  O   UNL     1     -10.977  15.228  67.432  1.00  0.00    -0.309 OA 
HETATM   12  O   UNL     1     -11.666  16.036  69.454  1.00  0.00    -0.337 OA 
ENDBRANCH   6   9
ENDBRANCH   5   6
ENDBRANCH   2   5
TORSDOF 3
ENDMDL
MODEL       84
REMARK 921   NORMALIZED FREE ENERGY PREDICTED BY IDOCK:   -2.62 KCAL/MOL
REMARK 922        TOTAL FREE ENERGY PREDICTED BY IDOCK:   -3.44 KCAL/MOL
REMARK 923 INTER-LIGAND FREE ENERGY PREDICTED BY IDOCK:   -3.83 KCAL/MOL
REMARK 924 INTRA-LIGAND FREE ENERGY PREDICTED BY IDOCK:    0.38 KCAL/MOL
REMARK 927      BINDING AFFINITY PREDICTED BY RF-SCORE:    0.00 PKD
ROOT
HETATM    1  C   UNL     1     -10.012  14.297  65.447  1.00  0.00    -0.303 C  
HETATM    2  N   UNL     1     -11.423  13.761  65.641  1.00  0.00    -0.306 N  
HETATM    3  C   UNL     1     -11.344  12.239  65.599  1.00  0.00    -0.350 C  
HETATM    4  C   UNL     1     -12.319  14.245  64.523  1.00  0.00    -0.410 C  
ENDROOT
BRANCH   2   5
HETATM    5  C   UNL     1     -11.998  14.139  67.038  1.00  0.00    -0.439 C  
BRANCH   5   6
HETATM    6  C   UNL     1     -11.070  14.855  68.059  1.00  0.00    -0.295 C  
HETATM    7  H   UNL     1      -9.904  14.336  69.581  1.00  0.00     0.000 HD 
HETATM    8  O   UNL     1     -10.472  13.899  68.957  1.00  0.00    -0.218 OA 
BRANCH   6   9
HETATM    9  C   UNL     1     -11.645  16.003  68.880  1.00  0.00    -0.354 C  
HETATM   10  C   UNL     1     -12.132  15.483  70.218  1.00  0.00    -0.386 C  
HETATM   11  O   UNL     1     -12.773  14.402  70.166  1.00  0.00    -0.334 OA 
HETATM   12  O   UNL     1     -11.708  16.132  71.211  1.00  0.00    -0.434 OA 
ENDBRANCH   6   9
ENDBRANCH   5   6
ENDBRANCH   2   5
TORSDOF 3
ENDMDL
MODEL       85
REMARK 921   NORMALIZED FREE ENERGY PREDICTED BY IDOCK:   -2.61 KCAL/MOL
REMARK 922        TOTAL FREE ENERGY PREDICTED BY IDOCK:   -3.43 KCAL/MOL
REMARK 923 INTER-LIGAND FREE ENERGY PREDICTED BY IDOCK:   -3.21 KCAL/MOL
REMARK 924 INTRA-LIGAND FREE ENERGY PREDICTED BY IDOCK:   -0.22 KCAL/MOL
REMARK 927      BINDING AFFINITY PREDICTED BY RF-SCORE:    0.00 PKD
ROOT
HETATM    1  C   UNL     1     -10.938   6.863  67.319  1.00  0.00    -0.336 C  
HETATM    2  N   UNL     1     -10.242   7.815  68.280  1.00  0.00    -0.196 N  
HETATM    3  C   UNL     1     -10.660   9.231  67.905  1.00  0.00    -0.231 C  
HETATM    4  C   UNL     1      -8.741   7.685  68.140  1.00  0.00    -0.122 C  
ENDROOT
BRANCH   2   5
HETATM    5  C   UNL     1     -10.699   7.589  69.751  1.00  0.00    -0.242 C  
BRANCH   5   6
HETATM    6  C   UNL     1     -10.738   8.807  70.717  1.00  0.00    -0.228 C  
HETATM    7  H   UNL     1      -9.442   9.844  71.808  1.00  0.00     0.000 HD 
HETATM    8  O   UNL     1      -9.418   9.099  71.218  1.00  0.00    -0.268 OA 
BRANCH   6   9
HETATM    9  C   UNL     1     -11.710   8.771  71.890  1.00  0.00    -0.429 C  
HETATM   10  C   UNL     1     -13.001   9.467  71.508  1.00  0.00    -0.386 C  
HETATM   11  O   UNL     1     -12.856  10.548  70.880  1.00  0.00    -0.363 OA 
HETATM   12  O   UNL     1     -14.041   8.798  71.749  1.00  0.00    -0.405 OA 
ENDBRANCH   6   9
ENDBRANCH   5   6
ENDBRANCH   2   5
TORSDOF 3
ENDMDL
MODEL       86
REMARK 921   NORMALIZED FREE ENERGY PREDICTED BY IDOCK:   -2.61 KCAL/MOL
REMARK 922        TOTAL FREE ENERGY PREDICTED BY IDOCK:   -3.43 KCAL/MOL
REMARK 923 INTER-LIGAND FREE ENERGY PREDICTED BY IDOCK:   -3.18 KCAL/MOL
REMARK 924 INTRA-LIGAND FREE ENERGY PREDICTED BY IDOCK:   -0.25 KCAL/MOL
REMARK 927      BINDING AFFINITY PREDICTED BY RF-SCORE:    0.00 PKD
ROOT
HETATM    1  C   UNL     1     -10.634  16.042  67.753  1.00  0.00    -0.309 C  
HETATM    2  N   UNL     1     -10.740  15.151  66.524  1.00  0.00    -0.305 N  
HETATM    3  C   UNL     1     -10.784  16.061  65.302  1.00  0.00    -0.399 C  
HETATM    4  C   UNL     1     -12.012  14.335  66.584  1.00  0.00    -0.430 C  
ENDROOT
BRANCH   2   5
HETATM    5  C   UNL     1      -9.486  14.242  66.358  1.00  0.00    -0.275 C  
BRANCH   5   6
HETATM    6  C   UNL     1      -9.459  12.868  67.083  1.00  0.00    -0.229 C  
HETATM    7  H   UNL     1      -8.638  12.100  68.720  1.00  0.00     0.000 HD 
HETATM    8  O   UNL     1      -8.655  12.940  68.277  1.00  0.00    -0.180 OA 
BRANCH   6   9
HETATM    9  C   UNL     1      -9.042  11.637  66.287  1.00  0.00    -0.219 C  
HETATM   10  C   UNL     1     -10.248  10.750  66.044  1.00  0.00    -0.251 C  
HETATM   11  O   UNL     1     -11.002  10.596  67.040  1.00  0.00    -0.269 OA 
HETATM   12  O   UNL     1     -10.403  10.405  64.843  1.00  0.00    -0.317 OA 
ENDBRANCH   6   9
ENDBRANCH   5   6
ENDBRANCH   2   5
TORSDOF 3
ENDMDL
MODEL       87
REMARK 921   NORMALIZED FREE ENERGY PREDICTED BY IDOCK:   -2.61 KCAL/MOL
REMARK 922        TOTAL FREE ENERGY PREDICTED BY IDOCK:   -3.43 KCAL/MOL
REMARK 923 INTER-LIGAND FREE ENERGY PREDICTED BY IDOCK:   -3.12 KCAL/MOL
REMARK 924 INTRA-LIGAND FREE ENERGY PREDICTED BY IDOCK:   -0.31 KCAL/MOL
REMARK 927      BINDING AFFINITY PREDICTED BY RF-SCORE:    0.00 PKD
ROOT
HETATM    1  C   UNL     1     -10.698   9.165  71.253  1.00  0.00    -0.331 C  
HETATM    2  N   UNL     1     -11.578   8.106  71.899  1.00  0.00    -0.286 N  
HETATM    3  C   UNL     1     -12.879   8.782  72.314  1.00  0.00    -0.405 C  
HETATM    4  C   UNL     1     -10.894   7.543  73.126  1.00  0.00    -0.395 C  
ENDROOT
BRANCH   2   5
HETATM    5  C   UNL     1     -11.961   6.980  70.894  1.00  0.00    -0.364 C  
BRANCH   5   6
HETATM    6  C   UNL     1     -10.863   6.415  69.950  1.00  0.00    -0.310 C  
HETATM    7  H   UNL     1     -10.679   5.988  68.019  1.00  0.00     0.000 HD 
HETATM    8  O   UNL     1     -11.351   6.333  68.596  1.00  0.00    -0.337 OA 
BRANCH   6   9
HETATM    9  C   UNL     1     -10.206   5.089  70.313  1.00  0.00    -0.328 C  
HETATM   10  C   UNL     1      -8.827   5.341  70.890  1.00  0.00    -0.136 C  
HETATM   11  O   UNL     1      -8.144   6.202  70.277  1.00  0.00    -0.108 OA 
HETATM   12  O   UNL     1      -8.608   4.757  71.984  1.00  0.00    -0.117 OA 
ENDBRANCH   6   9
ENDBRANCH   5   6
ENDBRANCH   2   5
TORSDOF 3
ENDMDL
MODEL       88
REMARK 921   NORMALIZED FREE ENERGY PREDICTED BY IDOCK:   -2.61 KCAL/MOL
REMARK 922        TOTAL FREE ENERGY PREDICTED BY IDOCK:   -3.42 KCAL/MOL
REMARK 923 INTER-LIGAND FREE ENERGY PREDICTED BY IDOCK:   -3.07 KCAL/MOL
REMARK 924 INTRA-LIGAND FREE ENERGY PREDICTED BY IDOCK:   -0.36 KCAL/MOL
REMARK 927      BINDING AFFINITY PREDICTED BY RF-SCORE:    0.00 PKD
ROOT
HETATM    1  C   UNL     1     -11.871   6.747  70.659  1.00  0.00    -0.387 C  
HETATM    2  N   UNL     1     -12.189   7.985  71.485  1.00  0.00    -0.292 N  
HETATM    3  C   UNL     1     -13.704   8.061  71.633  1.00  0.00    -0.356 C  
HETATM    4  C   UNL     1     -11.694   9.224  70.771  1.00  0.00    -0.269 C  
ENDROOT
BRANCH   2   5
HETATM    5  C   UNL     1     -11.605   7.886  72.925  1.00  0.00    -0.243 C  
BRANCH   5   6
HETATM    6  C   UNL     1     -10.210   7.229  73.122  1.00  0.00    -0.298 C  
HETATM    7  H   UNL     1      -9.345   6.010  74.430  1.00  0.00     0.000 HD 
HETATM    8  O   UNL     1     -10.198   6.412  74.310  1.00  0.00    -0.321 OA 
BRANCH   6   9
HETATM    9  C   UNL     1      -8.980   8.128  73.135  1.00  0.00    -0.330 C  
HETATM   10  C   UNL     1      -8.319   8.113  71.770  1.00  0.00    -0.142 C  
HETATM   11  O   UNL     1      -8.228   6.977  71.238  1.00  0.00    -0.111 OA 
HETATM   12  O   UNL     1      -8.080   9.256  71.299  1.00  0.00    -0.320 OA 
ENDBRANCH   6   9
ENDBRANCH   5   6
ENDBRANCH   2   5
TORSDOF 3
ENDMDL
MODEL       89
REMARK 921   NORMALIZED FREE ENERGY PREDICTED BY IDOCK:   -2.60 KCAL/MOL
REMARK 922        TOTAL FREE ENERGY PREDICTED BY IDOCK:   -3.42 KCAL/MOL
REMARK 923 INTER-LIGAND FREE ENERGY PREDICTED BY IDOCK:   -3.14 KCAL/MOL
REMARK 924 INTRA-LIGAND FREE ENERGY PREDICTED BY IDOCK:   -0.28 KCAL/MOL
REMARK 927      BINDING AFFINITY PREDICTED BY RF-SCORE:    0.00 PKD
ROOT
HETATM    1  C   UNL     1     -12.748  13.847  65.866  1.00  0.00    -0.421 C  
HETATM    2  N   UNL     1     -11.693  13.992  64.780  1.00  0.00    -0.374 N  
HETATM    3  C   UNL     1     -11.814  15.400  64.209  1.00  0.00    -0.199 C  
HETATM    4  C   UNL     1     -11.941  12.984  63.679  1.00  0.00    -0.539 C  
ENDROOT
BRANCH   2   5
HETATM    5  C   UNL     1     -10.250  13.866  65.353  1.00  0.00    -0.337 C  
BRANCH   5   6
HETATM    6  C   UNL     1     -10.009  14.209  66.850  1.00  0.00    -0.261 C  
HETATM    7  H   UNL     1      -9.394  15.776  67.905  1.00  0.00     0.000 HD 
HETATM    8  O   UNL     1      -9.542  15.566  66.990  1.00  0.00    -0.217 OA 
BRANCH   6   9
HETATM    9  C   UNL     1      -9.105  13.295  67.666  1.00  0.00    -0.204 C  
HETATM   10  C   UNL     1      -9.911  12.137  68.219  1.00  0.00    -0.212 C  
HETATM   11  O   UNL     1     -11.034  12.450  68.692  1.00  0.00    -0.227 OA 
HETATM   12  O   UNL     1      -9.405  11.004  68.003  1.00  0.00    -0.154 OA 
ENDBRANCH   6   9
ENDBRANCH   5   6
ENDBRANCH   2   5
TORSDOF 3
ENDMDL
MODEL       90
REMARK 921   NORMALIZED FREE ENERGY PREDICTED BY IDOCK:   -2.58 KCAL/MOL
REMARK 922        TOTAL FREE ENERGY PREDICTED BY IDOCK:   -3.39 KCAL/MOL
REMARK 923 INTER-LIGAND FREE ENERGY PREDICTED BY IDOCK:   -3.84 KCAL/MOL
REMARK 924 INTRA-LIGAND FREE ENERGY PREDICTED BY IDOCK:    0.45 KCAL/MOL
REMARK 927      BINDING AFFINITY PREDICTED BY RF-SCORE:    0.00 PKD
ROOT
HETATM    1  C   UNL     1      -7.348  15.232  67.159  1.00  0.00    -0.143 C  
HETATM    2  N   UNL     1      -7.525  16.689  67.560  1.00  0.00    -0.146 N  
HETATM    3  C   UNL     1      -6.140  17.324  67.601  1.00  0.00    -0.146 C  
HETATM    4  C   UNL     1      -8.154  16.775  68.933  1.00  0.00    -0.230 C  
ENDROOT
BRANCH   2   5
HETATM    5  C   UNL     1      -8.349  17.484  66.505  1.00  0.00    -0.270 C  
BRANCH   5   6
HETATM    6  C   UNL     1      -9.900  17.457  66.593  1.00  0.00    -0.297 C  
HETATM    7  H   UNL     1     -11.299  18.100  67.848  1.00  0.00     0.000 HD 
HETATM    8  O   UNL     1     -10.350  18.116  67.794  1.00  0.00    -0.362 OA 
BRANCH   6   9
HETATM    9  C   UNL     1     -10.611  16.115  66.476  1.00  0.00    -0.268 C  
HETATM   10  C   UNL     1     -10.810  15.766  65.014  1.00  0.00    -0.443 C  
HETATM   11  O   UNL     1     -11.201  16.718  64.290  1.00  0.00    -1.163 OA 
HETATM   12  O   UNL     1     -10.425  14.608  64.701  1.00  0.00    -0.372 OA 
ENDBRANCH   6   9
ENDBRANCH   5   6
ENDBRANCH   2   5
TORSDOF 3
ENDMDL
MODEL       91
REMARK 921   NORMALIZED FREE ENERGY PREDICTED BY IDOCK:   -2.58 KCAL/MOL
REMARK 922        TOTAL FREE ENERGY PREDICTED BY IDOCK:   -3.39 KCAL/MOL
REMARK 923 INTER-LIGAND FREE ENERGY PREDICTED BY IDOCK:   -3.74 KCAL/MOL
REMARK 924 INTRA-LIGAND FREE ENERGY PREDICTED BY IDOCK:    0.35 KCAL/MOL
REMARK 927      BINDING AFFINITY PREDICTED BY RF-SCORE:    0.00 PKD
ROOT
HETATM    1  C   UNL     1      -8.884   8.594  66.063  1.00  0.00    -0.178 C  
HETATM    2  N   UNL     1      -8.776   9.816  65.164  1.00  0.00    -0.156 N  
HETATM    3  C   UNL     1      -8.725   9.322  63.723  1.00  0.00    -0.167 C  
HETATM    4  C   UNL     1      -7.507  10.578  65.475  1.00  0.00    -0.111 C  
ENDROOT
BRANCH   2   5
HETATM    5  C   UNL     1     -10.032  10.730  65.277  1.00  0.00    -0.282 C  
BRANCH   5   6
HETATM    6  C   UNL     1     -10.045  12.080  64.507  1.00  0.00    -0.265 C  
HETATM    7  H   UNL     1     -10.009  14.015  64.956  1.00  0.00     0.000 HD 
HETATM    8  O   UNL     1     -10.001  13.189  65.427  1.00  0.00    -0.266 OA 
BRANCH   6   9
HETATM    9  C   UNL     1     -11.158  12.328  63.496  1.00  0.00    -0.533 C  
HETATM   10  C   UNL     1     -12.342  12.977  64.185  1.00  0.00    -0.358 C  
HETATM   11  O   UNL     1     -12.643  12.480  65.301  1.00  0.00    -0.645 OA 
HETATM   12  O   UNL     1     -12.773  14.011  63.610  1.00  0.00    -0.778 OA 
ENDBRANCH   6   9
ENDBRANCH   5   6
ENDBRANCH   2   5
TORSDOF 3
ENDMDL
MODEL       92
REMARK 921   NORMALIZED FREE ENERGY PREDICTED BY IDOCK:   -2.57 KCAL/MOL
REMARK 922        TOTAL FREE ENERGY PREDICTED BY IDOCK:   -3.38 KCAL/MOL
REMARK 923 INTER-LIGAND FREE ENERGY PREDICTED BY IDOCK:   -3.12 KCAL/MOL
REMARK 924 INTRA-LIGAND FREE ENERGY PREDICTED BY IDOCK:   -0.27 KCAL/MOL
REMARK 927      BINDING AFFINITY PREDICTED BY RF-SCORE:    0.00 PKD
ROOT
HETATM    1  C   UNL     1     -10.702  11.167  66.498  1.00  0.00    -0.260 C  
HETATM    2  N   UNL     1     -10.757  11.726  67.912  1.00  0.00    -0.197 N  
HETATM    3  C   UNL     1      -9.393  12.336  68.216  1.00  0.00    -0.199 C  
HETATM    4  C   UNL     1     -11.037  10.614  68.898  1.00  0.00    -0.261 C  
ENDROOT
BRANCH   2   5
HETATM    5  C   UNL     1     -11.798  12.877  68.039  1.00  0.00    -0.343 C  
BRANCH   5   6
HETATM    6  C   UNL     1     -11.617  13.927  69.171  1.00  0.00    -0.313 C  
HETATM    7  H   UNL     1     -12.279  14.202  71.023  1.00  0.00     0.000 HD 
HETATM    8  O   UNL     1     -12.390  13.560  70.331  1.00  0.00    -0.338 OA 
BRANCH   6   9
HETATM    9  C   UNL     1     -11.882  15.392  68.850  1.00  0.00    -0.350 C  
HETATM   10  C   UNL     1     -10.567  16.126  68.675  1.00  0.00    -0.283 C  
HETATM   11  O   UNL     1      -9.686  15.847  69.529  1.00  0.00    -0.262 OA 
HETATM   12  O   UNL     1     -10.490  16.806  67.618  1.00  0.00    -0.311 OA 
ENDBRANCH   6   9
ENDBRANCH   5   6
ENDBRANCH   2   5
TORSDOF 3
ENDMDL
MODEL       93
REMARK 921   NORMALIZED FREE ENERGY PREDICTED BY IDOCK:   -2.57 KCAL/MOL
REMARK 922        TOTAL FREE ENERGY PREDICTED BY IDOCK:   -3.38 KCAL/MOL
REMARK 923 INTER-LIGAND FREE ENERGY PREDICTED BY IDOCK:   -3.32 KCAL/MOL
REMARK 924 INTRA-LIGAND FREE ENERGY PREDICTED BY IDOCK:   -0.06 KCAL/MOL
REMARK 927      BINDING AFFINITY PREDICTED BY RF-SCORE:    0.00 PKD
ROOT
HETATM    1  C   UNL     1      -8.239  10.598  66.582  1.00  0.00    -0.134 C  
HETATM    2  N   UNL     1      -9.703  10.612  66.169  1.00  0.00    -0.197 N  
HETATM    3  C   UNL     1     -10.357   9.368  66.758  1.00  0.00    -0.233 C  
HETATM    4  C   UNL     1      -9.816  10.568  64.661  1.00  0.00    -0.340 C  
ENDROOT
BRANCH   2   5
HETATM    5  C   UNL     1     -10.460  11.837  66.762  1.00  0.00    -0.225 C  
BRANCH   5   6
HETATM    6  C   UNL     1     -10.021  13.265  66.335  1.00  0.00    -0.288 C  
HETATM    7  H   UNL     1      -8.580  14.549  66.806  1.00  0.00     0.000 HD 
HETATM    8  O   UNL     1      -8.849  13.675  67.068  1.00  0.00    -0.229 OA 
BRANCH   6   9
HETATM    9  C   UNL     1     -11.050  14.387  66.391  1.00  0.00    -0.326 C  
HETATM   10  C   UNL     1     -12.026  14.247  65.240  1.00  0.00    -0.389 C  
HETATM   11  O   UNL     1     -11.501  13.968  64.131  1.00  0.00    -0.323 OA 
HETATM   12  O   UNL     1     -13.237  14.292  65.579  1.00  0.00    -0.641 OA 
ENDBRANCH   6   9
ENDBRANCH   5   6
ENDBRANCH   2   5
TORSDOF 3
ENDMDL
MODEL       94
REMARK 921   NORMALIZED FREE ENERGY PREDICTED BY IDOCK:   -2.57 KCAL/MOL
REMARK 922        TOTAL FREE ENERGY PREDICTED BY IDOCK:   -3.38 KCAL/MOL
REMARK 923 INTER-LIGAND FREE ENERGY PREDICTED BY IDOCK:   -3.18 KCAL/MOL
REMARK 924 INTRA-LIGAND FREE ENERGY PREDICTED BY IDOCK:   -0.20 KCAL/MOL
REMARK 927      BINDING AFFINITY PREDICTED BY RF-SCORE:    0.00 PKD
ROOT
HETATM    1  C   UNL     1     -12.655   8.943  72.117  1.00  0.00    -0.399 C  
HETATM    2  N   UNL     1     -11.321   8.230  71.953  1.00  0.00    -0.286 N  
HETATM    3  C   UNL     1     -11.515   7.131  70.915  1.00  0.00    -0.297 C  
HETATM    4  C   UNL     1     -10.902   7.607  73.267  1.00  0.00    -0.321 C  
ENDROOT
BRANCH   2   5
HETATM    5  C   UNL     1     -10.221   9.181  71.396  1.00  0.00    -0.332 C  
BRANCH   5   6
HETATM    6  C   UNL     1     -10.214   9.505  69.876  1.00  0.00    -0.231 C  
HETATM    7  H   UNL     1      -9.165   8.971  68.276  1.00  0.00     0.000 HD 
HETATM    8  O   UNL     1      -9.169   8.773  69.205  1.00  0.00    -0.147 OA 
BRANCH   6   9
HETATM    9  C   UNL     1     -10.141  10.965  69.446  1.00  0.00    -0.116 C  
HETATM   10  C   UNL     1     -11.538  11.546  69.360  1.00  0.00    -0.321 C  
HETATM   11  O   UNL     1     -12.389  10.800  68.810  1.00  0.00    -0.435 OA 
HETATM   12  O   UNL     1     -11.685  12.636  69.974  1.00  0.00    -0.293 OA 
ENDBRANCH   6   9
ENDBRANCH   5   6
ENDBRANCH   2   5
TORSDOF 3
ENDMDL
MODEL       95
REMARK 921   NORMALIZED FREE ENERGY PREDICTED BY IDOCK:   -2.56 KCAL/MOL
REMARK 922        TOTAL FREE ENERGY PREDICTED BY IDOCK:   -3.37 KCAL/MOL
REMARK 923 INTER-LIGAND FREE ENERGY PREDICTED BY IDOCK:   -3.26 KCAL/MOL
REMARK 924 INTRA-LIGAND FREE ENERGY PREDICTED BY IDOCK:   -0.12 KCAL/MOL
REMARK 927      BINDING AFFINITY PREDICTED BY RF-SCORE:    0.00 PKD
ROOT
HETATM    1  C   UNL     1      -9.690  10.415  68.308  1.00  0.00    -0.151 C  
HETATM    2  N   UNL     1      -9.413  11.038  66.948  1.00  0.00    -0.175 N  
HETATM    3  C   UNL     1     -10.077  10.156  65.897  1.00  0.00    -0.254 C  
HETATM    4  C   UNL     1      -7.922  11.082  66.693  1.00  0.00    -0.156 C  
ENDROOT
BRANCH   2   5
HETATM    5  C   UNL     1     -10.056  12.450  66.817  1.00  0.00    -0.214 C  
BRANCH   5   6
HETATM    6  C   UNL     1     -11.570  12.613  67.131  1.00  0.00    -0.368 C  
HETATM    7  H   UNL     1     -13.284  12.520  66.132  1.00  0.00     0.000 HD 
HETATM    8  O   UNL     1     -12.358  12.420  65.940  1.00  0.00    -0.638 OA 
BRANCH   6   9
HETATM    9  C   UNL     1     -12.033  13.889  67.823  1.00  0.00    -0.390 C  
HETATM   10  C   UNL     1     -11.676  13.834  69.295  1.00  0.00    -0.327 C  
HETATM   11  O   UNL     1     -11.903  12.731  69.855  1.00  0.00    -0.324 OA 
HETATM   12  O   UNL     1     -11.072  14.855  69.720  1.00  0.00    -0.261 OA 
ENDBRANCH   6   9
ENDBRANCH   5   6
ENDBRANCH   2   5
TORSDOF 3
ENDMDL
MODEL       96
REMARK 921   NORMALIZED FREE ENERGY PREDICTED BY IDOCK:   -2.56 KCAL/MOL
REMARK 922        TOTAL FREE ENERGY PREDICTED BY IDOCK:   -3.37 KCAL/MOL
REMARK 923 INTER-LIGAND FREE ENERGY PREDICTED BY IDOCK:   -3.08 KCAL/MOL
REMARK 924 INTRA-LIGAND FREE ENERGY PREDICTED BY IDOCK:   -0.29 KCAL/MOL
REMARK 927      BINDING AFFINITY PREDICTED BY RF-SCORE:    0.00 PKD
ROOT
HETATM    1  C   UNL     1      -8.633  11.445  66.524  1.00  0.00    -0.175 C  
HETATM    2  N   UNL     1      -9.744  10.502  66.086  1.00  0.00    -0.199 N  
HETATM    3  C   UNL     1      -9.327   9.089  66.478  1.00  0.00    -0.191 C  
HETATM    4  C   UNL     1      -9.920  10.572  64.585  1.00  0.00    -0.347 C  
ENDROOT
BRANCH   2   5
HETATM    5  C   UNL     1     -11.079  10.795  66.831  1.00  0.00    -0.133 C  
BRANCH   5   6
HETATM    6  C   UNL     1     -11.349  12.238  67.341  1.00  0.00    -0.325 C  
HETATM    7  H   UNL     1     -12.357  13.095  68.823  1.00  0.00     0.000 HD 
HETATM    8  O   UNL     1     -12.192  12.213  68.511  1.00  0.00    -0.293 OA 
BRANCH   6   9
HETATM    9  C   UNL     1     -11.905  13.263  66.361  1.00  0.00    -0.446 C  
HETATM   10  C   UNL     1     -10.924  14.409  66.205  1.00  0.00    -0.320 C  
HETATM   11  O   UNL     1     -10.414  14.820  67.279  1.00  0.00    -0.260 OA 
HETATM   12  O   UNL     1     -10.651  14.697  65.010  1.00  0.00    -0.390 OA 
ENDBRANCH   6   9
ENDBRANCH   5   6
ENDBRANCH   2   5
TORSDOF 3
ENDMDL
MODEL       97
REMARK 921   NORMALIZED FREE ENERGY PREDICTED BY IDOCK:   -2.55 KCAL/MOL
REMARK 922        TOTAL FREE ENERGY PREDICTED BY IDOCK:   -3.36 KCAL/MOL
REMARK 923 INTER-LIGAND FREE ENERGY PREDICTED BY IDOCK:   -3.10 KCAL/MOL
REMARK 924 INTRA-LIGAND FREE ENERGY PREDICTED BY IDOCK:   -0.25 KCAL/MOL
REMARK 927      BINDING AFFINITY PREDICTED BY RF-SCORE:    0.00 PKD
ROOT
HETATM    1  C   UNL     1     -10.394   8.726  66.877  1.00  0.00    -0.274 C  
HETATM    2  N   UNL     1      -9.154   9.507  66.469  1.00  0.00    -0.146 N  
HETATM    3  C   UNL     1      -8.608   8.866  65.198  1.00  0.00    -0.182 C  
HETATM    4  C   UNL     1      -8.108   9.424  67.559  1.00  0.00    -0.110 C  
ENDROOT
BRANCH   2   5
HETATM    5  C   UNL     1      -9.492  10.984  66.113  1.00  0.00    -0.203 C  
BRANCH   5   6
HETATM    6  C   UNL     1     -10.975  11.369  65.849  1.00  0.00    -0.207 C  
HETATM    7  H   UNL     1     -12.131  11.720  64.272  1.00  0.00     0.000 HD 
HETATM    8  O   UNL     1     -11.224  11.484  64.434  1.00  0.00    -0.321 OA 
BRANCH   6   9
HETATM    9  C   UNL     1     -11.540  12.600  66.546  1.00  0.00    -0.441 C  
HETATM   10  C   UNL     1     -11.752  12.305  68.018  1.00  0.00    -0.356 C  
HETATM   11  O   UNL     1     -12.269  11.184  68.264  1.00  0.00    -0.613 OA 
HETATM   12  O   UNL     1     -11.255  13.162  68.795  1.00  0.00    -0.252 OA 
ENDBRANCH   6   9
ENDBRANCH   5   6
ENDBRANCH   2   5
TORSDOF 3
ENDMDL
MODEL       98
REMARK 921   NORMALIZED FREE ENERGY PREDICTED BY IDOCK:   -2.54 KCAL/MOL
REMARK 922        TOTAL FREE ENERGY PREDICTED BY IDOCK:   -3.35 KCAL/MOL
REMARK 923 INTER-LIGAND FREE ENERGY PREDICTED BY IDOCK:   -3.09 KCAL/MOL
REMARK 924 INTRA-LIGAND FREE ENERGY PREDICTED BY IDOCK:   -0.26 KCAL/MOL
REMARK 927      BINDING AFFINITY PREDICTED BY RF-SCORE:    0.00 PKD
ROOT
HETATM    1  C   UNL     1     -10.830  15.523  65.056  1.00  0.00    -0.450 C  
HETATM    2  N   UNL     1     -11.062  14.063  65.414  1.00  0.00    -0.309 N  
HETATM    3  C   UNL     1     -10.414  13.217  64.325  1.00  0.00    -0.389 C  
HETATM    4  C   UNL     1     -12.545  13.770  65.458  1.00  0.00    -0.512 C  
ENDROOT
BRANCH   2   5
HETATM    5  C   UNL     1     -10.364  13.678  66.752  1.00  0.00    -0.268 C  
BRANCH   5   6
HETATM    6  C   UNL     1      -8.897  14.132  66.988  1.00  0.00    -0.221 C  
HETATM    7  H   UNL     1      -7.127  13.268  67.241  1.00  0.00     0.000 HD 
HETATM    8  O   UNL     1      -8.024  12.990  67.097  1.00  0.00    -0.163 OA 
BRANCH   6   9
HETATM    9  C   UNL     1      -8.609  15.080  68.145  1.00  0.00    -0.156 C  
HETATM   10  C   UNL     1      -8.176  16.430  67.608  1.00  0.00    -0.153 C  
HETATM   11  O   UNL     1      -7.360  16.383  66.652  1.00  0.00    -0.229 OA 
HETATM   12  O   UNL     1      -8.800  17.407  68.101  1.00  0.00    -0.238 OA 
ENDBRANCH   6   9
ENDBRANCH   5   6
ENDBRANCH   2   5
TORSDOF 3
ENDMDL
MODEL       99
REMARK 921   NORMALIZED FREE ENERGY PREDICTED BY IDOCK:   -2.51 KCAL/MOL
REMARK 922        TOTAL FREE ENERGY PREDICTED BY IDOCK:   -3.32 KCAL/MOL
REMARK 923 INTER-LIGAND FREE ENERGY PREDICTED BY IDOCK:   -2.95 KCAL/MOL
REMARK 924 INTRA-LIGAND FREE ENERGY PREDICTED BY IDOCK:   -0.36 KCAL/MOL
REMARK 927      BINDING AFFINITY PREDICTED BY RF-SCORE:    0.00 PKD
ROOT
HETATM    1  C   UNL     1     -10.406  15.030  65.603  1.00  0.00    -0.353 C  
HETATM    2  N   UNL     1     -11.224  14.330  66.678  1.00  0.00    -0.324 N  
HETATM    3  C   UNL     1     -10.371  13.198  67.238  1.00  0.00    -0.243 C  
HETATM    4  C   UNL     1     -12.486  13.754  66.075  1.00  0.00    -0.445 C  
ENDROOT
BRANCH   2   5
HETATM    5  C   UNL     1     -11.543  15.279  67.871  1.00  0.00    -0.289 C  
BRANCH   5   6
HETATM    6  C   UNL     1     -10.531  15.368  69.047  1.00  0.00    -0.249 C  
HETATM    7  H   UNL     1     -10.519  14.969  70.992  1.00  0.00     0.000 HD 
HETATM    8  O   UNL     1     -11.138  14.915  70.273  1.00  0.00    -0.242 OA 
BRANCH   6   9
HETATM    9  C   UNL     1      -9.837  16.699  69.307  1.00  0.00    -0.194 C  
HETATM   10  C   UNL     1      -8.740  16.916  68.284  1.00  0.00    -0.235 C  
HETATM   11  O   UNL     1      -8.031  15.905  68.046  1.00  0.00    -0.133 OA 
HETATM   12  O   UNL     1      -8.780  18.037  67.712  1.00  0.00    -0.245 OA 
ENDBRANCH   6   9
ENDBRANCH   5   6
ENDBRANCH   2   5
TORSDOF 3
ENDMDL
MODEL      100
REMARK 921   NORMALIZED FREE ENERGY PREDICTED BY IDOCK:   -2.49 KCAL/MOL
REMARK 922        TOTAL FREE ENERGY PREDICTED BY IDOCK:   -3.29 KCAL/MOL
REMARK 923 INTER-LIGAND FREE ENERGY PREDICTED BY IDOCK:   -2.93 KCAL/MOL
REMARK 924 INTRA-LIGAND FREE ENERGY PREDICTED BY IDOCK:   -0.36 KCAL/MOL
REMARK 927      BINDING AFFINITY PREDICTED BY RF-SCORE:    0.00 PKD
ROOT
HETATM    1  C   UNL     1      -8.772   7.337  70.485  1.00  0.00    -0.148 C  
HETATM    2  N   UNL     1      -9.120   8.229  69.304  1.00  0.00    -0.150 N  
HETATM    3  C   UNL     1     -10.172   7.503  68.475  1.00  0.00    -0.197 C  
HETATM    4  C   UNL     1      -7.891   8.465  68.454  1.00  0.00    -0.113 C  
ENDROOT
BRANCH   2   5
HETATM    5  C   UNL     1      -9.763   9.572  69.762  1.00  0.00    -0.214 C  
BRANCH   5   6
HETATM    6  C   UNL     1     -11.283   9.601  70.082  1.00  0.00    -0.256 C  
HETATM    7  H   UNL     1     -12.843  10.748  69.639  1.00  0.00     0.000 HD 
HETATM    8  O   UNL     1     -11.913  10.730  69.444  1.00  0.00    -0.307 OA 
BRANCH   6   9
HETATM    9  C   UNL     1     -11.718   9.559  71.541  1.00  0.00    -0.472 C  
HETATM   10  C   UNL     1     -11.909   8.121  71.979  1.00  0.00    -0.338 C  
HETATM   11  O   UNL     1     -12.512   7.390  71.150  1.00  0.00    -0.336 OA 
HETATM   12  O   UNL     1     -11.317   7.821  73.049  1.00  0.00    -0.399 OA 
ENDBRANCH   6   9
ENDBRANCH   5   6
ENDBRANCH   2   5
TORSDOF 3
ENDMDL
MODEL      101
REMARK 921   NORMALIZED FREE ENERGY PREDICTED BY IDOCK:   -2.49 KCAL/MOL
REMARK 922        TOTAL FREE ENERGY PREDICTED BY IDOCK:   -3.29 KCAL/MOL
REMARK 923 INTER-LIGAND FREE ENERGY PREDICTED BY IDOCK:   -3.00 KCAL/MOL
REMARK 924 INTRA-LIGAND FREE ENERGY PREDICTED BY IDOCK:   -0.29 KCAL/MOL
REMARK 927      BINDING AFFINITY PREDICTED BY RF-SCORE:    0.00 PKD
ROOT
HETATM    1  C   UNL     1      -9.332  19.548  68.586  1.00  0.00    -0.370 C  
HETATM    2  N   UNL     1      -9.755  18.746  67.365  1.00  0.00    -0.299 N  
HETATM    3  C   UNL     1     -10.618  19.654  66.497  1.00  0.00    -0.482 C  
HETATM    4  C   UNL     1     -10.568  17.543  67.790  1.00  0.00    -0.375 C  
ENDROOT
BRANCH   2   5
HETATM    5  C   UNL     1      -8.533  18.330  66.495  1.00  0.00    -0.268 C  
BRANCH   5   6
HETATM    6  C   UNL     1      -7.105  18.478  67.092  1.00  0.00    -0.204 C  
HETATM    7  H   UNL     1      -5.364  19.252  66.531  1.00  0.00     0.000 HD 
HETATM    8  O   UNL     1      -6.237  19.161  66.166  1.00  0.00    -0.170 OA 
BRANCH   6   9
HETATM    9  C   UNL     1      -6.396  17.227  67.594  1.00  0.00    -0.166 C  
HETATM   10  C   UNL     1      -6.487  17.158  69.106  1.00  0.00    -0.223 C  
HETATM   11  O   UNL     1      -6.278  18.247  69.700  1.00  0.00    -0.251 OA 
HETATM   12  O   UNL     1      -6.895  16.052  69.550  1.00  0.00    -0.196 OA 
ENDBRANCH   6   9
ENDBRANCH   5   6
ENDBRANCH   2   5
TORSDOF 3
ENDMDL
MODEL      102
REMARK 921   NORMALIZED FREE ENERGY PREDICTED BY IDOCK:   -2.49 KCAL/MOL
REMARK 922        TOTAL FREE ENERGY PREDICTED BY IDOCK:   -3.29 KCAL/MOL
REMARK 923 INTER-LIGAND FREE ENERGY PREDICTED BY IDOCK:   -3.61 KCAL/MOL
REMARK 924 INTRA-LIGAND FREE ENERGY PREDICTED BY IDOCK:    0.33 KCAL/MOL
REMARK 927      BINDING AFFINITY PREDICTED BY RF-SCORE:    0.00 PKD
ROOT
HETATM    1  C   UNL     1      -8.782  16.155  68.633  1.00  0.00    -0.214 C  
HETATM    2  N   UNL     1      -9.763  16.486  67.518  1.00  0.00    -0.239 N  
HETATM    3  C   UNL     1      -9.084  16.151  66.196  1.00  0.00    -0.347 C  
HETATM    4  C   UNL     1     -10.100  17.961  67.546  1.00  0.00    -0.342 C  
ENDROOT
BRANCH   2   5
HETATM    5  C   UNL     1     -11.045  15.606  67.596  1.00  0.00    -0.305 C  
BRANCH   5   6
HETATM    6  C   UNL     1     -11.085  14.272  66.800  1.00  0.00    -0.314 C  
HETATM    7  H   UNL     1     -12.444  13.192  65.834  1.00  0.00     0.000 HD 
HETATM    8  O   UNL     1     -12.419  14.008  66.321  1.00  0.00    -0.465 OA 
BRANCH   6   9
HETATM    9  C   UNL     1     -10.547  13.012  67.468  1.00  0.00    -0.237 C  
HETATM   10  C   UNL     1     -11.607  12.420  68.375  1.00  0.00    -0.324 C  
HETATM   11  O   UNL     1     -12.228  13.256  69.081  1.00  0.00    -0.266 OA 
HETATM   12  O   UNL     1     -11.814  11.191  68.195  1.00  0.00    -0.559 OA 
ENDBRANCH   6   9
ENDBRANCH   5   6
ENDBRANCH   2   5
TORSDOF 3
ENDMDL
MODEL      103
REMARK 921   NORMALIZED FREE ENERGY PREDICTED BY IDOCK:   -2.46 KCAL/MOL
REMARK 922        TOTAL FREE ENERGY PREDICTED BY IDOCK:   -3.25 KCAL/MOL
REMARK 923 INTER-LIGAND FREE ENERGY PREDICTED BY IDOCK:   -2.99 KCAL/MOL
REMARK 924 INTRA-LIGAND FREE ENERGY PREDICTED BY IDOCK:   -0.26 KCAL/MOL
REMARK 927      BINDING AFFINITY PREDICTED BY RF-SCORE:    0.00 PKD
ROOT
HETATM    1  C   UNL     1     -12.882   8.809  72.160  1.00  0.00    -0.400 C  
HETATM    2  N   UNL     1     -11.532   8.233  71.762  1.00  0.00    -0.275 N  
HETATM    3  C   UNL     1     -11.787   7.127  70.744  1.00  0.00    -0.325 C  
HETATM    4  C   UNL     1     -10.841   7.647  72.973  1.00  0.00    -0.400 C  
ENDROOT
BRANCH   2   5
HETATM    5  C   UNL     1     -10.637   9.293  71.053  1.00  0.00    -0.316 C  
BRANCH   5   6
HETATM    6  C   UNL     1      -9.717   8.835  69.888  1.00  0.00    -0.178 C  
HETATM    7  H   UNL     1      -7.896   8.068  69.685  1.00  0.00     0.000 HD 
HETATM    8  O   UNL     1      -8.459   8.348  70.397  1.00  0.00    -0.121 OA 
BRANCH   6   9
HETATM    9  C   UNL     1      -9.439   9.814  68.755  1.00  0.00    -0.154 C  
HETATM   10  C   UNL     1     -10.389   9.551  67.604  1.00  0.00    -0.244 C  
HETATM   11  O   UNL     1     -10.555   8.336  67.321  1.00  0.00    -0.301 OA 
HETATM   12  O   UNL     1     -10.987  10.575  67.181  1.00  0.00    -0.282 OA 
ENDBRANCH   6   9
ENDBRANCH   5   6
ENDBRANCH   2   5
TORSDOF 3
ENDMDL
MODEL      104
REMARK 921   NORMALIZED FREE ENERGY PREDICTED BY IDOCK:   -2.46 KCAL/MOL
REMARK 922        TOTAL FREE ENERGY PREDICTED BY IDOCK:   -3.25 KCAL/MOL
REMARK 923 INTER-LIGAND FREE ENERGY PREDICTED BY IDOCK:   -2.92 KCAL/MOL
REMARK 924 INTRA-LIGAND FREE ENERGY PREDICTED BY IDOCK:   -0.33 KCAL/MOL
REMARK 927      BINDING AFFINITY PREDICTED BY RF-SCORE:    0.00 PKD
ROOT
HETATM    1  C   UNL     1      -8.782   6.853  69.056  1.00  0.00    -0.131 C  
HETATM    2  N   UNL     1     -10.266   6.545  69.182  1.00  0.00    -0.170 N  
HETATM    3  C   UNL     1     -10.398   5.222  69.926  1.00  0.00    -0.304 C  
HETATM    4  C   UNL     1     -10.885   6.409  67.808  1.00  0.00    -0.334 C  
ENDROOT
BRANCH   2   5
HETATM    5  C   UNL     1     -11.008   7.614  70.038  1.00  0.00    -0.228 C  
BRANCH   5   6
HETATM    6  C   UNL     1     -11.430   7.248  71.488  1.00  0.00    -0.263 C  
HETATM    7  H   UNL     1     -13.124   6.988  72.491  1.00  0.00     0.000 HD 
HETATM    8  O   UNL     1     -12.866   7.212  71.604  1.00  0.00    -0.361 OA 
BRANCH   6   9
HETATM    9  C   UNL     1     -10.867   8.074  72.638  1.00  0.00    -0.436 C  
HETATM   10  C   UNL     1      -9.452   7.627  72.946  1.00  0.00    -0.206 C  
HETATM   11  O   UNL     1      -9.280   6.381  72.961  1.00  0.00    -0.134 OA 
HETATM   12  O   UNL     1      -8.614   8.566  73.006  1.00  0.00    -0.355 OA 
ENDBRANCH   6   9
ENDBRANCH   5   6
ENDBRANCH   2   5
TORSDOF 3
ENDMDL
MODEL      105
REMARK 921   NORMALIZED FREE ENERGY PREDICTED BY IDOCK:   -2.45 KCAL/MOL
REMARK 922        TOTAL FREE ENERGY PREDICTED BY IDOCK:   -3.25 KCAL/MOL
REMARK 923 INTER-LIGAND FREE ENERGY PREDICTED BY IDOCK:   -2.93 KCAL/MOL
REMARK 924 INTRA-LIGAND FREE ENERGY PREDICTED BY IDOCK:   -0.32 KCAL/MOL
REMARK 927      BINDING AFFINITY PREDICTED BY RF-SCORE:    0.00 PKD
ROOT
HETATM    1  C   UNL     1      -8.802   6.862  69.063  1.00  0.00    -0.130 C  
HETATM    2  N   UNL     1     -10.264   6.486  69.251  1.00  0.00    -0.177 N  
HETATM    3  C   UNL     1     -10.303   5.169  70.018  1.00  0.00    -0.276 C  
HETATM    4  C   UNL     1     -10.927   6.298  67.904  1.00  0.00    -0.327 C  
ENDROOT
BRANCH   2   5
HETATM    5  C   UNL     1     -11.023   7.531  70.120  1.00  0.00    -0.254 C  
BRANCH   5   6
HETATM    6  C   UNL     1     -10.327   8.883  70.440  1.00  0.00    -0.204 C  
HETATM    7  H   UNL     1      -9.578   9.794  72.039  1.00  0.00     0.000 HD 
HETATM    8  O   UNL     1     -10.004   8.967  71.843  1.00  0.00    -0.332 OA 
BRANCH   6   9
HETATM    9  C   UNL     1     -11.021  10.173  70.021  1.00  0.00    -0.364 C  
HETATM   10  C   UNL     1     -10.827  10.401  68.535  1.00  0.00    -0.237 C  
HETATM   11  O   UNL     1      -9.662  10.179  68.112  1.00  0.00    -0.138 OA 
HETATM   12  O   UNL     1     -11.889  10.645  67.905  1.00  0.00    -0.485 OA 
ENDBRANCH   6   9
ENDBRANCH   5   6
ENDBRANCH   2   5
TORSDOF 3
ENDMDL
MODEL      106
REMARK 921   NORMALIZED FREE ENERGY PREDICTED BY IDOCK:   -2.45 KCAL/MOL
REMARK 922        TOTAL FREE ENERGY PREDICTED BY IDOCK:   -3.24 KCAL/MOL
REMARK 923 INTER-LIGAND FREE ENERGY PREDICTED BY IDOCK:   -2.99 KCAL/MOL
REMARK 924 INTRA-LIGAND FREE ENERGY PREDICTED BY IDOCK:   -0.25 KCAL/MOL
REMARK 927      BINDING AFFINITY PREDICTED BY RF-SCORE:    0.00 PKD
ROOT
HETATM    1  C   UNL     1     -10.811   6.520  67.381  1.00  0.00    -0.373 C  
HETATM    2  N   UNL     1     -10.262   6.734  68.783  1.00  0.00    -0.167 N  
HETATM    3  C   UNL     1      -8.799   6.308  68.772  1.00  0.00    -0.123 C  
HETATM    4  C   UNL     1     -11.023   5.880  69.773  1.00  0.00    -0.382 C  
ENDROOT
BRANCH   2   5
HETATM    5  C   UNL     1     -10.285   8.237  69.191  1.00  0.00    -0.218 C  
BRANCH   5   6
HETATM    6  C   UNL     1     -10.847   8.624  70.587  1.00  0.00    -0.229 C  
HETATM    7  H   UNL     1     -12.047  10.015  71.341  1.00  0.00     0.000 HD 
HETATM    8  O   UNL     1     -11.703   9.779  70.487  1.00  0.00    -0.266 OA 
BRANCH   6   9
HETATM    9  C   UNL     1      -9.862   8.843  71.729  1.00  0.00    -0.386 C  
HETATM   10  C   UNL     1     -10.179   7.896  72.870  1.00  0.00    -0.330 C  
HETATM   11  O   UNL     1     -11.403   7.787  73.143  1.00  0.00    -0.374 OA 
HETATM   12  O   UNL     1      -9.188   7.245  73.293  1.00  0.00    -0.146 OA 
ENDBRANCH   6   9
ENDBRANCH   5   6
ENDBRANCH   2   5
TORSDOF 3
ENDMDL
MODEL      107
REMARK 921   NORMALIZED FREE ENERGY PREDICTED BY IDOCK:   -2.45 KCAL/MOL
REMARK 922        TOTAL FREE ENERGY PREDICTED BY IDOCK:   -3.24 KCAL/MOL
REMARK 923 INTER-LIGAND FREE ENERGY PREDICTED BY IDOCK:   -3.57 KCAL/MOL
REMARK 924 INTRA-LIGAND FREE ENERGY PREDICTED BY IDOCK:    0.33 KCAL/MOL
REMARK 927      BINDING AFFINITY PREDICTED BY RF-SCORE:    0.00 PKD
ROOT
HETATM    1  C   UNL     1     -10.969  10.512  69.851  1.00  0.00    -0.298 C  
HETATM    2  N   UNL     1     -10.345  10.703  68.477  1.00  0.00    -0.174 N  
HETATM    3  C   UNL     1     -10.646   9.453  67.659  1.00  0.00    -0.271 C  
HETATM    4  C   UNL     1      -8.846  10.865  68.607  1.00  0.00    -0.158 C  
ENDROOT
BRANCH   2   5
HETATM    5  C   UNL     1     -10.984  11.901  67.713  1.00  0.00    -0.228 C  
BRANCH   5   6
HETATM    6  C   UNL     1     -10.803  11.986  66.172  1.00  0.00    -0.286 C  
HETATM    7  H   UNL     1      -9.701  13.028  64.889  1.00  0.00     0.000 HD 
HETATM    8  O   UNL     1      -9.812  12.976  65.832  1.00  0.00    -0.275 OA 
BRANCH   6   9
HETATM    9  C   UNL     1     -12.037  12.212  65.308  1.00  0.00    -0.257 C  
HETATM   10  C   UNL     1     -12.453  13.668  65.379  1.00  0.00    -0.499 C  
HETATM   11  O   UNL     1     -12.425  14.172  66.532  1.00  0.00    -0.447 OA 
HETATM   12  O   UNL     1     -12.635  14.210  64.257  1.00  0.00    -0.676 OA 
ENDBRANCH   6   9
ENDBRANCH   5   6
ENDBRANCH   2   5
TORSDOF 3
ENDMDL
MODEL      108
REMARK 921   NORMALIZED FREE ENERGY PREDICTED BY IDOCK:   -2.45 KCAL/MOL
REMARK 922        TOTAL FREE ENERGY PREDICTED BY IDOCK:   -3.24 KCAL/MOL
REMARK 923 INTER-LIGAND FREE ENERGY PREDICTED BY IDOCK:   -2.88 KCAL/MOL
REMARK 924 INTRA-LIGAND FREE ENERGY PREDICTED BY IDOCK:   -0.35 KCAL/MOL
REMARK 927      BINDING AFFINITY PREDICTED BY RF-SCORE:    0.00 PKD
ROOT
HETATM    1  C   UNL     1     -10.464   7.644  72.755  1.00  0.00    -0.311 C  
HETATM    2  N   UNL     1     -11.149   6.517  71.997  1.00  0.00    -0.246 N  
HETATM    3  C   UNL     1     -12.570   6.972  71.686  1.00  0.00    -0.380 C  
HETATM    4  C   UNL     1     -11.200   5.272  72.855  1.00  0.00    -0.312 C  
ENDROOT
BRANCH   2   5
HETATM    5  C   UNL     1     -10.461   6.239  70.628  1.00  0.00    -0.223 C  
BRANCH   5   6
HETATM    6  C   UNL     1     -10.896   7.071  69.390  1.00  0.00    -0.227 C  
HETATM    7  H   UNL     1     -11.515   6.712  67.537  1.00  0.00     0.000 HD 
HETATM    8  O   UNL     1     -11.249   6.203  68.294  1.00  0.00    -0.323 OA 
BRANCH   6   9
HETATM    9  C   UNL     1      -9.954   8.151  68.874  1.00  0.00    -0.198 C  
HETATM   10  C   UNL     1     -10.116   9.412  69.700  1.00  0.00    -0.206 C  
HETATM   11  O   UNL     1     -11.306   9.726  69.960  1.00  0.00    -0.242 OA 
HETATM   12  O   UNL     1      -9.034   9.892  70.130  1.00  0.00    -0.216 OA 
ENDBRANCH   6   9
ENDBRANCH   5   6
ENDBRANCH   2   5
TORSDOF 3
ENDMDL
MODEL      109
REMARK 921   NORMALIZED FREE ENERGY PREDICTED BY IDOCK:   -2.44 KCAL/MOL
REMARK 922        TOTAL FREE ENERGY PREDICTED BY IDOCK:   -3.23 KCAL/MOL
REMARK 923 INTER-LIGAND FREE ENERGY PREDICTED BY IDOCK:   -4.03 KCAL/MOL
REMARK 924 INTRA-LIGAND FREE ENERGY PREDICTED BY IDOCK:    0.80 KCAL/MOL
REMARK 927      BINDING AFFINITY PREDICTED BY RF-SCORE:    0.00 PKD
ROOT
HETATM    1  C   UNL     1      -9.323  12.222  68.364  1.00  0.00    -0.162 C  
HETATM    2  N   UNL     1     -10.287  12.780  67.328  1.00  0.00    -0.231 N  
HETATM    3  C   UNL     1     -11.587  13.119  68.048  1.00  0.00    -0.334 C  
HETATM    4  C   UNL     1     -10.563  11.740  66.265  1.00  0.00    -0.252 C  
ENDROOT
BRANCH   2   5
HETATM    5  C   UNL     1      -9.763  14.107  66.704  1.00  0.00    -0.288 C  
BRANCH   5   6
HETATM    6  C   UNL     1     -10.794  15.177  66.248  1.00  0.00    -0.333 C  
HETATM    7  H   UNL     1     -11.730  16.734  67.050  1.00  0.00     0.000 HD 
HETATM    8  O   UNL     1     -11.100  16.080  67.329  1.00  0.00    -0.257 OA 
BRANCH   6   9
HETATM    9  C   UNL     1     -12.100  14.704  65.622  1.00  0.00    -0.212 C  
HETATM   10  C   UNL     1     -12.143  15.105  64.160  1.00  0.00    -0.176 C  
HETATM   11  O   UNL     1     -11.749  16.275  63.919  1.00  0.00    -0.986 OA 
HETATM   12  O   UNL     1     -12.433  14.165  63.374  1.00  0.00    -0.797 OA 
ENDBRANCH   6   9
ENDBRANCH   5   6
ENDBRANCH   2   5
TORSDOF 3
ENDMDL
MODEL      110
REMARK 921   NORMALIZED FREE ENERGY PREDICTED BY IDOCK:   -2.43 KCAL/MOL
REMARK 922        TOTAL FREE ENERGY PREDICTED BY IDOCK:   -3.22 KCAL/MOL
REMARK 923 INTER-LIGAND FREE ENERGY PREDICTED BY IDOCK:   -3.03 KCAL/MOL
REMARK 924 INTRA-LIGAND FREE ENERGY PREDICTED BY IDOCK:   -0.18 KCAL/MOL
REMARK 927      BINDING AFFINITY PREDICTED BY RF-SCORE:    0.00 PKD
ROOT
HETATM    1  C   UNL     1      -9.605   8.765  68.630  1.00  0.00    -0.154 C  
HETATM    2  N   UNL     1      -9.475   9.807  69.730  1.00  0.00    -0.216 N  
HETATM    3  C   UNL     1      -7.994   9.934  70.069  1.00  0.00    -0.180 C  
HETATM    4  C   UNL     1     -10.231   9.358  70.961  1.00  0.00    -0.299 C  
ENDROOT
BRANCH   2   5
HETATM    5  C   UNL     1      -9.945  11.213  69.254  1.00  0.00    -0.007 C  
BRANCH   5   6
HETATM    6  C   UNL     1     -11.433  11.612  69.458  1.00  0.00    -0.304 C  
HETATM    7  H   UNL     1     -13.183  11.191  68.618  1.00  0.00     0.000 HD 
HETATM    8  O   UNL     1     -12.273  10.947  68.494  1.00  0.00    -0.535 OA 
BRANCH   6   9
HETATM    9  C   UNL     1     -11.791  13.093  69.477  1.00  0.00    -0.383 C  
HETATM   10  C   UNL     1     -12.200  13.504  70.878  1.00  0.00    -0.305 C  
HETATM   11  O   UNL     1     -12.962  12.694  71.466  1.00  0.00    -0.375 OA 
HETATM   12  O   UNL     1     -11.611  14.529  71.310  1.00  0.00    -0.276 OA 
ENDBRANCH   6   9
ENDBRANCH   5   6
ENDBRANCH   2   5
TORSDOF 3
ENDMDL
MODEL      111
REMARK 921   NORMALIZED FREE ENERGY PREDICTED BY IDOCK:   -2.43 KCAL/MOL
REMARK 922        TOTAL FREE ENERGY PREDICTED BY IDOCK:   -3.21 KCAL/MOL
REMARK 923 INTER-LIGAND FREE ENERGY PREDICTED BY IDOCK:   -2.86 KCAL/MOL
REMARK 924 INTRA-LIGAND FREE ENERGY PREDICTED BY IDOCK:   -0.35 KCAL/MOL
REMARK 927      BINDING AFFINITY PREDICTED BY RF-SCORE:    0.00 PKD
ROOT
HETATM    1  C   UNL     1     -10.164  18.269  68.511  1.00  0.00    -0.379 C  
HETATM    2  N   UNL     1      -9.676  18.709  67.139  1.00  0.00    -0.294 N  
HETATM    3  C   UNL     1     -10.040  20.180  66.974  1.00  0.00    -0.459 C  
HETATM    4  C   UNL     1     -10.363  17.901  66.061  1.00  0.00    -0.318 C  
ENDROOT
BRANCH   2   5
HETATM    5  C   UNL     1      -8.126  18.618  67.020  1.00  0.00    -0.252 C  
BRANCH   5   6
HETATM    6  C   UNL     1      -7.375  17.538  67.849  1.00  0.00    -0.203 C  
HETATM    7  H   UNL     1      -5.633  17.374  68.789  1.00  0.00     0.000 HD 
HETATM    8  O   UNL     1      -6.092  18.034  68.282  1.00  0.00    -0.173 OA 
BRANCH   6   9
HETATM    9  C   UNL     1      -7.183  16.157  67.235  1.00  0.00    -0.232 C  
HETATM   10  C   UNL     1      -8.137  15.172  67.882  1.00  0.00    -0.137 C  
HETATM   11  O   UNL     1      -8.229  15.266  69.133  1.00  0.00    -0.200 OA 
HETATM   12  O   UNL     1      -8.808  14.488  67.064  1.00  0.00    -0.215 OA 
ENDBRANCH   6   9
ENDBRANCH   5   6
ENDBRANCH   2   5
TORSDOF 3
ENDMDL
MODEL      112
REMARK 921   NORMALIZED FREE ENERGY PREDICTED BY IDOCK:   -2.42 KCAL/MOL
REMARK 922        TOTAL FREE ENERGY PREDICTED BY IDOCK:   -3.20 KCAL/MOL
REMARK 923 INTER-LIGAND FREE ENERGY PREDICTED BY IDOCK:   -3.07 KCAL/MOL
REMARK 924 INTRA-LIGAND FREE ENERGY PREDICTED BY IDOCK:   -0.13 KCAL/MOL
REMARK 927      BINDING AFFINITY PREDICTED BY RF-SCORE:    0.00 PKD
ROOT
HETATM    1  C   UNL     1      -7.312  18.074  66.892  1.00  0.00    -0.204 C  
HETATM    2  N   UNL     1      -7.759  18.134  68.345  1.00  0.00    -0.286 N  
HETATM    3  C   UNL     1      -8.158  19.575  68.642  1.00  0.00    -0.340 C  
HETATM    4  C   UNL     1      -6.618  17.736  69.255  1.00  0.00    -0.239 C  
ENDROOT
BRANCH   2   5
HETATM    5  C   UNL     1      -9.023  17.261  68.598  1.00  0.00    -0.265 C  
BRANCH   5   6
HETATM    6  C   UNL     1     -10.008  17.013  67.422  1.00  0.00    -0.278 C  
HETATM    7  H   UNL     1     -11.378  18.050  66.425  1.00  0.00     0.000 HD 
HETATM    8  O   UNL     1     -10.775  18.202  67.145  1.00  0.00    -0.375 OA 
BRANCH   6   9
HETATM    9  C   UNL     1     -10.960  15.827  67.511  1.00  0.00    -0.293 C  
HETATM   10  C   UNL     1     -10.227  14.552  67.141  1.00  0.00    -0.260 C  
HETATM   11  O   UNL     1      -9.475  14.645  66.137  1.00  0.00    -0.296 OA 
HETATM   12  O   UNL     1     -10.366  13.616  67.972  1.00  0.00    -0.238 OA 
ENDBRANCH   6   9
ENDBRANCH   5   6
ENDBRANCH   2   5
TORSDOF 3
ENDMDL
MODEL      113
REMARK 921   NORMALIZED FREE ENERGY PREDICTED BY IDOCK:   -2.41 KCAL/MOL
REMARK 922        TOTAL FREE ENERGY PREDICTED BY IDOCK:   -3.19 KCAL/MOL
REMARK 923 INTER-LIGAND FREE ENERGY PREDICTED BY IDOCK:   -2.85 KCAL/MOL
REMARK 924 INTRA-LIGAND FREE ENERGY PREDICTED BY IDOCK:   -0.34 KCAL/MOL
REMARK 927      BINDING AFFINITY PREDICTED BY RF-SCORE:    0.00 PKD
ROOT
HETATM    1  C   UNL     1     -10.198   4.782  70.068  1.00  0.00    -0.181 C  
HETATM    2  N   UNL     1     -10.220   6.299  69.958  1.00  0.00    -0.180 N  
HETATM    3  C   UNL     1     -10.726   6.650  68.564  1.00  0.00    -0.256 C  
HETATM    4  C   UNL     1      -8.823   6.852  70.135  1.00  0.00    -0.145 C  
ENDROOT
BRANCH   2   5
HETATM    5  C   UNL     1     -11.218   6.938  70.968  1.00  0.00    -0.282 C  
BRANCH   5   6
HETATM    6  C   UNL     1     -10.791   8.226  71.728  1.00  0.00    -0.267 C  
HETATM    7  H   UNL     1     -10.559   8.794  73.616  1.00  0.00     0.000 HD 
HETATM    8  O   UNL     1     -10.820   8.007  73.152  1.00  0.00    -0.335 OA 
BRANCH   6   9
HETATM    9  C   UNL     1     -11.522   9.526  71.418  1.00  0.00    -0.462 C  
HETATM   10  C   UNL     1     -10.915  10.177  70.191  1.00  0.00    -0.316 C  
HETATM   11  O   UNL     1      -9.658  10.171  70.156  1.00  0.00    -0.166 OA 
HETATM   12  O   UNL     1     -11.754  10.508  69.312  1.00  0.00    -0.260 OA 
ENDBRANCH   6   9
ENDBRANCH   5   6
ENDBRANCH   2   5
TORSDOF 3
ENDMDL
MODEL      114
REMARK 921   NORMALIZED FREE ENERGY PREDICTED BY IDOCK:   -2.40 KCAL/MOL
REMARK 922        TOTAL FREE ENERGY PREDICTED BY IDOCK:   -3.18 KCAL/MOL
REMARK 923 INTER-LIGAND FREE ENERGY PREDICTED BY IDOCK:   -2.96 KCAL/MOL
REMARK 924 INTRA-LIGAND FREE ENERGY PREDICTED BY IDOCK:   -0.22 KCAL/MOL
REMARK 927      BINDING AFFINITY PREDICTED BY RF-SCORE:    0.00 PKD
ROOT
HETATM    1  C   UNL     1     -12.355   6.881  70.974  1.00  0.00    -0.351 C  
HETATM    2  N   UNL     1     -11.629   8.131  71.446  1.00  0.00    -0.270 N  
HETATM    3  C   UNL     1     -10.989   7.809  72.791  1.00  0.00    -0.388 C  
HETATM    4  C   UNL     1     -12.613   9.267  71.621  1.00  0.00    -0.365 C  
ENDROOT
BRANCH   2   5
HETATM    5  C   UNL     1     -10.469   8.525  70.484  1.00  0.00    -0.204 C  
BRANCH   5   6
HETATM    6  C   UNL     1      -9.905   7.449  69.514  1.00  0.00    -0.165 C  
HETATM    7  H   UNL     1      -8.588   5.964  69.592  1.00  0.00     0.000 HD 
HETATM    8  O   UNL     1      -8.933   6.622  70.185  1.00  0.00    -0.150 OA 
BRANCH   6   9
HETATM    9  C   UNL     1      -9.322   7.906  68.183  1.00  0.00    -0.146 C  
HETATM   10  C   UNL     1     -10.385   7.830  67.104  1.00  0.00    -0.319 C  
HETATM   11  O   UNL     1     -11.088   6.786  67.126  1.00  0.00    -0.384 OA 
HETATM   12  O   UNL     1     -10.508   8.881  66.423  1.00  0.00    -0.219 OA 
ENDBRANCH   6   9
ENDBRANCH   5   6
ENDBRANCH   2   5
TORSDOF 3
ENDMDL
MODEL      115
REMARK 921   NORMALIZED FREE ENERGY PREDICTED BY IDOCK:   -2.39 KCAL/MOL
REMARK 922        TOTAL FREE ENERGY PREDICTED BY IDOCK:   -3.17 KCAL/MOL
REMARK 923 INTER-LIGAND FREE ENERGY PREDICTED BY IDOCK:   -3.51 KCAL/MOL
REMARK 924 INTRA-LIGAND FREE ENERGY PREDICTED BY IDOCK:    0.34 KCAL/MOL
REMARK 927      BINDING AFFINITY PREDICTED BY RF-SCORE:    0.00 PKD
ROOT
HETATM    1  C   UNL     1     -11.059  15.119  70.373  1.00  0.00    -0.260 C  
HETATM    2  N   UNL     1     -10.557  15.351  68.956  1.00  0.00    -0.236 N  
HETATM    3  C   UNL     1     -11.665  14.924  68.001  1.00  0.00    -0.320 C  
HETATM    4  C   UNL     1      -9.325  14.511  68.698  1.00  0.00    -0.199 C  
ENDROOT
BRANCH   2   5
HETATM    5  C   UNL     1     -10.287  16.860  68.678  1.00  0.00    -0.332 C  
BRANCH   5   6
HETATM    6  C   UNL     1      -9.576  17.260  67.355  1.00  0.00    -0.252 C  
HETATM    7  H   UNL     1      -7.969  18.298  66.821  1.00  0.00     0.000 HD 
HETATM    8  O   UNL     1      -8.404  18.053  67.630  1.00  0.00    -0.234 OA 
BRANCH   6   9
HETATM    9  C   UNL     1     -10.394  17.955  66.274  1.00  0.00    -0.364 C  
HETATM   10  C   UNL     1     -10.502  19.435  66.584  1.00  0.00    -0.469 C  
HETATM   11  O   UNL     1     -10.742  19.709  67.788  1.00  0.00    -0.430 OA 
HETATM   12  O   UNL     1     -10.198  20.189  65.622  1.00  0.00    -0.416 OA 
ENDBRANCH   6   9
ENDBRANCH   5   6
ENDBRANCH   2   5
TORSDOF 3
ENDMDL
MODEL      116
REMARK 921   NORMALIZED FREE ENERGY PREDICTED BY IDOCK:   -2.37 KCAL/MOL
REMARK 922        TOTAL FREE ENERGY PREDICTED BY IDOCK:   -3.14 KCAL/MOL
REMARK 923 INTER-LIGAND FREE ENERGY PREDICTED BY IDOCK:   -2.91 KCAL/MOL
REMARK 924 INTRA-LIGAND FREE ENERGY PREDICTED BY IDOCK:   -0.23 KCAL/MOL
REMARK 927      BINDING AFFINITY PREDICTED BY RF-SCORE:    0.00 PKD
ROOT
HETATM    1  C   UNL     1      -9.097  11.680  67.906  1.00  0.00    -0.171 C  
HETATM    2  N   UNL     1     -10.246  10.713  67.665  1.00  0.00    -0.186 N  
HETATM    3  C   UNL     1     -10.036  10.084  66.293  1.00  0.00    -0.245 C  
HETATM    4  C   UNL     1     -11.562  11.460  67.675  1.00  0.00    -0.238 C  
ENDROOT
BRANCH   2   5
HETATM    5  C   UNL     1     -10.246   9.545  68.696  1.00  0.00    -0.195 C  
BRANCH   5   6
HETATM    6  C   UNL     1      -9.931   9.862  70.184  1.00  0.00    -0.238 C  
HETATM    7  H   UNL     1      -8.374   9.711  71.409  1.00  0.00     0.000 HD 
HETATM    8  O   UNL     1      -8.567   9.517  70.498  1.00  0.00    -0.213 OA 
BRANCH   6   9
HETATM    9  C   UNL     1     -10.842   9.281  71.258  1.00  0.00    -0.417 C  
HETATM   10  C   UNL     1     -12.169  10.013  71.257  1.00  0.00    -0.402 C  
HETATM   11  O   UNL     1     -12.084  11.265  71.154  1.00  0.00    -0.283 OA 
HETATM   12  O   UNL     1     -13.177   9.259  71.220  1.00  0.00    -0.326 OA 
ENDBRANCH   6   9
ENDBRANCH   5   6
ENDBRANCH   2   5
TORSDOF 3
ENDMDL
MODEL      117
REMARK 921   NORMALIZED FREE ENERGY PREDICTED BY IDOCK:   -2.37 KCAL/MOL
REMARK 922        TOTAL FREE ENERGY PREDICTED BY IDOCK:   -3.14 KCAL/MOL
REMARK 923 INTER-LIGAND FREE ENERGY PREDICTED BY IDOCK:   -3.72 KCAL/MOL
REMARK 924 INTRA-LIGAND FREE ENERGY PREDICTED BY IDOCK:    0.57 KCAL/MOL
REMARK 927      BINDING AFFINITY PREDICTED BY RF-SCORE:    0.00 PKD
ROOT
HETATM    1  C   UNL     1      -9.847  14.697  65.871  1.00  0.00    -0.330 C  
HETATM    2  N   UNL     1     -11.076  13.898  65.464  1.00  0.00    -0.300 N  
HETATM    3  C   UNL     1     -10.590  12.639  64.755  1.00  0.00    -0.317 C  
HETATM    4  C   UNL     1     -11.929  14.708  64.512  1.00  0.00    -0.460 C  
ENDROOT
BRANCH   2   5
HETATM    5  C   UNL     1     -11.895  13.425  66.701  1.00  0.00    -0.395 C  
BRANCH   5   6
HETATM    6  C   UNL     1     -11.182  13.336  68.079  1.00  0.00    -0.276 C  
HETATM    7  H   UNL     1      -9.708  12.283  68.892  1.00  0.00     0.000 HD 
HETATM    8  O   UNL     1     -10.144  12.337  68.049  1.00  0.00    -0.194 OA 
BRANCH   6   9
HETATM    9  C   UNL     1     -12.034  13.119  69.324  1.00  0.00    -0.344 C  
HETATM   10  C   UNL     1     -12.127  11.637  69.630  1.00  0.00    -0.280 C  
HETATM   11  O   UNL     1     -12.326  10.901  68.629  1.00  0.00    -0.501 OA 
HETATM   12  O   UNL     1     -11.854  11.336  70.822  1.00  0.00    -0.322 OA 
ENDBRANCH   6   9
ENDBRANCH   5   6
ENDBRANCH   2   5
TORSDOF 3
ENDMDL
MODEL      118
REMARK 921   NORMALIZED FREE ENERGY PREDICTED BY IDOCK:   -2.36 KCAL/MOL
REMARK 922        TOTAL FREE ENERGY PREDICTED BY IDOCK:   -3.14 KCAL/MOL
REMARK 923 INTER-LIGAND FREE ENERGY PREDICTED BY IDOCK:   -3.11 KCAL/MOL
REMARK 924 INTRA-LIGAND FREE ENERGY PREDICTED BY IDOCK:   -0.03 KCAL/MOL
REMARK 927      BINDING AFFINITY PREDICTED BY RF-SCORE:    0.00 PKD
ROOT
HETATM    1  C   UNL     1      -8.800  13.001  67.518  1.00  0.00    -0.195 C  
HETATM    2  N   UNL     1      -8.382  14.438  67.792  1.00  0.00    -0.156 N  
HETATM    3  C   UNL     1      -6.859  14.474  67.821  1.00  0.00    -0.177 C  
HETATM    4  C   UNL     1      -8.918  14.885  69.134  1.00  0.00    -0.140 C  
ENDROOT
BRANCH   2   5
HETATM    5  C   UNL     1      -8.829  15.398  66.651  1.00  0.00    -0.295 C  
BRANCH   5   6
HETATM    6  C   UNL     1     -10.213  15.171  65.982  1.00  0.00    -0.307 C  
HETATM    7  H   UNL     1     -11.224  15.906  64.438  1.00  0.00     0.000 HD 
HETATM    8  O   UNL     1     -10.378  16.045  64.848  1.00  0.00    -0.543 OA 
BRANCH   6   9
HETATM    9  C   UNL     1     -11.462  15.257  66.851  1.00  0.00    -0.143 C  
HETATM   10  C   UNL     1     -12.015  13.867  67.095  1.00  0.00    -0.420 C  
HETATM   11  O   UNL     1     -12.038  13.120  66.083  1.00  0.00    -0.407 OA 
HETATM   12  O   UNL     1     -12.245  13.606  68.305  1.00  0.00    -0.329 OA 
ENDBRANCH   6   9
ENDBRANCH   5   6
ENDBRANCH   2   5
TORSDOF 3
ENDMDL
MODEL      119
REMARK 921   NORMALIZED FREE ENERGY PREDICTED BY IDOCK:   -2.36 KCAL/MOL
REMARK 922        TOTAL FREE ENERGY PREDICTED BY IDOCK:   -3.14 KCAL/MOL
REMARK 923 INTER-LIGAND FREE ENERGY PREDICTED BY IDOCK:   -2.87 KCAL/MOL
REMARK 924 INTRA-LIGAND FREE ENERGY PREDICTED BY IDOCK:   -0.27 KCAL/MOL
REMARK 927      BINDING AFFINITY PREDICTED BY RF-SCORE:    0.00 PKD
ROOT
HETATM    1  C   UNL     1      -7.300  11.015  67.854  1.00  0.00    -0.092 C  
HETATM    2  N   UNL     1      -8.777  10.830  67.540  1.00  0.00    -0.125 N  
HETATM    3  C   UNL     1      -9.014   9.342  67.310  1.00  0.00    -0.123 C  
HETATM    4  C   UNL     1      -9.139  11.592  66.285  1.00  0.00    -0.214 C  
ENDROOT
BRANCH   2   5
HETATM    5  C   UNL     1      -9.679  11.245  68.740  1.00  0.00    -0.174 C  
BRANCH   5   6
HETATM    6  C   UNL     1     -11.036  10.514  68.942  1.00  0.00    -0.246 C  
HETATM    7  H   UNL     1     -12.909  10.717  68.313  1.00  0.00     0.000 HD 
HETATM    8  O   UNL     1     -12.080  11.164  68.190  1.00  0.00    -0.633 OA 
BRANCH   6   9
HETATM    9  C   UNL     1     -11.530  10.283  70.365  1.00  0.00    -0.415 C  
HETATM   10  C   UNL     1     -11.054   8.932  70.860  1.00  0.00    -0.271 C  
HETATM   11  O   UNL     1     -11.159   7.994  70.028  1.00  0.00    -0.238 OA 
HETATM   12  O   UNL     1     -10.491   8.962  71.986  1.00  0.00    -0.338 OA 
ENDBRANCH   6   9
ENDBRANCH   5   6
ENDBRANCH   2   5
TORSDOF 3
ENDMDL
MODEL      120
REMARK 921   NORMALIZED FREE ENERGY PREDICTED BY IDOCK:   -2.35 KCAL/MOL
REMARK 922        TOTAL FREE ENERGY PREDICTED BY IDOCK:   -3.13 KCAL/MOL
REMARK 923 INTER-LIGAND FREE ENERGY PREDICTED BY IDOCK:   -3.00 KCAL/MOL
REMARK 924 INTRA-LIGAND FREE ENERGY PREDICTED BY IDOCK:   -0.13 KCAL/MOL
REMARK 927      BINDING AFFINITY PREDICTED BY RF-SCORE:    0.00 PKD
ROOT
HETATM    1  C   UNL     1      -7.952  15.254  68.310  1.00  0.00    -0.132 C  
HETATM    2  N   UNL     1      -8.537  16.508  67.677  1.00  0.00    -0.181 N  
HETATM    3  C   UNL     1      -7.866  16.692  66.321  1.00  0.00    -0.274 C  
HETATM    4  C   UNL     1      -8.245  17.711  68.545  1.00  0.00    -0.292 C  
ENDROOT
BRANCH   2   5
HETATM    5  C   UNL     1     -10.063  16.359  67.403  1.00  0.00    -0.262 C  
BRANCH   5   6
HETATM    6  C   UNL     1     -10.883  15.359  68.264  1.00  0.00    -0.269 C  
HETATM    7  H   UNL     1     -11.878  13.664  67.977  1.00  0.00     0.000 HD 
HETATM    8  O   UNL     1     -11.377  14.276  67.450  1.00  0.00    -0.302 OA 
BRANCH   6   9
HETATM    9  C   UNL     1     -12.031  15.899  69.108  1.00  0.00    -0.268 C  
HETATM   10  C   UNL     1     -11.919  15.372  70.524  1.00  0.00    -0.357 C  
HETATM   11  O   UNL     1     -11.630  14.150  70.614  1.00  0.00    -0.232 OA 
HETATM   12  O   UNL     1     -11.994  16.259  71.415  1.00  0.00    -0.429 OA 
ENDBRANCH   6   9
ENDBRANCH   5   6
ENDBRANCH   2   5
TORSDOF 3
ENDMDL
MODEL      121
REMARK 921   NORMALIZED FREE ENERGY PREDICTED BY IDOCK:   -2.34 KCAL/MOL
REMARK 922        TOTAL FREE ENERGY PREDICTED BY IDOCK:   -3.11 KCAL/MOL
REMARK 923 INTER-LIGAND FREE ENERGY PREDICTED BY IDOCK:   -2.78 KCAL/MOL
REMARK 924 INTRA-LIGAND FREE ENERGY PREDICTED BY IDOCK:   -0.34 KCAL/MOL
REMARK 927      BINDING AFFINITY PREDICTED BY RF-SCORE:    0.00 PKD
ROOT
HETATM    1  C   UNL     1      -8.599   9.910  68.147  1.00  0.00    -0.118 C  
HETATM    2  N   UNL     1      -9.596   9.340  69.143  1.00  0.00    -0.158 N  
HETATM    3  C   UNL     1     -10.320   8.187  68.458  1.00  0.00    -0.198 C  
HETATM    4  C   UNL     1     -10.603  10.400  69.533  1.00  0.00    -0.246 C  
ENDROOT
BRANCH   2   5
HETATM    5  C   UNL     1      -8.887   8.741  70.393  1.00  0.00    -0.168 C  
BRANCH   5   6
HETATM    6  C   UNL     1      -9.650   8.719  71.747  1.00  0.00    -0.301 C  
HETATM    7  H   UNL     1      -9.205   8.897  73.675  1.00  0.00     0.000 HD 
HETATM    8  O   UNL     1      -8.738   8.910  72.847  1.00  0.00    -0.313 OA 
BRANCH   6   9
HETATM    9  C   UNL     1     -10.545   7.525  72.056  1.00  0.00    -0.248 C  
HETATM   10  C   UNL     1     -12.001   7.929  71.929  1.00  0.00    -0.305 C  
HETATM   11  O   UNL     1     -12.289   9.043  72.437  1.00  0.00    -0.349 OA 
HETATM   12  O   UNL     1     -12.691   7.158  71.212  1.00  0.00    -0.371 OA 
ENDBRANCH   6   9
ENDBRANCH   5   6
ENDBRANCH   2   5
TORSDOF 3
ENDMDL
MODEL      122
REMARK 921   NORMALIZED FREE ENERGY PREDICTED BY IDOCK:   -2.34 KCAL/MOL
REMARK 922        TOTAL FREE ENERGY PREDICTED BY IDOCK:   -3.11 KCAL/MOL
REMARK 923 INTER-LIGAND FREE ENERGY PREDICTED BY IDOCK:   -2.88 KCAL/MOL
REMARK 924 INTRA-LIGAND FREE ENERGY PREDICTED BY IDOCK:   -0.23 KCAL/MOL
REMARK 927      BINDING AFFINITY PREDICTED BY RF-SCORE:    0.00 PKD
ROOT
HETATM    1  C   UNL     1     -11.555   6.477  70.017  1.00  0.00    -0.390 C  
HETATM    2  N   UNL     1     -11.894   6.994  71.407  1.00  0.00    -0.300 N  
HETATM    3  C   UNL     1     -11.405   5.959  72.413  1.00  0.00    -0.307 C  
HETATM    4  C   UNL     1     -13.392   7.158  71.547  1.00  0.00    -0.344 C  
ENDROOT
BRANCH   2   5
HETATM    5  C   UNL     1     -11.143   8.319  71.730  1.00  0.00    -0.278 C  
BRANCH   5   6
HETATM    6  C   UNL     1      -9.619   8.405  71.439  1.00  0.00    -0.194 C  
HETATM    7  H   UNL     1      -7.958   8.773  72.464  1.00  0.00     0.000 HD 
HETATM    8  O   UNL     1      -8.890   8.721  72.642  1.00  0.00    -0.394 OA 
BRANCH   6   9
HETATM    9  C   UNL     1      -9.144   9.327  70.324  1.00  0.00    -0.271 C  
HETATM   10  C   UNL     1      -8.783   8.509  69.100  1.00  0.00    -0.134 C  
HETATM   11  O   UNL     1      -8.124   7.464  69.337  1.00  0.00    -0.124 OA 
HETATM   12  O   UNL     1      -9.311   8.915  68.031  1.00  0.00    -0.141 OA 
ENDBRANCH   6   9
ENDBRANCH   5   6
ENDBRANCH   2   5
TORSDOF 3
ENDMDL
MODEL      123
REMARK 921   NORMALIZED FREE ENERGY PREDICTED BY IDOCK:   -2.34 KCAL/MOL
REMARK 922        TOTAL FREE ENERGY PREDICTED BY IDOCK:   -3.11 KCAL/MOL
REMARK 923 INTER-LIGAND FREE ENERGY PREDICTED BY IDOCK:   -2.95 KCAL/MOL
REMARK 924 INTRA-LIGAND FREE ENERGY PREDICTED BY IDOCK:   -0.15 KCAL/MOL
REMARK 927      BINDING AFFINITY PREDICTED BY RF-SCORE:    0.00 PKD
ROOT
HETATM    1  C   UNL     1     -10.513   9.414  67.508  1.00  0.00    -0.280 C  
HETATM    2  N   UNL     1     -10.261  10.423  68.618  1.00  0.00    -0.172 N  
HETATM    3  C   UNL     1     -11.602  11.048  68.982  1.00  0.00    -0.323 C  
HETATM    4  C   UNL     1      -9.322  11.504  68.131  1.00  0.00    -0.185 C  
ENDROOT
BRANCH   2   5
HETATM    5  C   UNL     1      -9.723   9.739  69.910  1.00  0.00    -0.238 C  
BRANCH   5   6
HETATM    6  C   UNL     1     -10.610   8.678  70.619  1.00  0.00    -0.211 C  
HETATM    7  H   UNL     1     -11.591   8.513  72.338  1.00  0.00     0.000 HD 
HETATM    8  O   UNL     1     -11.048   9.161  71.904  1.00  0.00    -0.364 OA 
BRANCH   6   9
HETATM    9  C   UNL     1     -10.058   7.268  70.789  1.00  0.00    -0.193 C  
HETATM   10  C   UNL     1     -11.065   6.258  70.277  1.00  0.00    -0.364 C  
HETATM   11  O   UNL     1     -12.257   6.481  70.612  1.00  0.00    -0.331 OA 
HETATM   12  O   UNL     1     -10.589   5.413  69.473  1.00  0.00    -0.292 OA 
ENDBRANCH   6   9
ENDBRANCH   5   6
ENDBRANCH   2   5
TORSDOF 3
ENDMDL
MODEL      124
REMARK 921   NORMALIZED FREE ENERGY PREDICTED BY IDOCK:   -2.34 KCAL/MOL
REMARK 922        TOTAL FREE ENERGY PREDICTED BY IDOCK:   -3.11 KCAL/MOL
REMARK 923 INTER-LIGAND FREE ENERGY PREDICTED BY IDOCK:   -2.82 KCAL/MOL
REMARK 924 INTRA-LIGAND FREE ENERGY PREDICTED BY IDOCK:   -0.29 KCAL/MOL
REMARK 927      BINDING AFFINITY PREDICTED BY RF-SCORE:    0.00 PKD
ROOT
HETATM    1  C   UNL     1     -11.090  14.678  67.543  1.00  0.00    -0.313 C  
HETATM    2  N   UNL     1     -11.057  13.263  66.987  1.00  0.00    -0.276 N  
HETATM    3  C   UNL     1     -12.155  13.159  65.935  1.00  0.00    -0.444 C  
HETATM    4  C   UNL     1     -11.327  12.266  68.091  1.00  0.00    -0.295 C  
ENDROOT
BRANCH   2   5
HETATM    5  C   UNL     1      -9.714  12.959  66.260  1.00  0.00    -0.268 C  
BRANCH   5   6
HETATM    6  C   UNL     1      -8.838  11.781  66.770  1.00  0.00    -0.191 C  
HETATM    7  H   UNL     1      -7.192  11.553  67.858  1.00  0.00     0.000 HD 
HETATM    8  O   UNL     1      -7.727  12.274  67.546  1.00  0.00    -0.137 OA 
BRANCH   6   9
HETATM    9  C   UNL     1      -8.316  10.772  65.755  1.00  0.00    -0.158 C  
HETATM   10  C   UNL     1      -9.439   9.852  65.320  1.00  0.00    -0.268 C  
HETATM   11  O   UNL     1     -10.177   9.440  66.252  1.00  0.00    -0.274 OA 
HETATM   12  O   UNL     1      -9.563   9.739  64.072  1.00  0.00    -0.190 OA 
ENDBRANCH   6   9
ENDBRANCH   5   6
ENDBRANCH   2   5
TORSDOF 3
ENDMDL
MODEL      125
REMARK 921   NORMALIZED FREE ENERGY PREDICTED BY IDOCK:   -2.33 KCAL/MOL
REMARK 922        TOTAL FREE ENERGY PREDICTED BY IDOCK:   -3.10 KCAL/MOL
REMARK 923 INTER-LIGAND FREE ENERGY PREDICTED BY IDOCK:   -2.83 KCAL/MOL
REMARK 924 INTRA-LIGAND FREE ENERGY PREDICTED BY IDOCK:   -0.27 KCAL/MOL
REMARK 927      BINDING AFFINITY PREDICTED BY RF-SCORE:    0.00 PKD
ROOT
HETATM    1  C   UNL     1      -8.416  11.624  66.715  1.00  0.00    -0.177 C  
HETATM    2  N   UNL     1      -8.859  10.178  66.547  1.00  0.00    -0.139 N  
HETATM    3  C   UNL     1      -7.626   9.360  66.184  1.00  0.00    -0.096 C  
HETATM    4  C   UNL     1      -9.874  10.074  65.429  1.00  0.00    -0.314 C  
ENDROOT
BRANCH   2   5
HETATM    5  C   UNL     1      -9.413   9.585  67.876  1.00  0.00    -0.132 C  
BRANCH   5   6
HETATM    6  C   UNL     1     -10.209  10.513  68.835  1.00  0.00    -0.208 C  
HETATM    7  H   UNL     1     -10.689  10.551  70.762  1.00  0.00     0.000 HD 
HETATM    8  O   UNL     1     -10.202   9.983  70.176  1.00  0.00    -0.262 OA 
BRANCH   6   9
HETATM    9  C   UNL     1     -11.639  10.884  68.464  1.00  0.00    -0.360 C  
HETATM   10  C   UNL     1     -11.679  12.299  67.922  1.00  0.00    -0.347 C  
HETATM   11  O   UNL     1     -10.990  13.132  68.566  1.00  0.00    -0.243 OA 
HETATM   12  O   UNL     1     -12.284  12.417  66.824  1.00  0.00    -0.551 OA 
ENDBRANCH   6   9
ENDBRANCH   5   6
ENDBRANCH   2   5
TORSDOF 3
ENDMDL
MODEL      126
REMARK 921   NORMALIZED FREE ENERGY PREDICTED BY IDOCK:   -2.32 KCAL/MOL
REMARK 922        TOTAL FREE ENERGY PREDICTED BY IDOCK:   -3.09 KCAL/MOL
REMARK 923 INTER-LIGAND FREE ENERGY PREDICTED BY IDOCK:   -2.83 KCAL/MOL
REMARK 924 INTRA-LIGAND FREE ENERGY PREDICTED BY IDOCK:   -0.26 KCAL/MOL
REMARK 927      BINDING AFFINITY PREDICTED BY RF-SCORE:    0.00 PKD
ROOT
HETATM    1  C   UNL     1      -6.888  15.046  69.877  1.00  0.00    -0.162 C  
HETATM    2  N   UNL     1      -7.497  15.361  68.519  1.00  0.00    -0.113 N  
HETATM    3  C   UNL     1      -6.913  14.373  67.516  1.00  0.00    -0.159 C  
HETATM    4  C   UNL     1      -7.132  16.769  68.102  1.00  0.00    -0.159 C  
ENDROOT
BRANCH   2   5
HETATM    5  C   UNL     1      -9.039  15.145  68.512  1.00  0.00    -0.191 C  
BRANCH   5   6
HETATM    6  C   UNL     1      -9.952  16.261  69.092  1.00  0.00    -0.260 C  
HETATM    7  H   UNL     1     -11.207  16.472  70.617  1.00  0.00     0.000 HD 
HETATM    8  O   UNL     1     -10.648  15.789  70.262  1.00  0.00    -0.314 OA 
BRANCH   6   9
HETATM    9  C   UNL     1     -10.956  16.932  68.163  1.00  0.00    -0.290 C  
HETATM   10  C   UNL     1     -10.481  18.328  67.815  1.00  0.00    -0.410 C  
HETATM   11  O   UNL     1     -10.023  18.989  68.783  1.00  0.00    -0.391 OA 
HETATM   12  O   UNL     1     -10.481  18.583  66.581  1.00  0.00    -0.385 OA 
ENDBRANCH   6   9
ENDBRANCH   5   6
ENDBRANCH   2   5
TORSDOF 3
ENDMDL
MODEL      127
REMARK 921   NORMALIZED FREE ENERGY PREDICTED BY IDOCK:   -2.31 KCAL/MOL
REMARK 922        TOTAL FREE ENERGY PREDICTED BY IDOCK:   -3.08 KCAL/MOL
REMARK 923 INTER-LIGAND FREE ENERGY PREDICTED BY IDOCK:   -2.97 KCAL/MOL
REMARK 924 INTRA-LIGAND FREE ENERGY PREDICTED BY IDOCK:   -0.10 KCAL/MOL
REMARK 927      BINDING AFFINITY PREDICTED BY RF-SCORE:    0.00 PKD
ROOT
HETATM    1  C   UNL     1     -10.216  11.844  68.458  1.00  0.00    -0.215 C  
HETATM    2  N   UNL     1      -9.531  12.854  67.551  1.00  0.00    -0.192 N  
HETATM    3  C   UNL     1     -10.306  12.891  66.239  1.00  0.00    -0.268 C  
HETATM    4  C   UNL     1      -8.107  12.422  67.276  1.00  0.00    -0.182 C  
ENDROOT
BRANCH   2   5
HETATM    5  C   UNL     1      -9.586  14.294  68.142  1.00  0.00    -0.218 C  
BRANCH   5   6
HETATM    6  C   UNL     1     -10.930  15.073  68.088  1.00  0.00    -0.279 C  
HETATM    7  H   UNL     1     -11.791  16.412  66.899  1.00  0.00     0.000 HD 
HETATM    8  O   UNL     1     -10.969  15.935  66.933  1.00  0.00    -0.283 OA 
BRANCH   6   9
HETATM    9  C   UNL     1     -11.353  15.876  69.311  1.00  0.00    -0.355 C  
HETATM   10  C   UNL     1     -11.863  14.940  70.388  1.00  0.00    -0.300 C  
HETATM   11  O   UNL     1     -12.623  14.024  69.978  1.00  0.00    -0.317 OA 
HETATM   12  O   UNL     1     -11.347  15.123  71.522  1.00  0.00    -0.365 OA 
ENDBRANCH   6   9
ENDBRANCH   5   6
ENDBRANCH   2   5
TORSDOF 3
ENDMDL
MODEL      128
REMARK 921   NORMALIZED FREE ENERGY PREDICTED BY IDOCK:   -2.30 KCAL/MOL
REMARK 922        TOTAL FREE ENERGY PREDICTED BY IDOCK:   -3.06 KCAL/MOL
REMARK 923 INTER-LIGAND FREE ENERGY PREDICTED BY IDOCK:   -2.75 KCAL/MOL
REMARK 924 INTRA-LIGAND FREE ENERGY PREDICTED BY IDOCK:   -0.31 KCAL/MOL
REMARK 927      BINDING AFFINITY PREDICTED BY RF-SCORE:    0.00 PKD
ROOT
HETATM    1  C   UNL     1      -9.555  10.640  67.896  1.00  0.00    -0.162 C  
HETATM    2  N   UNL     1      -8.294  11.484  67.993  1.00  0.00    -0.139 N  
HETATM    3  C   UNL     1      -7.515  11.295  66.697  1.00  0.00    -0.133 C  
HETATM    4  C   UNL     1      -7.447  11.018  69.157  1.00  0.00    -0.121 C  
ENDROOT
BRANCH   2   5
HETATM    5  C   UNL     1      -8.621  13.003  68.099  1.00  0.00    -0.188 C  
BRANCH   5   6
HETATM    6  C   UNL     1      -9.130  13.748  66.834  1.00  0.00    -0.242 C  
HETATM    7  H   UNL     1      -8.737  15.450  65.888  1.00  0.00     0.000 HD 
HETATM    8  O   UNL     1      -8.426  14.995  66.662  1.00  0.00    -0.248 OA 
BRANCH   6   9
HETATM    9  C   UNL     1     -10.625  14.008  66.697  1.00  0.00    -0.274 C  
HETATM   10  C   UNL     1     -11.214  13.077  65.655  1.00  0.00    -0.283 C  
HETATM   11  O   UNL     1     -10.528  12.950  64.608  1.00  0.00    -0.327 OA 
HETATM   12  O   UNL     1     -12.238  12.453  66.039  1.00  0.00    -0.636 OA 
ENDBRANCH   6   9
ENDBRANCH   5   6
ENDBRANCH   2   5
TORSDOF 3
ENDMDL
MODEL      129
REMARK 921   NORMALIZED FREE ENERGY PREDICTED BY IDOCK:   -2.30 KCAL/MOL
REMARK 922        TOTAL FREE ENERGY PREDICTED BY IDOCK:   -3.06 KCAL/MOL
REMARK 923 INTER-LIGAND FREE ENERGY PREDICTED BY IDOCK:   -2.71 KCAL/MOL
REMARK 924 INTRA-LIGAND FREE ENERGY PREDICTED BY IDOCK:   -0.36 KCAL/MOL
REMARK 927      BINDING AFFINITY PREDICTED BY RF-SCORE:    0.00 PKD
ROOT
HETATM    1  C   UNL     1      -7.542   8.171  74.006  1.00  0.00    -0.194 C  
HETATM    2  N   UNL     1      -8.421   7.656  72.876  1.00  0.00    -0.128 N  
HETATM    3  C   UNL     1      -8.073   6.188  72.658  1.00  0.00    -0.103 C  
HETATM    4  C   UNL     1      -8.138   8.429  71.606  1.00  0.00    -0.144 C  
ENDROOT
BRANCH   2   5
HETATM    5  C   UNL     1      -9.932   7.705  73.249  1.00  0.00    -0.320 C  
BRANCH   5   6
HETATM    6  C   UNL     1     -10.971   7.975  72.126  1.00  0.00    -0.295 C  
HETATM    7  H   UNL     1     -12.606   9.077  71.887  1.00  0.00     0.000 HD 
HETATM    8  O   UNL     1     -11.971   8.912  72.574  1.00  0.00    -0.305 OA 
BRANCH   6   9
HETATM    9  C   UNL     1     -11.670   6.784  71.484  1.00  0.00    -0.361 C  
HETATM   10  C   UNL     1     -11.012   6.455  70.158  1.00  0.00    -0.334 C  
HETATM   11  O   UNL     1     -10.740   7.451  69.440  1.00  0.00    -0.234 OA 
HETATM   12  O   UNL     1     -10.702   5.242  70.021  1.00  0.00    -0.287 OA 
ENDBRANCH   6   9
ENDBRANCH   5   6
ENDBRANCH   2   5
TORSDOF 3
ENDMDL
MODEL      130
REMARK 921   NORMALIZED FREE ENERGY PREDICTED BY IDOCK:   -2.29 KCAL/MOL
REMARK 922        TOTAL FREE ENERGY PREDICTED BY IDOCK:   -3.05 KCAL/MOL
REMARK 923 INTER-LIGAND FREE ENERGY PREDICTED BY IDOCK:   -3.03 KCAL/MOL
REMARK 924 INTRA-LIGAND FREE ENERGY PREDICTED BY IDOCK:   -0.02 KCAL/MOL
REMARK 927      BINDING AFFINITY PREDICTED BY RF-SCORE:    0.00 PKD
ROOT
HETATM    1  C   UNL     1     -11.401   6.409  69.456  1.00  0.00    -0.393 C  
HETATM    2  N   UNL     1     -10.304   6.530  68.410  1.00  0.00    -0.172 N  
HETATM    3  C   UNL     1     -10.972   6.492  67.040  1.00  0.00    -0.396 C  
HETATM    4  C   UNL     1      -9.344   5.366  68.528  1.00  0.00    -0.118 C  
ENDROOT
BRANCH   2   5
HETATM    5  C   UNL     1      -9.560   7.895  68.505  1.00  0.00    -0.150 C  
BRANCH   5   6
HETATM    6  C   UNL     1     -10.367   9.203  68.278  1.00  0.00    -0.214 C  
HETATM    7  H   UNL     1     -10.290  10.770  67.060  1.00  0.00     0.000 HD 
HETATM    8  O   UNL     1      -9.796   9.970  67.199  1.00  0.00    -0.170 OA 
BRANCH   6   9
HETATM    9  C   UNL     1     -10.598  10.129  69.466  1.00  0.00    -0.269 C  
HETATM   10  C   UNL     1     -11.990  10.723  69.390  1.00  0.00    -0.281 C  
HETATM   11  O   UNL     1     -12.338  11.116  68.247  1.00  0.00    -0.532 OA 
HETATM   12  O   UNL     1     -12.658  10.615  70.453  1.00  0.00    -0.335 OA 
ENDBRANCH   6   9
ENDBRANCH   5   6
ENDBRANCH   2   5
TORSDOF 3
ENDMDL
MODEL      131
REMARK 921   NORMALIZED FREE ENERGY PREDICTED BY IDOCK:   -2.28 KCAL/MOL
REMARK 922        TOTAL FREE ENERGY PREDICTED BY IDOCK:   -3.04 KCAL/MOL
REMARK 923 INTER-LIGAND FREE ENERGY PREDICTED BY IDOCK:   -2.77 KCAL/MOL
REMARK 924 INTRA-LIGAND FREE ENERGY PREDICTED BY IDOCK:   -0.28 KCAL/MOL
REMARK 927      BINDING AFFINITY PREDICTED BY RF-SCORE:    0.00 PKD
ROOT
HETATM    1  C   UNL     1      -9.085  15.392  69.217  1.00  0.00    -0.260 C  
HETATM    2  N   UNL     1      -7.978  14.790  68.365  1.00  0.00    -0.130 N  
HETATM    3  C   UNL     1      -6.890  14.296  69.312  1.00  0.00    -0.124 C  
HETATM    4  C   UNL     1      -7.399  15.844  67.447  1.00  0.00    -0.193 C  
ENDROOT
BRANCH   2   5
HETATM    5  C   UNL     1      -8.472  13.548  67.567  1.00  0.00    -0.192 C  
BRANCH   5   6
HETATM    6  C   UNL     1      -9.724  12.782  68.076  1.00  0.00    -0.220 C  
HETATM    7  H   UNL     1     -10.112  11.039  68.946  1.00  0.00     0.000 HD 
HETATM    8  O   UNL     1      -9.346  11.507  68.634  1.00  0.00    -0.189 OA 
BRANCH   6   9
HETATM    9  C   UNL     1     -10.886  12.568  67.113  1.00  0.00    -0.282 C  
HETATM   10  C   UNL     1     -11.955  13.614  67.359  1.00  0.00    -0.376 C  
HETATM   11  O   UNL     1     -12.211  13.836  68.571  1.00  0.00    -0.348 OA 
HETATM   12  O   UNL     1     -12.339  14.216  66.322  1.00  0.00    -0.456 OA 
ENDBRANCH   6   9
ENDBRANCH   5   6
ENDBRANCH   2   5
TORSDOF 3
ENDMDL
MODEL      132
REMARK 921   NORMALIZED FREE ENERGY PREDICTED BY IDOCK:   -2.26 KCAL/MOL
REMARK 922        TOTAL FREE ENERGY PREDICTED BY IDOCK:   -3.02 KCAL/MOL
REMARK 923 INTER-LIGAND FREE ENERGY PREDICTED BY IDOCK:   -2.78 KCAL/MOL
REMARK 924 INTRA-LIGAND FREE ENERGY PREDICTED BY IDOCK:   -0.24 KCAL/MOL
REMARK 927      BINDING AFFINITY PREDICTED BY RF-SCORE:    0.00 PKD
ROOT
HETATM    1  C   UNL     1     -11.293   6.290  69.588  1.00  0.00    -0.422 C  
HETATM    2  N   UNL     1     -10.109   5.636  70.283  1.00  0.00    -0.204 N  
HETATM    3  C   UNL     1      -9.733   4.396  69.480  1.00  0.00    -0.210 C  
HETATM    4  C   UNL     1     -10.496   5.222  71.686  1.00  0.00    -0.214 C  
ENDROOT
BRANCH   2   5
HETATM    5  C   UNL     1      -8.857   6.561  70.286  1.00  0.00    -0.151 C  
BRANCH   5   6
HETATM    6  C   UNL     1      -9.064   8.098  70.388  1.00  0.00    -0.150 C  
HETATM    7  H   UNL     1      -8.002   9.738  70.031  1.00  0.00     0.000 HD 
HETATM    8  O   UNL     1      -7.875   8.799  69.970  1.00  0.00    -0.085 OA 
BRANCH   6   9
HETATM    9  C   UNL     1      -9.532   8.681  71.715  1.00  0.00    -0.354 C  
HETATM   10  C   UNL     1     -10.894   9.324  71.542  1.00  0.00    -0.372 C  
HETATM   11  O   UNL     1     -11.023  10.019  70.501  1.00  0.00    -0.290 OA 
HETATM   12  O   UNL     1     -11.750   8.960  72.391  1.00  0.00    -0.331 OA 
ENDBRANCH   6   9
ENDBRANCH   5   6
ENDBRANCH   2   5
TORSDOF 3
ENDMDL
MODEL      133
REMARK 921   NORMALIZED FREE ENERGY PREDICTED BY IDOCK:   -2.25 KCAL/MOL
REMARK 922        TOTAL FREE ENERGY PREDICTED BY IDOCK:   -3.00 KCAL/MOL
REMARK 923 INTER-LIGAND FREE ENERGY PREDICTED BY IDOCK:   -2.87 KCAL/MOL
REMARK 924 INTRA-LIGAND FREE ENERGY PREDICTED BY IDOCK:   -0.13 KCAL/MOL
REMARK 927      BINDING AFFINITY PREDICTED BY RF-SCORE:    0.00 PKD
ROOT
HETATM    1  C   UNL     1      -9.062  15.334  65.982  1.00  0.00    -0.209 C  
HETATM    2  N   UNL     1     -10.470  15.905  66.057  1.00  0.00    -0.331 N  
HETATM    3  C   UNL     1     -11.227  15.420  64.826  1.00  0.00    -0.395 C  
HETATM    4  C   UNL     1     -10.418  17.417  66.046  1.00  0.00    -0.276 C  
ENDROOT
BRANCH   2   5
HETATM    5  C   UNL     1     -11.246  15.370  67.296  1.00  0.00    -0.270 C  
BRANCH   5   6
HETATM    6  C   UNL     1     -10.438  14.889  68.533  1.00  0.00    -0.242 C  
HETATM    7  H   UNL     1     -10.740  13.709  70.103  1.00  0.00     0.000 HD 
HETATM    8  O   UNL     1     -11.235  14.004  69.346  1.00  0.00    -0.252 OA 
BRANCH   6   9
HETATM    9  C   UNL     1      -9.798  15.937  69.434  1.00  0.00    -0.280 C  
HETATM   10  C   UNL     1      -8.298  15.956  69.215  1.00  0.00    -0.238 C  
HETATM   11  O   UNL     1      -7.759  14.822  69.135  1.00  0.00    -0.143 OA 
HETATM   12  O   UNL     1      -7.820  17.102  69.003  1.00  0.00    -0.234 OA 
ENDBRANCH   6   9
ENDBRANCH   5   6
ENDBRANCH   2   5
TORSDOF 3
ENDMDL
MODEL      134
REMARK 921   NORMALIZED FREE ENERGY PREDICTED BY IDOCK:   -2.24 KCAL/MOL
REMARK 922        TOTAL FREE ENERGY PREDICTED BY IDOCK:   -2.99 KCAL/MOL
REMARK 923 INTER-LIGAND FREE ENERGY PREDICTED BY IDOCK:   -2.76 KCAL/MOL
REMARK 924 INTRA-LIGAND FREE ENERGY PREDICTED BY IDOCK:   -0.23 KCAL/MOL
REMARK 927      BINDING AFFINITY PREDICTED BY RF-SCORE:    0.00 PKD
ROOT
HETATM    1  C   UNL     1     -10.370   8.468  69.001  1.00  0.00    -0.216 C  
HETATM    2  N   UNL     1     -10.047   7.279  69.894  1.00  0.00    -0.191 N  
HETATM    3  C   UNL     1      -8.669   6.767  69.493  1.00  0.00    -0.133 C  
HETATM    4  C   UNL     1     -11.067   6.182  69.684  1.00  0.00    -0.419 C  
ENDROOT
BRANCH   2   5
HETATM    5  C   UNL     1      -9.952   7.690  71.393  1.00  0.00    -0.181 C  
BRANCH   5   6
HETATM    6  C   UNL     1     -11.006   7.131  72.389  1.00  0.00    -0.251 C  
HETATM    7  H   UNL     1     -12.643   7.790  73.300  1.00  0.00     0.000 HD 
HETATM    8  O   UNL     1     -11.999   8.132  72.690  1.00  0.00    -0.381 OA 
BRANCH   6   9
HETATM    9  C   UNL     1     -10.516   6.520  73.696  1.00  0.00    -0.330 C  
HETATM   10  C   UNL     1     -10.727   5.019  73.672  1.00  0.00    -0.293 C  
HETATM   11  O   UNL     1     -11.838   4.648  73.214  1.00  0.00    -0.249 OA 
HETATM   12  O   UNL     1      -9.708   4.348  73.983  1.00  0.00    -0.115 OA 
ENDBRANCH   6   9
ENDBRANCH   5   6
ENDBRANCH   2   5
TORSDOF 3
ENDMDL
MODEL      135
REMARK 921   NORMALIZED FREE ENERGY PREDICTED BY IDOCK:   -2.23 KCAL/MOL
REMARK 922        TOTAL FREE ENERGY PREDICTED BY IDOCK:   -2.99 KCAL/MOL
REMARK 923 INTER-LIGAND FREE ENERGY PREDICTED BY IDOCK:   -2.62 KCAL/MOL
REMARK 924 INTRA-LIGAND FREE ENERGY PREDICTED BY IDOCK:   -0.37 KCAL/MOL
REMARK 927      BINDING AFFINITY PREDICTED BY RF-SCORE:    0.00 PKD
ROOT
HETATM    1  C   UNL     1     -11.190   7.572  70.292  1.00  0.00    -0.236 C  
HETATM    2  N   UNL     1     -11.020   8.634  71.367  1.00  0.00    -0.251 N  
HETATM    3  C   UNL     1     -11.800   8.174  72.593  1.00  0.00    -0.326 C  
HETATM    4  C   UNL     1     -11.582   9.953  70.885  1.00  0.00    -0.373 C  
ENDROOT
BRANCH   2   5
HETATM    5  C   UNL     1      -9.534   8.776  71.811  1.00  0.00    -0.293 C  
BRANCH   5   6
HETATM    6  C   UNL     1      -9.013   7.885  72.973  1.00  0.00    -0.225 C  
HETATM    7  H   UNL     1      -7.907   8.118  74.606  1.00  0.00     0.000 HD 
HETATM    8  O   UNL     1      -8.226   8.663  73.896  1.00  0.00    -0.379 OA 
BRANCH   6   9
HETATM    9  C   UNL     1      -8.244   6.616  72.624  1.00  0.00    -0.108 C  
HETATM   10  C   UNL     1      -9.185   5.427  72.632  1.00  0.00    -0.137 C  
HETATM   11  O   UNL     1      -9.992   5.396  73.597  1.00  0.00    -0.160 OA 
HETATM   12  O   UNL     1      -9.123   4.711  71.598  1.00  0.00    -0.129 OA 
ENDBRANCH   6   9
ENDBRANCH   5   6
ENDBRANCH   2   5
TORSDOF 3
ENDMDL
MODEL      136
REMARK 921   NORMALIZED FREE ENERGY PREDICTED BY IDOCK:   -2.23 KCAL/MOL
REMARK 922        TOTAL FREE ENERGY PREDICTED BY IDOCK:   -2.98 KCAL/MOL
REMARK 923 INTER-LIGAND FREE ENERGY PREDICTED BY IDOCK:   -3.42 KCAL/MOL
REMARK 924 INTRA-LIGAND FREE ENERGY PREDICTED BY IDOCK:    0.43 KCAL/MOL
REMARK 927      BINDING AFFINITY PREDICTED BY RF-SCORE:    0.00 PKD
ROOT
HETATM    1  C   UNL     1      -9.227  10.115  68.140  1.00  0.00    -0.135 C  
HETATM    2  N   UNL     1      -8.926  10.251  66.655  1.00  0.00    -0.140 N  
HETATM    3  C   UNL     1      -9.623   9.100  65.939  1.00  0.00    -0.273 C  
HETATM    4  C   UNL     1      -7.435  10.156  66.418  1.00  0.00    -0.108 C  
ENDROOT
BRANCH   2   5
HETATM    5  C   UNL     1      -9.515  11.565  66.064  1.00  0.00    -0.229 C  
BRANCH   5   6
HETATM    6  C   UNL     1     -10.940  11.533  65.443  1.00  0.00    -0.226 C  
HETATM    7  H   UNL     1     -11.736  11.437  63.626  1.00  0.00     0.000 HD 
HETATM    8  O   UNL     1     -10.865  11.457  64.005  1.00  0.00    -0.355 OA 
BRANCH   6   9
HETATM    9  C   UNL     1     -11.922  12.634  65.824  1.00  0.00    -0.503 C  
HETATM   10  C   UNL     1     -11.706  13.844  64.937  1.00  0.00    -0.368 C  
HETATM   11  O   UNL     1     -10.501  14.153  64.746  1.00  0.00    -0.420 OA 
HETATM   12  O   UNL     1     -12.756  14.288  64.402  1.00  0.00    -0.661 OA 
ENDBRANCH   6   9
ENDBRANCH   5   6
ENDBRANCH   2   5
TORSDOF 3
ENDMDL
MODEL      137
REMARK 921   NORMALIZED FREE ENERGY PREDICTED BY IDOCK:   -2.23 KCAL/MOL
REMARK 922        TOTAL FREE ENERGY PREDICTED BY IDOCK:   -2.98 KCAL/MOL
REMARK 923 INTER-LIGAND FREE ENERGY PREDICTED BY IDOCK:   -2.72 KCAL/MOL
REMARK 924 INTRA-LIGAND FREE ENERGY PREDICTED BY IDOCK:   -0.27 KCAL/MOL
REMARK 927      BINDING AFFINITY PREDICTED BY RF-SCORE:    0.00 PKD
ROOT
HETATM    1  C   UNL     1      -9.848   9.584  66.237  1.00  0.00    -0.266 C  
HETATM    2  N   UNL     1      -9.596  10.905  65.526  1.00  0.00    -0.208 N  
HETATM    3  C   UNL     1     -10.954  11.508  65.185  1.00  0.00    -0.234 C  
HETATM    4  C   UNL     1      -8.821  10.666  64.249  1.00  0.00    -0.164 C  
ENDROOT
BRANCH   2   5
HETATM    5  C   UNL     1      -8.873  11.930  66.449  1.00  0.00    -0.152 C  
BRANCH   5   6
HETATM    6  C   UNL     1      -9.626  13.224  66.863  1.00  0.00    -0.249 C  
HETATM    7  H   UNL     1      -9.348  15.185  66.711  1.00  0.00     0.000 HD 
HETATM    8  O   UNL     1      -8.887  14.393  66.458  1.00  0.00    -0.202 OA 
BRANCH   6   9
HETATM    9  C   UNL     1     -10.039  13.388  68.321  1.00  0.00    -0.247 C  
HETATM   10  C   UNL     1     -11.542  13.239  68.449  1.00  0.00    -0.337 C  
HETATM   11  O   UNL     1     -12.211  13.834  67.564  1.00  0.00    -0.355 OA 
HETATM   12  O   UNL     1     -11.908  12.428  69.339  1.00  0.00    -0.301 OA 
ENDBRANCH   6   9
ENDBRANCH   5   6
ENDBRANCH   2   5
TORSDOF 3
ENDMDL
MODEL      138
REMARK 921   NORMALIZED FREE ENERGY PREDICTED BY IDOCK:   -2.23 KCAL/MOL
REMARK 922        TOTAL FREE ENERGY PREDICTED BY IDOCK:   -2.98 KCAL/MOL
REMARK 923 INTER-LIGAND FREE ENERGY PREDICTED BY IDOCK:   -2.71 KCAL/MOL
REMARK 924 INTRA-LIGAND FREE ENERGY PREDICTED BY IDOCK:   -0.27 KCAL/MOL
REMARK 927      BINDING AFFINITY PREDICTED BY RF-SCORE:    0.00 PKD
ROOT
HETATM    1  C   UNL     1      -6.473  12.531  67.340  1.00  0.00    -0.153 C  
HETATM    2  N   UNL     1      -7.920  12.659  67.792  1.00  0.00    -0.144 N  
HETATM    3  C   UNL     1      -8.074  14.026  68.449  1.00  0.00    -0.148 C  
HETATM    4  C   UNL     1      -8.245  11.581  68.801  1.00  0.00    -0.082 C  
ENDROOT
BRANCH   2   5
HETATM    5  C   UNL     1      -8.907  12.630  66.588  1.00  0.00    -0.126 C  
BRANCH   5   6
HETATM    6  C   UNL     1     -10.245  13.412  66.699  1.00  0.00    -0.274 C  
HETATM    7  H   UNL     1     -12.166  12.984  66.966  1.00  0.00     0.000 HD 
HETATM    8  O   UNL     1     -11.348  12.505  66.898  1.00  0.00    -0.288 OA 
BRANCH   6   9
HETATM    9  C   UNL     1     -10.609  14.387  65.587  1.00  0.00    -0.339 C  
HETATM   10  C   UNL     1     -10.593  15.806  66.121  1.00  0.00    -0.313 C  
HETATM   11  O   UNL     1     -11.129  15.953  67.250  1.00  0.00    -0.281 OA 
HETATM   12  O   UNL     1      -9.921  16.613  65.426  1.00  0.00    -0.565 OA 
ENDBRANCH   6   9
ENDBRANCH   5   6
ENDBRANCH   2   5
TORSDOF 3
ENDMDL
MODEL      139
REMARK 921   NORMALIZED FREE ENERGY PREDICTED BY IDOCK:   -2.20 KCAL/MOL
REMARK 922        TOTAL FREE ENERGY PREDICTED BY IDOCK:   -2.95 KCAL/MOL
REMARK 923 INTER-LIGAND FREE ENERGY PREDICTED BY IDOCK:   -2.71 KCAL/MOL
REMARK 924 INTRA-LIGAND FREE ENERGY PREDICTED BY IDOCK:   -0.24 KCAL/MOL
REMARK 927      BINDING AFFINITY PREDICTED BY RF-SCORE:    0.00 PKD
ROOT
HETATM    1  C   UNL     1     -12.251   6.716  71.391  1.00  0.00    -0.324 C  
HETATM    2  N   UNL     1     -11.759   8.154  71.450  1.00  0.00    -0.278 N  
HETATM    3  C   UNL     1     -10.636   8.212  72.479  1.00  0.00    -0.340 C  
HETATM    4  C   UNL     1     -12.882   9.069  71.886  1.00  0.00    -0.387 C  
ENDROOT
BRANCH   2   5
HETATM    5  C   UNL     1     -11.144   8.612  70.094  1.00  0.00    -0.192 C  
BRANCH   5   6
HETATM    6  C   UNL     1     -10.246   9.880  70.071  1.00  0.00    -0.271 C  
HETATM    7  H   UNL     1     -10.477  11.824  69.737  1.00  0.00     0.000 HD 
HETATM    8  O   UNL     1     -11.026  11.049  69.751  1.00  0.00    -0.250 OA 
BRANCH   6   9
HETATM    9  C   UNL     1      -9.000   9.870  69.194  1.00  0.00    -0.170 C  
HETATM   10  C   UNL     1      -7.848   9.232  69.946  1.00  0.00    -0.109 C  
HETATM   11  O   UNL     1      -7.736   9.590  71.147  1.00  0.00    -0.325 OA 
HETATM   12  O   UNL     1      -7.250   8.327  69.306  1.00  0.00    -0.062 OA 
ENDBRANCH   6   9
ENDBRANCH   5   6
ENDBRANCH   2   5
TORSDOF 3
ENDMDL
MODEL      140
REMARK 921   NORMALIZED FREE ENERGY PREDICTED BY IDOCK:   -2.20 KCAL/MOL
REMARK 922        TOTAL FREE ENERGY PREDICTED BY IDOCK:   -2.95 KCAL/MOL
REMARK 923 INTER-LIGAND FREE ENERGY PREDICTED BY IDOCK:   -2.67 KCAL/MOL
REMARK 924 INTRA-LIGAND FREE ENERGY PREDICTED BY IDOCK:   -0.28 KCAL/MOL
REMARK 927      BINDING AFFINITY PREDICTED BY RF-SCORE:    0.00 PKD
ROOT
HETATM    1  C   UNL     1     -11.977  13.998  67.994  1.00  0.00    -0.350 C  
HETATM    2  N   UNL     1     -11.286  12.680  68.307  1.00  0.00    -0.252 N  
HETATM    3  C   UNL     1      -9.784  12.938  68.304  1.00  0.00    -0.217 C  
HETATM    4  C   UNL     1     -11.617  11.656  67.243  1.00  0.00    -0.238 C  
ENDROOT
BRANCH   2   5
HETATM    5  C   UNL     1     -11.647  12.160  69.730  1.00  0.00    -0.262 C  
BRANCH   5   6
HETATM    6  C   UNL     1     -11.577  10.633  70.008  1.00  0.00    -0.325 C  
HETATM    7  H   UNL     1     -12.544   9.311  71.132  1.00  0.00     0.000 HD 
HETATM    8  O   UNL     1     -12.586  10.245  70.962  1.00  0.00    -0.329 OA 
BRANCH   6   9
HETATM    9  C   UNL     1     -10.244  10.033  70.436  1.00  0.00    -0.218 C  
HETATM   10  C   UNL     1      -9.781   9.023  69.405  1.00  0.00    -0.169 C  
HETATM   11  O   UNL     1     -10.678   8.250  68.980  1.00  0.00    -0.184 OA 
HETATM   12  O   UNL     1      -8.595   9.187  69.015  1.00  0.00    -0.129 OA 
ENDBRANCH   6   9
ENDBRANCH   5   6
ENDBRANCH   2   5
TORSDOF 3
ENDMDL
MODEL      141
REMARK 921   NORMALIZED FREE ENERGY PREDICTED BY IDOCK:   -2.20 KCAL/MOL
REMARK 922        TOTAL FREE ENERGY PREDICTED BY IDOCK:   -2.95 KCAL/MOL
REMARK 923 INTER-LIGAND FREE ENERGY PREDICTED BY IDOCK:   -2.70 KCAL/MOL
REMARK 924 INTRA-LIGAND FREE ENERGY PREDICTED BY IDOCK:   -0.25 KCAL/MOL
REMARK 927      BINDING AFFINITY PREDICTED BY RF-SCORE:    0.00 PKD
ROOT
HETATM    1  C   UNL     1     -11.607   6.388  70.062  1.00  0.00    -0.377 C  
HETATM    2  N   UNL     1     -10.452   6.203  69.090  1.00  0.00    -0.222 N  
HETATM    3  C   UNL     1     -11.034   6.200  67.681  1.00  0.00    -0.302 C  
HETATM    4  C   UNL     1      -9.764   4.881  69.348  1.00  0.00    -0.191 C  
ENDROOT
BRANCH   2   5
HETATM    5  C   UNL     1      -9.446   7.390  69.154  1.00  0.00    -0.149 C  
BRANCH   5   6
HETATM    6  C   UNL     1      -9.947   8.767  69.674  1.00  0.00    -0.191 C  
HETATM    7  H   UNL     1     -10.554  10.488  68.891  1.00  0.00     0.000 HD 
HETATM    8  O   UNL     1     -10.248   9.646  68.572  1.00  0.00    -0.178 OA 
BRANCH   6   9
HETATM    9  C   UNL     1      -9.084   9.520  70.679  1.00  0.00    -0.236 C  
HETATM   10  C   UNL     1      -9.161   8.841  72.032  1.00  0.00    -0.189 C  
HETATM   11  O   UNL     1     -10.315   8.483  72.381  1.00  0.00    -0.320 OA 
HETATM   12  O   UNL     1      -8.041   8.605  72.558  1.00  0.00    -0.347 OA 
ENDBRANCH   6   9
ENDBRANCH   5   6
ENDBRANCH   2   5
TORSDOF 3
ENDMDL
MODEL      142
REMARK 921   NORMALIZED FREE ENERGY PREDICTED BY IDOCK:   -2.20 KCAL/MOL
REMARK 922        TOTAL FREE ENERGY PREDICTED BY IDOCK:   -2.95 KCAL/MOL
REMARK 923 INTER-LIGAND FREE ENERGY PREDICTED BY IDOCK:   -3.27 KCAL/MOL
REMARK 924 INTRA-LIGAND FREE ENERGY PREDICTED BY IDOCK:    0.32 KCAL/MOL
REMARK 927      BINDING AFFINITY PREDICTED BY RF-SCORE:    0.00 PKD
ROOT
HETATM    1  C   UNL     1      -9.594  20.091  68.123  1.00  0.00    -0.308 C  
HETATM    2  N   UNL     1      -9.751  19.270  66.852  1.00  0.00    -0.315 N  
HETATM    3  C   UNL     1      -8.353  18.904  66.368  1.00  0.00    -0.296 C  
HETATM    4  C   UNL     1     -10.448  20.090  65.789  1.00  0.00    -0.364 C  
ENDROOT
BRANCH   2   5
HETATM    5  C   UNL     1     -10.495  17.928  67.117  1.00  0.00    -0.353 C  
BRANCH   5   6
HETATM    6  C   UNL     1      -9.806  16.597  66.709  1.00  0.00    -0.273 C  
HETATM    7  H   UNL     1     -10.078  15.171  65.353  1.00  0.00     0.000 HD 
HETATM    8  O   UNL     1     -10.500  15.985  65.603  1.00  0.00    -0.358 OA 
BRANCH   6   9
HETATM    9  C   UNL     1      -9.571  15.542  67.783  1.00  0.00    -0.209 C  
HETATM   10  C   UNL     1     -10.812  14.687  67.942  1.00  0.00    -0.259 C  
HETATM   11  O   UNL     1     -11.897  15.323  67.952  1.00  0.00    -0.303 OA 
HETATM   12  O   UNL     1     -10.595  13.447  67.902  1.00  0.00    -0.236 OA 
ENDBRANCH   6   9
ENDBRANCH   5   6
ENDBRANCH   2   5
TORSDOF 3
ENDMDL
MODEL      143
REMARK 921   NORMALIZED FREE ENERGY PREDICTED BY IDOCK:   -2.19 KCAL/MOL
REMARK 922        TOTAL FREE ENERGY PREDICTED BY IDOCK:   -2.93 KCAL/MOL
REMARK 923 INTER-LIGAND FREE ENERGY PREDICTED BY IDOCK:   -2.68 KCAL/MOL
REMARK 924 INTRA-LIGAND FREE ENERGY PREDICTED BY IDOCK:   -0.26 KCAL/MOL
REMARK 927      BINDING AFFINITY PREDICTED BY RF-SCORE:    0.00 PKD
ROOT
HETATM    1  C   UNL     1      -9.449   8.457  68.032  1.00  0.00    -0.143 C  
HETATM    2  N   UNL     1      -9.601   9.810  68.708  1.00  0.00    -0.150 N  
HETATM    3  C   UNL     1      -8.632  10.773  68.031  1.00  0.00    -0.128 C  
HETATM    4  C   UNL     1      -9.249   9.699  70.175  1.00  0.00    -0.246 C  
ENDROOT
BRANCH   2   5
HETATM    5  C   UNL     1     -11.028  10.400  68.508  1.00  0.00    -0.254 C  
BRANCH   5   6
HETATM    6  C   UNL     1     -11.318  11.843  69.009  1.00  0.00    -0.279 C  
HETATM    7  H   UNL     1     -12.335  12.697  70.486  1.00  0.00     0.000 HD 
HETATM    8  O   UNL     1     -12.158  11.814  70.179  1.00  0.00    -0.320 OA 
BRANCH   6   9
HETATM    9  C   UNL     1     -11.890  12.852  68.021  1.00  0.00    -0.390 C  
HETATM   10  C   UNL     1     -10.767  13.673  67.418  1.00  0.00    -0.267 C  
HETATM   11  O   UNL     1      -9.895  14.062  68.238  1.00  0.00    -0.221 OA 
HETATM   12  O   UNL     1     -10.788  13.735  66.160  1.00  0.00    -0.279 OA 
ENDBRANCH   6   9
ENDBRANCH   5   6
ENDBRANCH   2   5
TORSDOF 3
ENDMDL
MODEL      144
REMARK 921   NORMALIZED FREE ENERGY PREDICTED BY IDOCK:   -2.18 KCAL/MOL
REMARK 922        TOTAL FREE ENERGY PREDICTED BY IDOCK:   -2.92 KCAL/MOL
REMARK 923 INTER-LIGAND FREE ENERGY PREDICTED BY IDOCK:   -3.53 KCAL/MOL
REMARK 924 INTRA-LIGAND FREE ENERGY PREDICTED BY IDOCK:    0.61 KCAL/MOL
REMARK 927      BINDING AFFINITY PREDICTED BY RF-SCORE:    0.00 PKD
ROOT
HETATM    1  C   UNL     1     -12.620  13.740  65.757  1.00  0.00    -0.480 C  
HETATM    2  N   UNL     1     -11.570  13.191  64.803  1.00  0.00    -0.320 N  
HETATM    3  C   UNL     1     -10.432  14.203  64.743  1.00  0.00    -0.408 C  
HETATM    4  C   UNL     1     -12.162  13.024  63.421  1.00  0.00    -0.472 C  
ENDROOT
BRANCH   2   5
HETATM    5  C   UNL     1     -10.955  11.859  65.324  1.00  0.00    -0.302 C  
BRANCH   5   6
HETATM    6  C   UNL     1     -10.803  11.655  66.858  1.00  0.00    -0.278 C  
HETATM    7  H   UNL     1     -12.002  11.360  68.414  1.00  0.00     0.000 HD 
HETATM    8  O   UNL     1     -12.094  11.485  67.476  1.00  0.00    -0.614 OA 
BRANCH   6   9
HETATM    9  C   UNL     1     -10.013  12.687  67.652  1.00  0.00    -0.216 C  
HETATM   10  C   UNL     1      -8.737  12.061  68.180  1.00  0.00    -0.177 C  
HETATM   11  O   UNL     1      -8.873  10.907  68.662  1.00  0.00    -0.146 OA 
HETATM   12  O   UNL     1      -7.695  12.726  67.937  1.00  0.00    -0.117 OA 
ENDBRANCH   6   9
ENDBRANCH   5   6
ENDBRANCH   2   5
TORSDOF 3
ENDMDL
MODEL      145
REMARK 921   NORMALIZED FREE ENERGY PREDICTED BY IDOCK:   -2.17 KCAL/MOL
REMARK 922        TOTAL FREE ENERGY PREDICTED BY IDOCK:   -2.91 KCAL/MOL
REMARK 923 INTER-LIGAND FREE ENERGY PREDICTED BY IDOCK:   -3.28 KCAL/MOL
REMARK 924 INTRA-LIGAND FREE ENERGY PREDICTED BY IDOCK:    0.37 KCAL/MOL
REMARK 927      BINDING AFFINITY PREDICTED BY RF-SCORE:    0.00 PKD
ROOT
HETATM    1  C   UNL     1      -9.993   9.257  66.081  1.00  0.00    -0.277 C  
HETATM    2  N   UNL     1      -9.407  10.461  65.358  1.00  0.00    -0.188 N  
HETATM    3  C   UNL     1      -9.490  10.182  63.862  1.00  0.00    -0.275 C  
HETATM    4  C   UNL     1      -7.958  10.647  65.751  1.00  0.00    -0.152 C  
ENDROOT
BRANCH   2   5
HETATM    5  C   UNL     1     -10.238  11.752  65.617  1.00  0.00    -0.246 C  
BRANCH   5   6
HETATM    6  C   UNL     1     -10.599  12.127  67.081  1.00  0.00    -0.226 C  
HETATM    7  H   UNL     1     -12.214  12.096  68.238  1.00  0.00     0.000 HD 
HETATM    8  O   UNL     1     -11.993  11.867  67.342  1.00  0.00    -0.603 OA 
BRANCH   6   9
HETATM    9  C   UNL     1     -10.264  13.529  67.575  1.00  0.00    -0.234 C  
HETATM   10  C   UNL     1     -11.426  14.462  67.299  1.00  0.00    -0.359 C  
HETATM   11  O   UNL     1     -11.950  14.335  66.162  1.00  0.00    -0.391 OA 
HETATM   12  O   UNL     1     -11.794  15.139  68.295  1.00  0.00    -0.331 OA 
ENDBRANCH   6   9
ENDBRANCH   5   6
ENDBRANCH   2   5
TORSDOF 3
ENDMDL
MODEL      146
REMARK 921   NORMALIZED FREE ENERGY PREDICTED BY IDOCK:   -2.17 KCAL/MOL
REMARK 922        TOTAL FREE ENERGY PREDICTED BY IDOCK:   -2.91 KCAL/MOL
REMARK 923 INTER-LIGAND FREE ENERGY PREDICTED BY IDOCK:   -2.67 KCAL/MOL
REMARK 924 INTRA-LIGAND FREE ENERGY PREDICTED BY IDOCK:   -0.24 KCAL/MOL
REMARK 927      BINDING AFFINITY PREDICTED BY RF-SCORE:    0.00 PKD
ROOT
HETATM    1  C   UNL     1     -10.751  15.122  70.699  1.00  0.00    -0.121 C  
HETATM    2  N   UNL     1     -11.033  14.891  69.222  1.00  0.00    -0.259 N  
HETATM    3  C   UNL     1     -12.393  15.506  68.914  1.00  0.00     0.086 C  
HETATM    4  C   UNL     1     -11.078  13.408  68.928  1.00  0.00    -0.266 C  
ENDROOT
BRANCH   2   5
HETATM    5  C   UNL     1      -9.999  15.621  68.315  1.00  0.00    -0.213 C  
BRANCH   5   6
HETATM    6  C   UNL     1      -9.696  15.036  66.907  1.00  0.00    -0.238 C  
HETATM    7  H   UNL     1      -8.201  15.084  65.600  1.00  0.00     0.000 HD 
HETATM    8  O   UNL     1      -8.387  15.442  66.460  1.00  0.00    -0.258 OA 
BRANCH   6   9
HETATM    9  C   UNL     1     -10.695  15.290  65.786  1.00  0.00    -0.357 C  
HETATM   10  C   UNL     1     -11.235  13.970  65.271  1.00  0.00    -0.319 C  
HETATM   11  O   UNL     1     -10.371  13.069  65.114  1.00  0.00    -0.295 OA 
HETATM   12  O   UNL     1     -12.491  13.915  65.205  1.00  0.00    -0.433 OA 
ENDBRANCH   6   9
ENDBRANCH   5   6
ENDBRANCH   2   5
TORSDOF 3
ENDMDL
MODEL      147
REMARK 921   NORMALIZED FREE ENERGY PREDICTED BY IDOCK:   -2.17 KCAL/MOL
REMARK 922        TOTAL FREE ENERGY PREDICTED BY IDOCK:   -2.91 KCAL/MOL
REMARK 923 INTER-LIGAND FREE ENERGY PREDICTED BY IDOCK:   -3.29 KCAL/MOL
REMARK 924 INTRA-LIGAND FREE ENERGY PREDICTED BY IDOCK:    0.38 KCAL/MOL
REMARK 927      BINDING AFFINITY PREDICTED BY RF-SCORE:    0.00 PKD
ROOT
HETATM    1  C   UNL     1      -9.777   8.538  68.492  1.00  0.00    -0.163 C  
HETATM    2  N   UNL     1      -9.191   8.128  69.834  1.00  0.00    -0.151 N  
HETATM    3  C   UNL     1      -8.670   9.390  70.512  1.00  0.00    -0.231 C  
HETATM    4  C   UNL     1      -8.044   7.163  69.627  1.00  0.00    -0.129 C  
ENDROOT
BRANCH   2   5
HETATM    5  C   UNL     1     -10.275   7.530  70.780  1.00  0.00    -0.194 C  
BRANCH   5   6
HETATM    6  C   UNL     1     -10.950   8.460  71.825  1.00  0.00    -0.291 C  
HETATM    7  H   UNL     1     -11.612   8.316  73.692  1.00  0.00     0.000 HD 
HETATM    8  O   UNL     1     -11.199   7.747  73.053  1.00  0.00    -0.405 OA 
BRANCH   6   9
HETATM    9  C   UNL     1     -12.220   9.200  71.424  1.00  0.00    -0.407 C  
HETATM   10  C   UNL     1     -13.436   8.387  71.821  1.00  0.00    -0.364 C  
HETATM   11  O   UNL     1     -13.354   7.156  71.573  1.00  0.00    -0.383 OA 
HETATM   12  O   UNL     1     -14.302   9.031  72.469  1.00  0.00    -0.570 OA 
ENDBRANCH   6   9
ENDBRANCH   5   6
ENDBRANCH   2   5
TORSDOF 3
ENDMDL
MODEL      148
REMARK 921   NORMALIZED FREE ENERGY PREDICTED BY IDOCK:   -2.16 KCAL/MOL
REMARK 922        TOTAL FREE ENERGY PREDICTED BY IDOCK:   -2.91 KCAL/MOL
REMARK 923 INTER-LIGAND FREE ENERGY PREDICTED BY IDOCK:   -2.63 KCAL/MOL
REMARK 924 INTRA-LIGAND FREE ENERGY PREDICTED BY IDOCK:   -0.27 KCAL/MOL
REMARK 927      BINDING AFFINITY PREDICTED BY RF-SCORE:    0.00 PKD
ROOT
HETATM    1  C   UNL     1      -9.025   7.157  70.483  1.00  0.00    -0.155 C  
HETATM    2  N   UNL     1      -9.848   8.310  71.039  1.00  0.00    -0.182 N  
HETATM    3  C   UNL     1      -9.669   8.312  72.553  1.00  0.00    -0.298 C  
HETATM    4  C   UNL     1     -11.311   8.107  70.711  1.00  0.00    -0.270 C  
ENDROOT
BRANCH   2   5
HETATM    5  C   UNL     1      -9.335   9.687  70.527  1.00  0.00    -0.166 C  
BRANCH   5   6
HETATM    6  C   UNL     1      -9.018   9.852  69.015  1.00  0.00    -0.160 C  
HETATM    7  H   UNL     1      -7.404  10.089  67.882  1.00  0.00     0.000 HD 
HETATM    8  O   UNL     1      -7.598   9.988  68.807  1.00  0.00    -0.077 OA 
BRANCH   6   9
HETATM    9  C   UNL     1      -9.733  10.951  68.239  1.00  0.00    -0.171 C  
HETATM   10  C   UNL     1     -11.005  10.401  67.625  1.00  0.00    -0.312 C  
HETATM   11  O   UNL     1     -10.889   9.267  67.092  1.00  0.00    -0.217 OA 
HETATM   12  O   UNL     1     -12.032  11.092  67.855  1.00  0.00    -0.624 OA 
ENDBRANCH   6   9
ENDBRANCH   5   6
ENDBRANCH   2   5
TORSDOF 3
ENDMDL
MODEL      149
REMARK 921   NORMALIZED FREE ENERGY PREDICTED BY IDOCK:   -2.16 KCAL/MOL
REMARK 922        TOTAL FREE ENERGY PREDICTED BY IDOCK:   -2.90 KCAL/MOL
REMARK 923 INTER-LIGAND FREE ENERGY PREDICTED BY IDOCK:   -3.51 KCAL/MOL
REMARK 924 INTRA-LIGAND FREE ENERGY PREDICTED BY IDOCK:    0.61 KCAL/MOL
REMARK 927      BINDING AFFINITY PREDICTED BY RF-SCORE:    0.00 PKD
ROOT
HETATM    1  C   UNL     1      -8.779   7.792  74.143  1.00  0.00    -0.238 C  
HETATM    2  N   UNL     1      -9.574   7.512  72.876  1.00  0.00    -0.176 N  
HETATM    3  C   UNL     1      -9.053   6.206  72.288  1.00  0.00    -0.137 C  
HETATM    4  C   UNL     1      -9.364   8.628  71.876  1.00  0.00    -0.287 C  
ENDROOT
BRANCH   2   5
HETATM    5  C   UNL     1     -11.086   7.294  73.178  1.00  0.00    -0.292 C  
BRANCH   5   6
HETATM    6  C   UNL     1     -12.089   7.268  71.991  1.00  0.00    -0.290 C  
HETATM    7  H   UNL     1     -12.329   6.242  70.308  1.00  0.00     0.000 HD 
HETATM    8  O   UNL     1     -11.716   6.257  71.034  1.00  0.00    -0.319 OA 
BRANCH   6   9
HETATM    9  C   UNL     1     -12.365   8.569  71.247  1.00  0.00    -0.301 C  
HETATM   10  C   UNL     1     -13.388   9.389  72.008  1.00  0.00    -0.450 C  
HETATM   11  O   UNL     1     -14.364   8.734  72.456  1.00  0.00    -0.562 OA 
HETATM   12  O   UNL     1     -13.049  10.586  72.204  1.00  0.00    -0.459 OA 
ENDBRANCH   6   9
ENDBRANCH   5   6
ENDBRANCH   2   5
TORSDOF 3
ENDMDL
MODEL      150
REMARK 921   NORMALIZED FREE ENERGY PREDICTED BY IDOCK:   -2.14 KCAL/MOL
REMARK 922        TOTAL FREE ENERGY PREDICTED BY IDOCK:   -2.88 KCAL/MOL
REMARK 923 INTER-LIGAND FREE ENERGY PREDICTED BY IDOCK:   -2.66 KCAL/MOL
REMARK 924 INTRA-LIGAND FREE ENERGY PREDICTED BY IDOCK:   -0.21 KCAL/MOL
REMARK 927      BINDING AFFINITY PREDICTED BY RF-SCORE:    0.00 PKD
ROOT
HETATM    1  C   UNL     1     -10.998   9.896  70.531  1.00  0.00    -0.326 C  
HETATM    2  N   UNL     1      -9.957   9.879  69.422  1.00  0.00    -0.199 N  
HETATM    3  C   UNL     1     -10.455   8.928  68.341  1.00  0.00    -0.187 C  
HETATM    4  C   UNL     1      -8.636   9.374  69.960  1.00  0.00    -0.203 C  
ENDROOT
BRANCH   2   5
HETATM    5  C   UNL     1      -9.803  11.276  68.751  1.00  0.00    -0.184 C  
BRANCH   5   6
HETATM    6  C   UNL     1      -9.466  11.344  67.236  1.00  0.00    -0.167 C  
HETATM    7  H   UNL     1      -7.838  11.256  66.100  1.00  0.00     0.000 HD 
HETATM    8  O   UNL     1      -8.045  11.215  67.027  1.00  0.00    -0.135 OA 
BRANCH   6   9
HETATM    9  C   UNL     1      -9.971  12.536  66.433  1.00  0.00    -0.262 C  
HETATM   10  C   UNL     1     -10.894  12.057  65.330  1.00  0.00    -0.294 C  
HETATM   11  O   UNL     1     -10.494  11.039  64.708  1.00  0.00    -0.317 OA 
HETATM   12  O   UNL     1     -11.999  12.660  65.281  1.00  0.00    -0.391 OA 
ENDBRANCH   6   9
ENDBRANCH   5   6
ENDBRANCH   2   5
TORSDOF 3
ENDMDL
MODEL      151
REMARK 921   NORMALIZED FREE ENERGY PREDICTED BY IDOCK:   -2.14 KCAL/MOL
REMARK 922        TOTAL FREE ENERGY PREDICTED BY IDOCK:   -2.87 KCAL/MOL
REMARK 923 INTER-LIGAND FREE ENERGY PREDICTED BY IDOCK:   -2.65 KCAL/MOL
REMARK 924 INTRA-LIGAND FREE ENERGY PREDICTED BY IDOCK:   -0.23 KCAL/MOL
REMARK 927      BINDING AFFINITY PREDICTED BY RF-SCORE:    0.00 PKD
ROOT
HETATM    1  C   UNL     1     -10.164  15.423  66.759  1.00  0.00    -0.271 C  
HETATM    2  N   UNL     1     -11.066  14.479  67.539  1.00  0.00    -0.297 N  
HETATM    3  C   UNL     1     -12.255  14.139  66.647  1.00  0.00    -0.418 C  
HETATM    4  C   UNL     1     -11.564  15.159  68.796  1.00  0.00    -0.349 C  
ENDROOT
BRANCH   2   5
HETATM    5  C   UNL     1     -10.354  13.133  67.863  1.00  0.00    -0.231 C  
BRANCH   5   6
HETATM    6  C   UNL     1      -9.050  12.774  67.097  1.00  0.00    -0.219 C  
HETATM    7  H   UNL     1      -8.561  11.859  65.403  1.00  0.00     0.000 HD 
HETATM    8  O   UNL     1      -9.358  12.078  65.872  1.00  0.00    -0.225 OA 
BRANCH   6   9
HETATM    9  C   UNL     1      -7.963  12.005  67.836  1.00  0.00    -0.147 C  
HETATM   10  C   UNL     1      -6.845  12.949  68.232  1.00  0.00    -0.093 C  
HETATM   11  O   UNL     1      -6.502  13.768  67.341  1.00  0.00    -0.292 OA 
HETATM   12  O   UNL     1      -6.510  12.875  69.444  1.00  0.00    -0.107 OA 
ENDBRANCH   6   9
ENDBRANCH   5   6
ENDBRANCH   2   5
TORSDOF 3
ENDMDL
MODEL      152
REMARK 921   NORMALIZED FREE ENERGY PREDICTED BY IDOCK:   -2.11 KCAL/MOL
REMARK 922        TOTAL FREE ENERGY PREDICTED BY IDOCK:   -2.85 KCAL/MOL
REMARK 923 INTER-LIGAND FREE ENERGY PREDICTED BY IDOCK:   -3.42 KCAL/MOL
REMARK 924 INTRA-LIGAND FREE ENERGY PREDICTED BY IDOCK:    0.57 KCAL/MOL
REMARK 927      BINDING AFFINITY PREDICTED BY RF-SCORE:    0.00 PKD
ROOT
HETATM    1  C   UNL     1     -10.190  19.725  68.326  1.00  0.00    -0.447 C  
HETATM    2  N   UNL     1      -9.941  18.447  67.538  1.00  0.00    -0.321 N  
HETATM    3  C   UNL     1     -10.356  18.712  66.096  1.00  0.00    -0.443 C  
HETATM    4  C   UNL     1     -10.781  17.321  68.100  1.00  0.00    -0.363 C  
ENDROOT
BRANCH   2   5
HETATM    5  C   UNL     1      -8.431  18.072  67.506  1.00  0.00    -0.237 C  
BRANCH   5   6
HETATM    6  C   UNL     1      -7.381  19.167  67.843  1.00  0.00    -0.250 C  
HETATM    7  H   UNL     1      -6.817  20.204  69.440  1.00  0.00     0.000 HD 
HETATM    8  O   UNL     1      -7.459  19.534  69.235  1.00  0.00    -0.351 OA 
BRANCH   6   9
HETATM    9  C   UNL     1      -7.364  20.438  67.002  1.00  0.00    -0.348 C  
HETATM   10  C   UNL     1      -6.403  20.273  65.842  1.00  0.00    -0.216 C  
HETATM   11  O   UNL     1      -5.305  19.732  66.135  1.00  0.00    -0.160 OA 
HETATM   12  O   UNL     1      -6.889  20.574  64.720  1.00  0.00    -0.282 OA 
ENDBRANCH   6   9
ENDBRANCH   5   6
ENDBRANCH   2   5
TORSDOF 3
ENDMDL
MODEL      153
REMARK 921   NORMALIZED FREE ENERGY PREDICTED BY IDOCK:   -2.11 KCAL/MOL
REMARK 922        TOTAL FREE ENERGY PREDICTED BY IDOCK:   -2.84 KCAL/MOL
REMARK 923 INTER-LIGAND FREE ENERGY PREDICTED BY IDOCK:   -3.16 KCAL/MOL
REMARK 924 INTRA-LIGAND FREE ENERGY PREDICTED BY IDOCK:    0.33 KCAL/MOL
REMARK 927      BINDING AFFINITY PREDICTED BY RF-SCORE:    0.00 PKD
ROOT
HETATM    1  C   UNL     1      -6.502  17.342  69.144  1.00  0.00    -0.235 C  
HETATM    2  N   UNL     1      -7.345  16.279  68.457  1.00  0.00    -0.160 N  
HETATM    3  C   UNL     1      -8.122  15.540  69.540  1.00  0.00    -0.202 C  
HETATM    4  C   UNL     1      -6.452  15.300  67.728  1.00  0.00    -0.158 C  
ENDROOT
BRANCH   2   5
HETATM    5  C   UNL     1      -8.402  16.907  67.501  1.00  0.00    -0.189 C  
BRANCH   5   6
HETATM    6  C   UNL     1      -9.024  18.281  67.874  1.00  0.00    -0.276 C  
HETATM    7  H   UNL     1     -10.692  18.942  68.728  1.00  0.00     0.000 HD 
HETATM    8  O   UNL     1     -10.311  18.102  68.500  1.00  0.00    -0.375 OA 
BRANCH   6   9
HETATM    9  C   UNL     1      -9.154  19.339  66.786  1.00  0.00    -0.362 C  
HETATM   10  C   UNL     1     -10.402  19.081  65.965  1.00  0.00    -0.446 C  
HETATM   11  O   UNL     1     -10.595  17.877  65.658  1.00  0.00    -0.587 OA 
HETATM   12  O   UNL     1     -11.145  20.088  65.822  1.00  0.00    -0.173 OA 
ENDBRANCH   6   9
ENDBRANCH   5   6
ENDBRANCH   2   5
TORSDOF 3
ENDMDL
MODEL      154
REMARK 921   NORMALIZED FREE ENERGY PREDICTED BY IDOCK:   -2.10 KCAL/MOL
REMARK 922        TOTAL FREE ENERGY PREDICTED BY IDOCK:   -2.83 KCAL/MOL
REMARK 923 INTER-LIGAND FREE ENERGY PREDICTED BY IDOCK:   -2.53 KCAL/MOL
REMARK 924 INTRA-LIGAND FREE ENERGY PREDICTED BY IDOCK:   -0.31 KCAL/MOL
REMARK 927      BINDING AFFINITY PREDICTED BY RF-SCORE:    0.00 PKD
ROOT
HETATM    1  C   UNL     1      -8.548   3.891  74.338  1.00  0.00    -0.095 C  
HETATM    2  N   UNL     1      -9.386   4.859  73.517  1.00  0.00    -0.126 N  
HETATM    3  C   UNL     1     -10.842   4.426  73.644  1.00  0.00    -0.288 C  
HETATM    4  C   UNL     1      -8.972   4.798  72.063  1.00  0.00    -0.127 C  
ENDROOT
BRANCH   2   5
HETATM    5  C   UNL     1      -9.303   6.311  74.073  1.00  0.00    -0.147 C  
BRANCH   5   6
HETATM    6  C   UNL     1      -9.351   7.499  73.072  1.00  0.00    -0.191 C  
HETATM    7  H   UNL     1      -8.561   9.316  72.927  1.00  0.00     0.000 HD 
HETATM    8  O   UNL     1      -8.532   8.589  73.539  1.00  0.00    -0.365 OA 
BRANCH   6   9
HETATM    9  C   UNL     1     -10.712   8.049  72.665  1.00  0.00    -0.426 C  
HETATM   10  C   UNL     1     -10.995   7.701  71.217  1.00  0.00    -0.238 C  
HETATM   11  O   UNL     1     -10.023   7.860  70.434  1.00  0.00    -0.190 OA 
HETATM   12  O   UNL     1     -12.119   7.168  71.023  1.00  0.00    -0.333 OA 
ENDBRANCH   6   9
ENDBRANCH   5   6
ENDBRANCH   2   5
TORSDOF 3
ENDMDL
MODEL      155
REMARK 921   NORMALIZED FREE ENERGY PREDICTED BY IDOCK:   -2.10 KCAL/MOL
REMARK 922        TOTAL FREE ENERGY PREDICTED BY IDOCK:   -2.83 KCAL/MOL
REMARK 923 INTER-LIGAND FREE ENERGY PREDICTED BY IDOCK:   -2.55 KCAL/MOL
REMARK 924 INTRA-LIGAND FREE ENERGY PREDICTED BY IDOCK:   -0.27 KCAL/MOL
REMARK 927      BINDING AFFINITY PREDICTED BY RF-SCORE:    0.00 PKD
ROOT
HETATM    1  C   UNL     1      -6.427  17.423  69.103  1.00  0.00    -0.239 C  
HETATM    2  N   UNL     1      -7.402  16.482  68.412  1.00  0.00    -0.171 N  
HETATM    3  C   UNL     1      -8.440  16.058  69.444  1.00  0.00    -0.146 C  
HETATM    4  C   UNL     1      -6.670  15.257  67.909  1.00  0.00    -0.151 C  
ENDROOT
BRANCH   2   5
HETATM    5  C   UNL     1      -8.178  17.193  67.265  1.00  0.00    -0.187 C  
BRANCH   5   6
HETATM    6  C   UNL     1      -8.431  18.723  67.370  1.00  0.00    -0.272 C  
HETATM    7  H   UNL     1      -9.883  19.920  68.006  1.00  0.00     0.000 HD 
HETATM    8  O   UNL     1      -9.728  18.984  67.941  1.00  0.00    -0.303 OA 
BRANCH   6   9
HETATM    9  C   UNL     1      -8.269  19.573  66.116  1.00  0.00    -0.336 C  
HETATM   10  C   UNL     1      -6.799  19.854  65.873  1.00  0.00    -0.270 C  
HETATM   11  O   UNL     1      -6.142  20.167  66.900  1.00  0.00    -0.174 OA 
HETATM   12  O   UNL     1      -6.410  19.602  64.703  1.00  0.00    -0.305 OA 
ENDBRANCH   6   9
ENDBRANCH   5   6
ENDBRANCH   2   5
TORSDOF 3
ENDMDL
MODEL      156
REMARK 921   NORMALIZED FREE ENERGY PREDICTED BY IDOCK:   -2.09 KCAL/MOL
REMARK 922        TOTAL FREE ENERGY PREDICTED BY IDOCK:   -2.82 KCAL/MOL
REMARK 923 INTER-LIGAND FREE ENERGY PREDICTED BY IDOCK:   -3.39 KCAL/MOL
REMARK 924 INTRA-LIGAND FREE ENERGY PREDICTED BY IDOCK:    0.57 KCAL/MOL
REMARK 927      BINDING AFFINITY PREDICTED BY RF-SCORE:    0.00 PKD
ROOT
HETATM    1  C   UNL     1     -11.431  11.229  67.554  1.00  0.00    -0.246 C  
HETATM    2  N   UNL     1     -10.046  11.841  67.414  1.00  0.00    -0.194 N  
HETATM    3  C   UNL     1      -9.441  11.315  66.118  1.00  0.00    -0.208 C  
HETATM    4  C   UNL     1      -9.174  11.421  68.577  1.00  0.00    -0.174 C  
ENDROOT
BRANCH   2   5
HETATM    5  C   UNL     1     -10.109  13.391  67.279  1.00  0.00    -0.238 C  
BRANCH   5   6
HETATM    6  C   UNL     1      -9.897  14.029  65.878  1.00  0.00    -0.281 C  
HETATM    7  H   UNL     1      -8.852  15.530  65.103  1.00  0.00     0.000 HD 
HETATM    8  O   UNL     1      -8.982  15.140  65.960  1.00  0.00    -0.259 OA 
BRANCH   6   9
HETATM    9  C   UNL     1     -11.123  14.463  65.085  1.00  0.00    -0.365 C  
HETATM   10  C   UNL     1     -11.213  15.976  65.066  1.00  0.00    -0.261 C  
HETATM   11  O   UNL     1     -10.981  16.535  66.169  1.00  0.00    -0.105 OA 
HETATM   12  O   UNL     1     -11.369  16.471  63.919  1.00  0.00    -1.057 OA 
ENDBRANCH   6   9
ENDBRANCH   5   6
ENDBRANCH   2   5
TORSDOF 3
ENDMDL
MODEL      157
REMARK 921   NORMALIZED FREE ENERGY PREDICTED BY IDOCK:   -2.06 KCAL/MOL
REMARK 922        TOTAL FREE ENERGY PREDICTED BY IDOCK:   -2.79 KCAL/MOL
REMARK 923 INTER-LIGAND FREE ENERGY PREDICTED BY IDOCK:   -2.42 KCAL/MOL
REMARK 924 INTRA-LIGAND FREE ENERGY PREDICTED BY IDOCK:   -0.37 KCAL/MOL
REMARK 927      BINDING AFFINITY PREDICTED BY RF-SCORE:    0.00 PKD
ROOT
HETATM    1  C   UNL     1     -10.284  14.056  65.857  1.00  0.00    -0.320 C  
HETATM    2  N   UNL     1      -9.765  12.814  66.565  1.00  0.00    -0.251 N  
HETATM    3  C   UNL     1      -8.322  13.088  66.974  1.00  0.00    -0.095 C  
HETATM    4  C   UNL     1      -9.800  11.629  65.625  1.00  0.00    -0.240 C  
ENDROOT
BRANCH   2   5
HETATM    5  C   UNL     1     -10.552  12.524  67.877  1.00  0.00    -0.218 C  
BRANCH   5   6
HETATM    6  C   UNL     1     -10.753  11.047  68.318  1.00  0.00    -0.196 C  
HETATM    7  H   UNL     1     -12.274   9.864  68.798  1.00  0.00     0.000 HD 
HETATM    8  O   UNL     1     -12.152  10.767  68.529  1.00  0.00    -0.493 OA 
BRANCH   6   9
HETATM    9  C   UNL     1      -9.966  10.534  69.517  1.00  0.00    -0.187 C  
HETATM   10  C   UNL     1      -8.578  10.111  69.077  1.00  0.00    -0.156 C  
HETATM   11  O   UNL     1      -8.540   9.452  68.006  1.00  0.00    -0.120 OA 
HETATM   12  O   UNL     1      -7.645  10.596  69.769  1.00  0.00    -0.139 OA 
ENDBRANCH   6   9
ENDBRANCH   5   6
ENDBRANCH   2   5
TORSDOF 3
ENDMDL
MODEL      158
REMARK 921   NORMALIZED FREE ENERGY PREDICTED BY IDOCK:   -2.06 KCAL/MOL
REMARK 922        TOTAL FREE ENERGY PREDICTED BY IDOCK:   -2.78 KCAL/MOL
REMARK 923 INTER-LIGAND FREE ENERGY PREDICTED BY IDOCK:   -2.48 KCAL/MOL
REMARK 924 INTRA-LIGAND FREE ENERGY PREDICTED BY IDOCK:   -0.31 KCAL/MOL
REMARK 927      BINDING AFFINITY PREDICTED BY RF-SCORE:    0.00 PKD
ROOT
HETATM    1  C   UNL     1     -13.070   6.880  71.214  1.00  0.00    -0.201 C  
HETATM    2  N   UNL     1     -12.097   7.941  71.706  1.00  0.00    -0.290 N  
HETATM    3  C   UNL     1     -11.396   7.383  72.939  1.00  0.00    -0.273 C  
HETATM    4  C   UNL     1     -12.850   9.197  72.086  1.00  0.00    -0.412 C  
ENDROOT
BRANCH   2   5
HETATM    5  C   UNL     1     -10.986   8.238  70.657  1.00  0.00    -0.240 C  
BRANCH   5   6
HETATM    6  C   UNL     1      -9.587   7.587  70.845  1.00  0.00    -0.165 C  
HETATM    7  H   UNL     1      -7.733   8.197  71.215  1.00  0.00     0.000 HD 
HETATM    8  O   UNL     1      -8.588   8.595  71.100  1.00  0.00    -0.147 OA 
BRANCH   6   9
HETATM    9  C   UNL     1      -9.071   6.650  69.760  1.00  0.00    -0.143 C  
HETATM   10  C   UNL     1      -9.945   5.414  69.690  1.00  0.00    -0.227 C  
HETATM   11  O   UNL     1     -10.261   4.925  70.806  1.00  0.00    -0.232 OA 
HETATM   12  O   UNL     1     -10.348   5.129  68.532  1.00  0.00    -0.148 OA 
ENDBRANCH   6   9
ENDBRANCH   5   6
ENDBRANCH   2   5
TORSDOF 3
ENDMDL
MODEL      159
REMARK 921   NORMALIZED FREE ENERGY PREDICTED BY IDOCK:   -2.06 KCAL/MOL
REMARK 922        TOTAL FREE ENERGY PREDICTED BY IDOCK:   -2.78 KCAL/MOL
REMARK 923 INTER-LIGAND FREE ENERGY PREDICTED BY IDOCK:   -2.51 KCAL/MOL
REMARK 924 INTRA-LIGAND FREE ENERGY PREDICTED BY IDOCK:   -0.28 KCAL/MOL
REMARK 927      BINDING AFFINITY PREDICTED BY RF-SCORE:    0.00 PKD
ROOT
HETATM    1  C   UNL     1      -8.958   9.625  69.948  1.00  0.00    -0.221 C  
HETATM    2  N   UNL     1     -10.444   9.316  69.845  1.00  0.00    -0.215 N  
HETATM    3  C   UNL     1     -11.070   9.615  71.202  1.00  0.00    -0.374 C  
HETATM    4  C   UNL     1     -10.648   7.854  69.513  1.00  0.00    -0.219 C  
ENDROOT
BRANCH   2   5
HETATM    5  C   UNL     1     -11.156  10.239  68.813  1.00  0.00    -0.228 C  
BRANCH   5   6
HETATM    6  C   UNL     1     -10.514  11.612  68.470  1.00  0.00    -0.217 C  
HETATM    7  H   UNL     1     -10.811  13.519  68.941  1.00  0.00     0.000 HD 
HETATM    8  O   UNL     1     -11.204  12.679  69.150  1.00  0.00    -0.259 OA 
BRANCH   6   9
HETATM    9  C   UNL     1     -10.353  11.991  67.003  1.00  0.00    -0.235 C  
HETATM   10  C   UNL     1      -8.964  11.617  66.525  1.00  0.00    -0.191 C  
HETATM   11  O   UNL     1      -8.034  11.899  67.324  1.00  0.00    -0.154 OA 
HETATM   12  O   UNL     1      -8.946  10.950  65.457  1.00  0.00    -0.191 OA 
ENDBRANCH   6   9
ENDBRANCH   5   6
ENDBRANCH   2   5
TORSDOF 3
ENDMDL
MODEL      160
REMARK 921   NORMALIZED FREE ENERGY PREDICTED BY IDOCK:   -2.04 KCAL/MOL
REMARK 922        TOTAL FREE ENERGY PREDICTED BY IDOCK:   -2.76 KCAL/MOL
REMARK 923 INTER-LIGAND FREE ENERGY PREDICTED BY IDOCK:   -2.49 KCAL/MOL
REMARK 924 INTRA-LIGAND FREE ENERGY PREDICTED BY IDOCK:   -0.27 KCAL/MOL
REMARK 927      BINDING AFFINITY PREDICTED BY RF-SCORE:    0.00 PKD
ROOT
HETATM    1  C   UNL     1     -10.202  10.390  69.028  1.00  0.00    -0.217 C  
HETATM    2  N   UNL     1      -9.805   9.067  69.664  1.00  0.00    -0.173 N  
HETATM    3  C   UNL     1     -10.992   8.581  70.488  1.00  0.00    -0.241 C  
HETATM    4  C   UNL     1      -8.615   9.266  70.576  1.00  0.00    -0.233 C  
ENDROOT
BRANCH   2   5
HETATM    5  C   UNL     1      -9.527   7.970  68.594  1.00  0.00    -0.147 C  
BRANCH   5   6
HETATM    6  C   UNL     1     -10.195   8.103  67.197  1.00  0.00    -0.296 C  
HETATM    7  H   UNL     1     -11.527   7.100  66.118  1.00  0.00     0.000 HD 
HETATM    8  O   UNL     1     -11.118   7.018  66.972  1.00  0.00    -0.373 OA 
BRANCH   6   9
HETATM    9  C   UNL     1      -9.297   8.243  65.974  1.00  0.00    -0.217 C  
HETATM   10  C   UNL     1      -9.364   9.663  65.448  1.00  0.00    -0.259 C  
HETATM   11  O   UNL     1     -10.519  10.159  65.406  1.00  0.00    -0.197 OA 
HETATM   12  O   UNL     1      -8.240  10.198  65.258  1.00  0.00    -0.144 OA 
ENDBRANCH   6   9
ENDBRANCH   5   6
ENDBRANCH   2   5
TORSDOF 3
ENDMDL
MODEL      161
REMARK 921   NORMALIZED FREE ENERGY PREDICTED BY IDOCK:   -2.03 KCAL/MOL
REMARK 922        TOTAL FREE ENERGY PREDICTED BY IDOCK:   -2.74 KCAL/MOL
REMARK 923 INTER-LIGAND FREE ENERGY PREDICTED BY IDOCK:   -2.48 KCAL/MOL
REMARK 924 INTRA-LIGAND FREE ENERGY PREDICTED BY IDOCK:   -0.27 KCAL/MOL
REMARK 927      BINDING AFFINITY PREDICTED BY RF-SCORE:    0.00 PKD
ROOT
HETATM    1  C   UNL     1     -10.650   7.734  67.181  1.00  0.00    -0.331 C  
HETATM    2  N   UNL     1      -9.177   7.775  67.559  1.00  0.00    -0.132 N  
HETATM    3  C   UNL     1      -8.371   7.680  66.269  1.00  0.00    -0.133 C  
HETATM    4  C   UNL     1      -8.837   6.599  68.448  1.00  0.00    -0.121 C  
ENDROOT
BRANCH   2   5
HETATM    5  C   UNL     1      -8.790   9.127  68.228  1.00  0.00    -0.129 C  
BRANCH   5   6
HETATM    6  C   UNL     1      -8.870  10.429  67.384  1.00  0.00    -0.132 C  
HETATM    7  H   UNL     1      -7.608  11.798  66.693  1.00  0.00     0.000 HD 
HETATM    8  O   UNL     1      -7.559  11.001  67.209  1.00  0.00    -0.102 OA 
BRANCH   6   9
HETATM    9  C   UNL     1      -9.826  11.527  67.834  1.00  0.00    -0.192 C  
HETATM   10  C   UNL     1     -11.070  11.510  66.968  1.00  0.00    -0.307 C  
HETATM   11  O   UNL     1     -10.858  11.365  65.736  1.00  0.00    -0.275 OA 
HETATM   12  O   UNL     1     -12.151  11.503  67.614  1.00  0.00    -0.623 OA 
ENDBRANCH   6   9
ENDBRANCH   5   6
ENDBRANCH   2   5
TORSDOF 3
ENDMDL
MODEL      162
REMARK 921   NORMALIZED FREE ENERGY PREDICTED BY IDOCK:   -2.03 KCAL/MOL
REMARK 922        TOTAL FREE ENERGY PREDICTED BY IDOCK:   -2.74 KCAL/MOL
REMARK 923 INTER-LIGAND FREE ENERGY PREDICTED BY IDOCK:   -2.40 KCAL/MOL
REMARK 924 INTRA-LIGAND FREE ENERGY PREDICTED BY IDOCK:   -0.34 KCAL/MOL
REMARK 927      BINDING AFFINITY PREDICTED BY RF-SCORE:    0.00 PKD
ROOT
HETATM    1  C   UNL     1      -7.883   9.519  70.449  1.00  0.00    -0.172 C  
HETATM    2  N   UNL     1      -8.907   8.591  71.085  1.00  0.00    -0.162 N  
HETATM    3  C   UNL     1     -10.271   9.259  70.958  1.00  0.00    -0.314 C  
HETATM    4  C   UNL     1      -8.585   8.391  72.550  1.00  0.00    -0.184 C  
ENDROOT
BRANCH   2   5
HETATM    5  C   UNL     1      -9.004   7.233  70.331  1.00  0.00    -0.151 C  
BRANCH   5   6
HETATM    6  C   UNL     1      -9.381   5.957  71.135  1.00  0.00    -0.153 C  
HETATM    7  H   UNL     1      -8.744   4.081  71.274  1.00  0.00     0.000 HD 
HETATM    8  O   UNL     1      -8.513   4.861  70.782  1.00  0.00    -0.105 OA 
BRANCH   6   9
HETATM    9  C   UNL     1     -10.824   5.472  71.091  1.00  0.00    -0.243 C  
HETATM   10  C   UNL     1     -11.616   6.112  72.214  1.00  0.00    -0.313 C  
HETATM   11  O   UNL     1     -11.026   6.145  73.325  1.00  0.00    -0.256 OA 
HETATM   12  O   UNL     1     -12.696   6.646  71.848  1.00  0.00    -0.345 OA 
ENDBRANCH   6   9
ENDBRANCH   5   6
ENDBRANCH   2   5
TORSDOF 3
ENDMDL
MODEL      163
REMARK 921   NORMALIZED FREE ENERGY PREDICTED BY IDOCK:   -2.02 KCAL/MOL
REMARK 922        TOTAL FREE ENERGY PREDICTED BY IDOCK:   -2.74 KCAL/MOL
REMARK 923 INTER-LIGAND FREE ENERGY PREDICTED BY IDOCK:   -2.65 KCAL/MOL
REMARK 924 INTRA-LIGAND FREE ENERGY PREDICTED BY IDOCK:   -0.09 KCAL/MOL
REMARK 927      BINDING AFFINITY PREDICTED BY RF-SCORE:    0.00 PKD
ROOT
HETATM    1  C   UNL     1     -11.602  12.519  68.099  1.00  0.00    -0.340 C  
HETATM    2  N   UNL     1     -11.320  13.095  66.720  1.00  0.00    -0.303 N  
HETATM    3  C   UNL     1     -12.551  13.888  66.294  1.00  0.00    -0.330 C  
HETATM    4  C   UNL     1     -11.081  11.976  65.730  1.00  0.00    -0.324 C  
ENDROOT
BRANCH   2   5
HETATM    5  C   UNL     1     -10.130  14.099  66.744  1.00  0.00    -0.262 C  
BRANCH   5   6
HETATM    6  C   UNL     1      -9.809  14.846  68.069  1.00  0.00    -0.216 C  
HETATM    7  H   UNL     1     -10.585  16.338  69.126  1.00  0.00     0.000 HD 
HETATM    8  O   UNL     1     -10.781  15.881  68.316  1.00  0.00    -0.267 OA 
BRANCH   6   9
HETATM    9  C   UNL     1      -8.415  15.431  68.252  1.00  0.00    -0.159 C  
HETATM   10  C   UNL     1      -7.386  14.318  68.245  1.00  0.00    -0.124 C  
HETATM   11  O   UNL     1      -7.702  13.299  68.911  1.00  0.00    -0.060 OA 
HETATM   12  O   UNL     1      -6.420  14.511  67.460  1.00  0.00    -0.264 OA 
ENDBRANCH   6   9
ENDBRANCH   5   6
ENDBRANCH   2   5
TORSDOF 3
ENDMDL
MODEL      164
REMARK 921   NORMALIZED FREE ENERGY PREDICTED BY IDOCK:   -2.02 KCAL/MOL
REMARK 922        TOTAL FREE ENERGY PREDICTED BY IDOCK:   -2.74 KCAL/MOL
REMARK 923 INTER-LIGAND FREE ENERGY PREDICTED BY IDOCK:   -2.59 KCAL/MOL
REMARK 924 INTRA-LIGAND FREE ENERGY PREDICTED BY IDOCK:   -0.15 KCAL/MOL
REMARK 927      BINDING AFFINITY PREDICTED BY RF-SCORE:    0.00 PKD
ROOT
HETATM    1  C   UNL     1     -10.390  16.989  65.676  1.00  0.00    -0.209 C  
HETATM    2  N   UNL     1     -10.147  15.827  66.627  1.00  0.00    -0.269 N  
HETATM    3  C   UNL     1     -10.743  16.209  67.977  1.00  0.00    -0.321 C  
HETATM    4  C   UNL     1      -8.662  15.590  66.787  1.00  0.00    -0.267 C  
ENDROOT
BRANCH   2   5
HETATM    5  C   UNL     1     -10.884  14.536  66.164  1.00  0.00    -0.317 C  
BRANCH   5   6
HETATM    6  C   UNL     1     -10.072  13.218  66.032  1.00  0.00    -0.299 C  
HETATM    7  H   UNL     1     -10.036  11.643  64.823  1.00  0.00     0.000 HD 
HETATM    8  O   UNL     1     -10.533  12.449  64.904  1.00  0.00    -0.281 OA 
BRANCH   6   9
HETATM    9  C   UNL     1      -9.977  12.300  67.244  1.00  0.00    -0.210 C  
HETATM   10  C   UNL     1      -8.529  11.931  67.497  1.00  0.00    -0.161 C  
HETATM   11  O   UNL     1      -7.869  11.637  66.467  1.00  0.00    -0.123 OA 
HETATM   12  O   UNL     1      -8.150  12.105  68.686  1.00  0.00    -0.127 OA 
ENDBRANCH   6   9
ENDBRANCH   5   6
ENDBRANCH   2   5
TORSDOF 3
ENDMDL
MODEL      165
REMARK 921   NORMALIZED FREE ENERGY PREDICTED BY IDOCK:   -2.01 KCAL/MOL
REMARK 922        TOTAL FREE ENERGY PREDICTED BY IDOCK:   -2.72 KCAL/MOL
REMARK 923 INTER-LIGAND FREE ENERGY PREDICTED BY IDOCK:   -3.47 KCAL/MOL
REMARK 924 INTRA-LIGAND FREE ENERGY PREDICTED BY IDOCK:    0.75 KCAL/MOL
REMARK 927      BINDING AFFINITY PREDICTED BY RF-SCORE:    0.00 PKD
ROOT
HETATM    1  C   UNL     1     -11.324  14.989  66.972  1.00  0.00    -0.318 C  
HETATM    2  N   UNL     1     -11.334  13.640  66.270  1.00  0.00    -0.306 N  
HETATM    3  C   UNL     1     -12.714  13.455  65.651  1.00  0.00    -0.370 C  
HETATM    4  C   UNL     1     -11.084  12.533  67.270  1.00  0.00    -0.274 C  
ENDROOT
BRANCH   2   5
HETATM    5  C   UNL     1     -10.310  13.591  65.098  1.00  0.00    -0.353 C  
BRANCH   5   6
HETATM    6  C   UNL     1     -10.292  12.342  64.172  1.00  0.00    -0.382 C  
HETATM    7  H   UNL     1     -11.219  11.738  62.522  1.00  0.00     0.000 HD 
HETATM    8  O   UNL     1     -11.229  12.502  63.088  1.00  0.00    -0.388 OA 
BRANCH   6   9
HETATM    9  C   UNL     1     -10.501  10.970  64.801  1.00  0.00    -0.384 C  
HETATM   10  C   UNL     1      -9.405  10.026  64.348  1.00  0.00    -0.290 C  
HETATM   11  O   UNL     1      -9.123  10.089  63.124  1.00  0.00    -0.237 OA 
HETATM   12  O   UNL     1      -8.834   9.409  65.286  1.00  0.00    -0.166 OA 
ENDBRANCH   6   9
ENDBRANCH   5   6
ENDBRANCH   2   5
TORSDOF 3
ENDMDL
MODEL      166
REMARK 921   NORMALIZED FREE ENERGY PREDICTED BY IDOCK:   -2.01 KCAL/MOL
REMARK 922        TOTAL FREE ENERGY PREDICTED BY IDOCK:   -2.72 KCAL/MOL
REMARK 923 INTER-LIGAND FREE ENERGY PREDICTED BY IDOCK:   -2.40 KCAL/MOL
REMARK 924 INTRA-LIGAND FREE ENERGY PREDICTED BY IDOCK:   -0.32 KCAL/MOL
REMARK 927      BINDING AFFINITY PREDICTED BY RF-SCORE:    0.00 PKD
ROOT
HETATM    1  C   UNL     1      -9.677   9.384  70.718  1.00  0.00    -0.264 C  
HETATM    2  N   UNL     1      -9.134   8.898  69.384  1.00  0.00    -0.144 N  
HETATM    3  C   UNL     1      -7.992   7.932  69.679  1.00  0.00    -0.118 C  
HETATM    4  C   UNL     1      -8.604  10.067  68.583  1.00  0.00    -0.123 C  
ENDROOT
BRANCH   2   5
HETATM    5  C   UNL     1     -10.201   8.095  68.583  1.00  0.00    -0.207 C  
BRANCH   5   6
HETATM    6  C   UNL     1     -10.530   6.642  69.025  1.00  0.00    -0.214 C  
HETATM    7  H   UNL     1     -10.761   4.870  68.156  1.00  0.00     0.000 HD 
HETATM    8  O   UNL     1     -10.560   5.759  67.886  1.00  0.00    -0.230 OA 
BRANCH   6   9
HETATM    9  C   UNL     1     -11.782   6.404  69.860  1.00  0.00    -0.309 C  
HETATM   10  C   UNL     1     -11.414   6.334  71.329  1.00  0.00    -0.291 C  
HETATM   11  O   UNL     1     -10.384   5.660  71.586  1.00  0.00    -0.201 OA 
HETATM   12  O   UNL     1     -12.110   7.074  72.073  1.00  0.00    -0.302 OA 
ENDBRANCH   6   9
ENDBRANCH   5   6
ENDBRANCH   2   5
TORSDOF 3
ENDMDL
MODEL      167
REMARK 921   NORMALIZED FREE ENERGY PREDICTED BY IDOCK:   -2.01 KCAL/MOL
REMARK 922        TOTAL FREE ENERGY PREDICTED BY IDOCK:   -2.72 KCAL/MOL
REMARK 923 INTER-LIGAND FREE ENERGY PREDICTED BY IDOCK:   -2.47 KCAL/MOL
REMARK 924 INTRA-LIGAND FREE ENERGY PREDICTED BY IDOCK:   -0.25 KCAL/MOL
REMARK 927      BINDING AFFINITY PREDICTED BY RF-SCORE:    0.00 PKD
ROOT
HETATM    1  C   UNL     1      -7.421   9.882  67.339  1.00  0.00    -0.091 C  
HETATM    2  N   UNL     1      -8.036  10.660  68.492  1.00  0.00    -0.118 N  
HETATM    3  C   UNL     1      -6.917  11.449  69.161  1.00  0.00    -0.118 C  
HETATM    4  C   UNL     1      -8.641   9.704  69.497  1.00  0.00    -0.172 C  
ENDROOT
BRANCH   2   5
HETATM    5  C   UNL     1      -9.082  11.701  67.996  1.00  0.00    -0.177 C  
BRANCH   5   6
HETATM    6  C   UNL     1     -10.531  11.224  67.702  1.00  0.00    -0.193 C  
HETATM    7  H   UNL     1     -11.582  10.645  66.119  1.00  0.00     0.000 HD 
HETATM    8  O   UNL     1     -10.696  10.937  66.299  1.00  0.00    -0.243 OA 
BRANCH   6   9
HETATM    9  C   UNL     1     -11.690  12.100  68.160  1.00  0.00    -0.402 C  
HETATM   10  C   UNL     1     -11.902  11.932  69.652  1.00  0.00    -0.337 C  
HETATM   11  O   UNL     1     -11.847  10.744  70.064  1.00  0.00    -0.284 OA 
HETATM   12  O   UNL     1     -11.966  13.015  70.292  1.00  0.00    -0.337 OA 
ENDBRANCH   6   9
ENDBRANCH   5   6
ENDBRANCH   2   5
TORSDOF 3
ENDMDL
MODEL      168
REMARK 921   NORMALIZED FREE ENERGY PREDICTED BY IDOCK:   -2.00 KCAL/MOL
REMARK 922        TOTAL FREE ENERGY PREDICTED BY IDOCK:   -2.72 KCAL/MOL
REMARK 923 INTER-LIGAND FREE ENERGY PREDICTED BY IDOCK:   -2.53 KCAL/MOL
REMARK 924 INTRA-LIGAND FREE ENERGY PREDICTED BY IDOCK:   -0.19 KCAL/MOL
REMARK 927      BINDING AFFINITY PREDICTED BY RF-SCORE:    0.00 PKD
ROOT
HETATM    1  C   UNL     1      -6.845  19.203  67.064  1.00  0.00    -0.198 C  
HETATM    2  N   UNL     1      -7.778  18.972  68.243  1.00  0.00    -0.299 N  
HETATM    3  C   UNL     1      -8.998  19.864  68.043  1.00  0.00    -0.278 C  
HETATM    4  C   UNL     1      -7.087  19.354  69.533  1.00  0.00    -0.209 C  
ENDROOT
BRANCH   2   5
HETATM    5  C   UNL     1      -8.301  17.506  68.288  1.00  0.00    -0.265 C  
BRANCH   5   6
HETATM    6  C   UNL     1      -8.329  16.681  66.971  1.00  0.00    -0.187 C  
HETATM    7  H   UNL     1      -9.505  16.519  65.379  1.00  0.00     0.000 HD 
HETATM    8  O   UNL     1      -9.488  17.023  66.184  1.00  0.00    -0.361 OA 
BRANCH   6   9
HETATM    9  C   UNL     1      -8.231  15.164  67.063  1.00  0.00    -0.262 C  
HETATM   10  C   UNL     1      -6.844  14.766  67.527  1.00  0.00    -0.155 C  
HETATM   11  O   UNL     1      -5.902  15.397  66.982  1.00  0.00    -0.232 OA 
HETATM   12  O   UNL     1      -6.832  13.958  68.493  1.00  0.00    -0.083 OA 
ENDBRANCH   6   9
ENDBRANCH   5   6
ENDBRANCH   2   5
TORSDOF 3
ENDMDL
MODEL      169
REMARK 921   NORMALIZED FREE ENERGY PREDICTED BY IDOCK:   -2.00 KCAL/MOL
REMARK 922        TOTAL FREE ENERGY PREDICTED BY IDOCK:   -2.71 KCAL/MOL
REMARK 923 INTER-LIGAND FREE ENERGY PREDICTED BY IDOCK:   -2.49 KCAL/MOL
REMARK 924 INTRA-LIGAND FREE ENERGY PREDICTED BY IDOCK:   -0.23 KCAL/MOL
REMARK 927      BINDING AFFINITY PREDICTED BY RF-SCORE:    0.00 PKD
ROOT
HETATM    1  C   UNL     1     -10.964   6.509  67.073  1.00  0.00    -0.396 C  
HETATM    2  N   UNL     1     -10.083   6.784  68.282  1.00  0.00    -0.154 N  
HETATM    3  C   UNL     1      -8.669   7.035  67.771  1.00  0.00    -0.121 C  
HETATM    4  C   UNL     1     -10.075   5.582  69.202  1.00  0.00    -0.216 C  
ENDROOT
BRANCH   2   5
HETATM    5  C   UNL     1     -10.521   8.075  69.035  1.00  0.00    -0.199 C  
BRANCH   5   6
HETATM    6  C   UNL     1      -9.987   9.447  68.538  1.00  0.00    -0.173 C  
HETATM    7  H   UNL     1      -9.421  11.170  69.348  1.00  0.00     0.000 HD 
HETATM    8  O   UNL     1      -9.748  10.331  69.652  1.00  0.00    -0.228 OA 
BRANCH   6   9
HETATM    9  C   UNL     1     -10.789  10.198  67.482  1.00  0.00    -0.349 C  
HETATM   10  C   UNL     1      -9.887  10.568  66.321  1.00  0.00    -0.217 C  
HETATM   11  O   UNL     1      -8.758  11.015  66.648  1.00  0.00    -0.150 OA 
HETATM   12  O   UNL     1     -10.341  10.248  65.191  1.00  0.00    -0.286 OA 
ENDBRANCH   6   9
ENDBRANCH   5   6
ENDBRANCH   2   5
TORSDOF 3
ENDMDL
MODEL      170
REMARK 921   NORMALIZED FREE ENERGY PREDICTED BY IDOCK:   -1.99 KCAL/MOL
REMARK 922        TOTAL FREE ENERGY PREDICTED BY IDOCK:   -2.70 KCAL/MOL
REMARK 923 INTER-LIGAND FREE ENERGY PREDICTED BY IDOCK:   -3.08 KCAL/MOL
REMARK 924 INTRA-LIGAND FREE ENERGY PREDICTED BY IDOCK:    0.38 KCAL/MOL
REMARK 927      BINDING AFFINITY PREDICTED BY RF-SCORE:    0.00 PKD
ROOT
HETATM    1  C   UNL     1     -13.157  15.226  70.912  1.00  0.00    -0.464 C  
HETATM    2  N   UNL     1     -11.950  15.057  70.002  1.00  0.00    -0.311 N  
HETATM    3  C   UNL     1     -10.704  15.127  70.877  1.00  0.00    -0.015 C  
HETATM    4  C   UNL     1     -11.908  16.176  68.984  1.00  0.00    -0.177 C  
ENDROOT
BRANCH   2   5
HETATM    5  C   UNL     1     -11.934  13.660  69.315  1.00  0.00    -0.336 C  
BRANCH   5   6
HETATM    6  C   UNL     1     -10.883  13.385  68.203  1.00  0.00    -0.255 C  
HETATM    7  H   UNL     1     -10.836  13.353  66.218  1.00  0.00     0.000 HD 
HETATM    8  O   UNL     1     -11.479  13.521  66.898  1.00  0.00    -0.316 OA 
BRANCH   6   9
HETATM    9  C   UNL     1     -10.101  12.079  68.251  1.00  0.00    -0.201 C  
HETATM   10  C   UNL     1     -10.894  10.981  67.569  1.00  0.00    -0.263 C  
HETATM   11  O   UNL     1     -12.120  10.959  67.851  1.00  0.00    -0.527 OA 
HETATM   12  O   UNL     1     -10.244  10.331  66.708  1.00  0.00    -0.211 OA 
ENDBRANCH   6   9
ENDBRANCH   5   6
ENDBRANCH   2   5
TORSDOF 3
ENDMDL
MODEL      171
REMARK 921   NORMALIZED FREE ENERGY PREDICTED BY IDOCK:   -1.98 KCAL/MOL
REMARK 922        TOTAL FREE ENERGY PREDICTED BY IDOCK:   -2.69 KCAL/MOL
REMARK 923 INTER-LIGAND FREE ENERGY PREDICTED BY IDOCK:   -2.41 KCAL/MOL
REMARK 924 INTRA-LIGAND FREE ENERGY PREDICTED BY IDOCK:   -0.28 KCAL/MOL
REMARK 927      BINDING AFFINITY PREDICTED BY RF-SCORE:    0.00 PKD
ROOT
HETATM    1  C   UNL     1     -11.961  12.468  67.366  1.00  0.00    -0.213 C  
HETATM    2  N   UNL     1     -10.470  12.261  67.145  1.00  0.00    -0.218 N  
HETATM    3  C   UNL     1     -10.179  12.556  65.679  1.00  0.00    -0.267 C  
HETATM    4  C   UNL     1     -10.096  10.827  67.449  1.00  0.00    -0.193 C  
ENDROOT
BRANCH   2   5
HETATM    5  C   UNL     1      -9.618  13.262  67.979  1.00  0.00    -0.220 C  
BRANCH   5   6
HETATM    6  C   UNL     1      -8.378  13.922  67.315  1.00  0.00    -0.185 C  
HETATM    7  H   UNL     1      -6.440  13.527  67.130  1.00  0.00     0.000 HD 
HETATM    8  O   UNL     1      -7.198  13.124  67.537  1.00  0.00    -0.146 OA 
BRANCH   6   9
HETATM    9  C   UNL     1      -8.058  15.372  67.656  1.00  0.00    -0.166 C  
HETATM   10  C   UNL     1      -9.053  16.292  66.976  1.00  0.00    -0.207 C  
HETATM   11  O   UNL     1      -9.313  15.999  65.780  1.00  0.00    -0.348 OA 
HETATM   12  O   UNL     1      -9.585  17.136  67.743  1.00  0.00    -0.249 OA 
ENDBRANCH   6   9
ENDBRANCH   5   6
ENDBRANCH   2   5
TORSDOF 3
ENDMDL
MODEL      172
REMARK 921   NORMALIZED FREE ENERGY PREDICTED BY IDOCK:   -1.97 KCAL/MOL
REMARK 922        TOTAL FREE ENERGY PREDICTED BY IDOCK:   -2.68 KCAL/MOL
REMARK 923 INTER-LIGAND FREE ENERGY PREDICTED BY IDOCK:   -2.33 KCAL/MOL
REMARK 924 INTRA-LIGAND FREE ENERGY PREDICTED BY IDOCK:   -0.35 KCAL/MOL
REMARK 927      BINDING AFFINITY PREDICTED BY RF-SCORE:    0.00 PKD
ROOT
HETATM    1  C   UNL     1     -11.032  10.555  67.552  1.00  0.00    -0.303 C  
HETATM    2  N   UNL     1     -10.587  11.382  66.356  1.00  0.00    -0.255 N  
HETATM    3  C   UNL     1      -9.334  12.145  66.768  1.00  0.00    -0.212 C  
HETATM    4  C   UNL     1     -11.669  12.368  65.976  1.00  0.00    -0.410 C  
ENDROOT
BRANCH   2   5
HETATM    5  C   UNL     1     -10.185  10.483  65.149  1.00  0.00    -0.288 C  
BRANCH   5   6
HETATM    6  C   UNL     1      -8.753   9.882  65.109  1.00  0.00    -0.165 C  
HETATM    7  H   UNL     1      -7.143  10.027  63.954  1.00  0.00     0.000 HD 
HETATM    8  O   UNL     1      -8.019  10.395  63.978  1.00  0.00    -0.147 OA 
BRANCH   6   9
HETATM    9  C   UNL     1      -8.601   8.367  65.143  1.00  0.00    -0.159 C  
HETATM   10  C   UNL     1      -8.657   7.878  66.577  1.00  0.00    -0.142 C  
HETATM   11  O   UNL     1      -7.998   8.567  67.398  1.00  0.00    -0.101 OA 
HETATM   12  O   UNL     1      -9.466   6.933  66.771  1.00  0.00    -0.153 OA 
ENDBRANCH   6   9
ENDBRANCH   5   6
ENDBRANCH   2   5
TORSDOF 3
ENDMDL
MODEL      173
REMARK 921   NORMALIZED FREE ENERGY PREDICTED BY IDOCK:   -1.97 KCAL/MOL
REMARK 922        TOTAL FREE ENERGY PREDICTED BY IDOCK:   -2.68 KCAL/MOL
REMARK 923 INTER-LIGAND FREE ENERGY PREDICTED BY IDOCK:   -3.32 KCAL/MOL
REMARK 924 INTRA-LIGAND FREE ENERGY PREDICTED BY IDOCK:    0.64 KCAL/MOL
REMARK 927      BINDING AFFINITY PREDICTED BY RF-SCORE:    0.00 PKD
ROOT
HETATM    1  C   UNL     1     -10.518  15.364  67.280  1.00  0.00    -0.282 C  
HETATM    2  N   UNL     1     -11.192  14.062  67.684  1.00  0.00    -0.286 N  
HETATM    3  C   UNL     1     -11.984  13.564  66.481  1.00  0.00    -0.413 C  
HETATM    4  C   UNL     1     -12.138  14.305  68.839  1.00  0.00    -0.279 C  
ENDROOT
BRANCH   2   5
HETATM    5  C   UNL     1     -10.152  12.953  68.023  1.00  0.00    -0.235 C  
BRANCH   5   6
HETATM    6  C   UNL     1     -10.644  11.486  68.167  1.00  0.00    -0.196 C  
HETATM    7  H   UNL     1     -10.937   9.923  66.976  1.00  0.00     0.000 HD 
HETATM    8  O   UNL     1     -10.637  10.821  66.888  1.00  0.00    -0.241 OA 
BRANCH   6   9
HETATM    9  C   UNL     1     -11.987  11.234  68.841  1.00  0.00    -0.378 C  
HETATM   10  C   UNL     1     -11.775  10.928  70.310  1.00  0.00    -0.347 C  
HETATM   11  O   UNL     1     -10.823  10.143  70.555  1.00  0.00    -0.298 OA 
HETATM   12  O   UNL     1     -12.491  11.609  71.090  1.00  0.00    -0.364 OA 
ENDBRANCH   6   9
ENDBRANCH   5   6
ENDBRANCH   2   5
TORSDOF 3
ENDMDL
MODEL      174
REMARK 921   NORMALIZED FREE ENERGY PREDICTED BY IDOCK:   -1.97 KCAL/MOL
REMARK 922        TOTAL FREE ENERGY PREDICTED BY IDOCK:   -2.67 KCAL/MOL
REMARK 923 INTER-LIGAND FREE ENERGY PREDICTED BY IDOCK:   -2.45 KCAL/MOL
REMARK 924 INTRA-LIGAND FREE ENERGY PREDICTED BY IDOCK:   -0.23 KCAL/MOL
REMARK 927      BINDING AFFINITY PREDICTED BY RF-SCORE:    0.00 PKD
ROOT
HETATM    1  C   UNL     1      -8.547   6.555  66.279  1.00  0.00    -0.141 C  
HETATM    2  N   UNL     1      -9.739   6.113  67.115  1.00  0.00    -0.129 N  
HETATM    3  C   UNL     1     -10.333   4.877  66.449  1.00  0.00    -0.288 C  
HETATM    4  C   UNL     1     -10.781   7.210  67.150  1.00  0.00    -0.352 C  
ENDROOT
BRANCH   2   5
HETATM    5  C   UNL     1      -9.314   5.685  68.550  1.00  0.00    -0.123 C  
BRANCH   5   6
HETATM    6  C   UNL     1      -9.533   6.681  69.723  1.00  0.00    -0.147 C  
HETATM    7  H   UNL     1      -8.410   7.635  71.054  1.00  0.00     0.000 HD 
HETATM    8  O   UNL     1      -8.276   7.026  70.337  1.00  0.00    -0.120 OA 
BRANCH   6   9
HETATM    9  C   UNL     1     -10.525   6.305  70.817  1.00  0.00    -0.273 C  
HETATM   10  C   UNL     1     -11.607   7.362  70.915  1.00  0.00    -0.291 C  
HETATM   11  O   UNL     1     -11.194   8.550  70.859  1.00  0.00    -0.255 OA 
HETATM   12  O   UNL     1     -12.780   6.906  70.898  1.00  0.00    -0.328 OA 
ENDBRANCH   6   9
ENDBRANCH   5   6
ENDBRANCH   2   5
TORSDOF 3
ENDMDL
MODEL      175
REMARK 921   NORMALIZED FREE ENERGY PREDICTED BY IDOCK:   -1.97 KCAL/MOL
REMARK 922        TOTAL FREE ENERGY PREDICTED BY IDOCK:   -2.67 KCAL/MOL
REMARK 923 INTER-LIGAND FREE ENERGY PREDICTED BY IDOCK:   -3.24 KCAL/MOL
REMARK 924 INTRA-LIGAND FREE ENERGY PREDICTED BY IDOCK:    0.56 KCAL/MOL
REMARK 927      BINDING AFFINITY PREDICTED BY RF-SCORE:    0.00 PKD
ROOT
HETATM    1  C   UNL     1     -11.226  10.642  67.384  1.00  0.00    -0.205 C  
HETATM    2  N   UNL     1     -10.873  11.886  66.584  1.00  0.00    -0.263 N  
HETATM    3  C   UNL     1     -10.991  11.529  65.106  1.00  0.00    -0.234 C  
HETATM    4  C   UNL     1      -9.451  12.308  66.883  1.00  0.00    -0.217 C  
ENDROOT
BRANCH   2   5
HETATM    5  C   UNL     1     -11.879  13.046  66.844  1.00  0.00    -0.380 C  
BRANCH   5   6
HETATM    6  C   UNL     1     -11.882  13.734  68.237  1.00  0.00    -0.378 C  
HETATM    7  H   UNL     1     -11.174  15.407  69.039  1.00  0.00     0.000 HD 
HETATM    8  O   UNL     1     -11.171  14.986  68.187  1.00  0.00    -0.281 OA 
BRANCH   6   9
HETATM    9  C   UNL     1     -11.387  12.939  69.439  1.00  0.00    -0.265 C  
HETATM   10  C   UNL     1     -12.375  13.068  70.582  1.00  0.00    -0.310 C  
HETATM   11  O   UNL     1     -12.819  14.230  70.771  1.00  0.00    -0.339 OA 
HETATM   12  O   UNL     1     -12.721  11.970  71.094  1.00  0.00    -0.364 OA 
ENDBRANCH   6   9
ENDBRANCH   5   6
ENDBRANCH   2   5
TORSDOF 3
ENDMDL
MODEL      176
REMARK 921   NORMALIZED FREE ENERGY PREDICTED BY IDOCK:   -1.96 KCAL/MOL
REMARK 922        TOTAL FREE ENERGY PREDICTED BY IDOCK:   -2.67 KCAL/MOL
REMARK 923 INTER-LIGAND FREE ENERGY PREDICTED BY IDOCK:   -2.30 KCAL/MOL
REMARK 924 INTRA-LIGAND FREE ENERGY PREDICTED BY IDOCK:   -0.37 KCAL/MOL
REMARK 927      BINDING AFFINITY PREDICTED BY RF-SCORE:    0.00 PKD
ROOT
HETATM    1  C   UNL     1      -7.953   8.216  74.415  1.00  0.00    -0.253 C  
HETATM    2  N   UNL     1      -8.554   6.970  73.782  1.00  0.00    -0.136 N  
HETATM    3  C   UNL     1      -8.041   5.766  74.562  1.00  0.00    -0.106 C  
HETATM    4  C   UNL     1      -8.109   6.857  72.340  1.00  0.00    -0.103 C  
ENDROOT
BRANCH   2   5
HETATM    5  C   UNL     1     -10.106   6.952  73.902  1.00  0.00    -0.357 C  
BRANCH   5   6
HETATM    6  C   UNL     1     -10.931   6.198  72.822  1.00  0.00    -0.260 C  
HETATM    7  H   UNL     1     -12.485   6.581  71.645  1.00  0.00     0.000 HD 
HETATM    8  O   UNL     1     -11.981   7.041  72.306  1.00  0.00    -0.276 OA 
BRANCH   6   9
HETATM    9  C   UNL     1     -11.524   4.841  73.177  1.00  0.00    -0.348 C  
HETATM   10  C   UNL     1     -10.525   3.745  72.860  1.00  0.00    -0.165 C  
HETATM   11  O   UNL     1      -9.931   3.872  71.759  1.00  0.00    -0.181 OA 
HETATM   12  O   UNL     1     -10.327   2.936  73.805  1.00  0.00    -0.114 OA 
ENDBRANCH   6   9
ENDBRANCH   5   6
ENDBRANCH   2   5
TORSDOF 3
ENDMDL
MODEL      177
REMARK 921   NORMALIZED FREE ENERGY PREDICTED BY IDOCK:   -1.96 KCAL/MOL
REMARK 922        TOTAL FREE ENERGY PREDICTED BY IDOCK:   -2.66 KCAL/MOL
REMARK 923 INTER-LIGAND FREE ENERGY PREDICTED BY IDOCK:   -2.37 KCAL/MOL
REMARK 924 INTRA-LIGAND FREE ENERGY PREDICTED BY IDOCK:   -0.29 KCAL/MOL
REMARK 927      BINDING AFFINITY PREDICTED BY RF-SCORE:    0.00 PKD
ROOT
HETATM    1  C   UNL     1      -9.879   6.748  72.424  1.00  0.00    -0.158 C  
HETATM    2  N   UNL     1     -10.225   6.493  70.965  1.00  0.00    -0.188 N  
HETATM    3  C   UNL     1     -11.609   7.080  70.713  1.00  0.00    -0.338 C  
HETATM    4  C   UNL     1     -10.257   5.005  70.693  1.00  0.00    -0.235 C  
ENDROOT
BRANCH   2   5
HETATM    5  C   UNL     1      -9.247   7.228  70.002  1.00  0.00    -0.148 C  
BRANCH   5   6
HETATM    6  C   UNL     1      -8.798   6.508  68.700  1.00  0.00    -0.121 C  
HETATM    7  H   UNL     1      -7.184   5.552  68.046  1.00  0.00     0.000 HD 
HETATM    8  O   UNL     1      -7.459   5.993  68.842  1.00  0.00    -0.082 OA 
BRANCH   6   9
HETATM    9  C   UNL     1      -8.892   7.266  67.382  1.00  0.00    -0.119 C  
HETATM   10  C   UNL     1     -10.348   7.493  67.024  1.00  0.00    -0.324 C  
HETATM   11  O   UNL     1     -11.099   6.499  67.201  1.00  0.00    -0.390 OA 
HETATM   12  O   UNL     1     -10.629   8.685  66.731  1.00  0.00    -0.269 OA 
ENDBRANCH   6   9
ENDBRANCH   5   6
ENDBRANCH   2   5
TORSDOF 3
ENDMDL
MODEL      178
REMARK 921   NORMALIZED FREE ENERGY PREDICTED BY IDOCK:   -1.95 KCAL/MOL
REMARK 922        TOTAL FREE ENERGY PREDICTED BY IDOCK:   -2.66 KCAL/MOL
REMARK 923 INTER-LIGAND FREE ENERGY PREDICTED BY IDOCK:   -2.38 KCAL/MOL
REMARK 924 INTRA-LIGAND FREE ENERGY PREDICTED BY IDOCK:   -0.28 KCAL/MOL
REMARK 927      BINDING AFFINITY PREDICTED BY RF-SCORE:    0.00 PKD
ROOT
HETATM    1  C   UNL     1      -8.720   4.922  69.996  1.00  0.00    -0.094 C  
HETATM    2  N   UNL     1      -8.389   5.935  71.082  1.00  0.00    -0.122 N  
HETATM    3  C   UNL     1      -8.310   7.306  70.421  1.00  0.00    -0.130 C  
HETATM    4  C   UNL     1      -7.051   5.605  71.707  1.00  0.00    -0.078 C  
ENDROOT
BRANCH   2   5
HETATM    5  C   UNL     1      -9.514   6.022  72.155  1.00  0.00    -0.148 C  
BRANCH   5   6
HETATM    6  C   UNL     1     -10.031   7.423  72.583  1.00  0.00    -0.194 C  
HETATM    7  H   UNL     1      -9.678   8.724  74.042  1.00  0.00     0.000 HD 
HETATM    8  O   UNL     1      -9.362   7.867  73.781  1.00  0.00    -0.280 OA 
BRANCH   6   9
HETATM    9  C   UNL     1     -11.532   7.619  72.761  1.00  0.00    -0.384 C  
HETATM   10  C   UNL     1     -12.197   7.751  71.406  1.00  0.00    -0.319 C  
HETATM   11  O   UNL     1     -11.588   8.486  70.586  1.00  0.00    -0.270 OA 
HETATM   12  O   UNL     1     -13.192   6.997  71.242  1.00  0.00    -0.358 OA 
ENDBRANCH   6   9
ENDBRANCH   5   6
ENDBRANCH   2   5
TORSDOF 3
ENDMDL
MODEL      179
REMARK 921   NORMALIZED FREE ENERGY PREDICTED BY IDOCK:   -1.95 KCAL/MOL
REMARK 922        TOTAL FREE ENERGY PREDICTED BY IDOCK:   -2.66 KCAL/MOL
REMARK 923 INTER-LIGAND FREE ENERGY PREDICTED BY IDOCK:   -2.39 KCAL/MOL
REMARK 924 INTRA-LIGAND FREE ENERGY PREDICTED BY IDOCK:   -0.27 KCAL/MOL
REMARK 927      BINDING AFFINITY PREDICTED BY RF-SCORE:    0.00 PKD
ROOT
HETATM    1  C   UNL     1     -10.137  15.270  69.624  1.00  0.00    -0.237 C  
HETATM    2  N   UNL     1     -10.617  14.945  68.218  1.00  0.00    -0.236 N  
HETATM    3  C   UNL     1     -11.637  16.007  67.825  1.00  0.00     0.017 C  
HETATM    4  C   UNL     1     -11.280  13.585  68.198  1.00  0.00    -0.272 C  
ENDROOT
BRANCH   2   5
HETATM    5  C   UNL     1      -9.461  15.031  67.178  1.00  0.00    -0.216 C  
BRANCH   5   6
HETATM    6  C   UNL     1      -8.879  16.427  66.821  1.00  0.00    -0.225 C  
HETATM    7  H   UNL     1      -8.675  17.548  65.194  1.00  0.00     0.000 HD 
HETATM    8  O   UNL     1      -9.030  16.694  65.412  1.00  0.00    -0.207 OA 
BRANCH   6   9
HETATM    9  C   UNL     1      -7.445  16.741  67.226  1.00  0.00    -0.201 C  
HETATM   10  C   UNL     1      -7.440  17.735  68.370  1.00  0.00    -0.263 C  
HETATM   11  O   UNL     1      -8.252  18.688  68.248  1.00  0.00    -0.302 OA 
HETATM   12  O   UNL     1      -6.725  17.394  69.350  1.00  0.00    -0.247 OA 
ENDBRANCH   6   9
ENDBRANCH   5   6
ENDBRANCH   2   5
TORSDOF 3
ENDMDL
MODEL      180
REMARK 921   NORMALIZED FREE ENERGY PREDICTED BY IDOCK:   -1.93 KCAL/MOL
REMARK 922        TOTAL FREE ENERGY PREDICTED BY IDOCK:   -2.63 KCAL/MOL
REMARK 923 INTER-LIGAND FREE ENERGY PREDICTED BY IDOCK:   -2.95 KCAL/MOL
REMARK 924 INTRA-LIGAND FREE ENERGY PREDICTED BY IDOCK:    0.32 KCAL/MOL
REMARK 927      BINDING AFFINITY PREDICTED BY RF-SCORE:    0.00 PKD
ROOT
HETATM    1  C   UNL     1      -9.125   3.986  72.542  1.00  0.00    -0.110 C  
HETATM    2  N   UNL     1     -10.052   5.087  73.035  1.00  0.00    -0.164 N  
HETATM    3  C   UNL     1      -9.405   5.714  74.264  1.00  0.00    -0.136 C  
HETATM    4  C   UNL     1     -11.392   4.501  73.421  1.00  0.00    -0.286 C  
ENDROOT
BRANCH   2   5
HETATM    5  C   UNL     1     -10.209   6.225  71.984  1.00  0.00    -0.189 C  
BRANCH   5   6
HETATM    6  C   UNL     1     -11.617   6.842  71.754  1.00  0.00    -0.297 C  
HETATM    7  H   UNL     1     -12.767   7.311  70.205  1.00  0.00     0.000 HD 
HETATM    8  O   UNL     1     -11.906   6.934  70.345  1.00  0.00    -0.342 OA 
BRANCH   6   9
HETATM    9  C   UNL     1     -11.938   8.180  72.408  1.00  0.00    -0.431 C  
HETATM   10  C   UNL     1     -11.362   9.309  71.576  1.00  0.00    -0.385 C  
HETATM   11  O   UNL     1     -10.194   9.112  71.152  1.00  0.00    -0.262 OA 
HETATM   12  O   UNL     1     -12.182  10.226  71.309  1.00  0.00    -0.346 OA 
ENDBRANCH   6   9
ENDBRANCH   5   6
ENDBRANCH   2   5
TORSDOF 3
ENDMDL
MODEL      181
REMARK 921   NORMALIZED FREE ENERGY PREDICTED BY IDOCK:   -1.92 KCAL/MOL
REMARK 922        TOTAL FREE ENERGY PREDICTED BY IDOCK:   -2.62 KCAL/MOL
REMARK 923 INTER-LIGAND FREE ENERGY PREDICTED BY IDOCK:   -2.53 KCAL/MOL
REMARK 924 INTRA-LIGAND FREE ENERGY PREDICTED BY IDOCK:   -0.10 KCAL/MOL
REMARK 927      BINDING AFFINITY PREDICTED BY RF-SCORE:    0.00 PKD
ROOT
HETATM    1  C   UNL     1     -10.211  14.046  65.830  1.00  0.00    -0.328 C  
HETATM    2  N   UNL     1     -10.440  12.997  66.908  1.00  0.00    -0.253 N  
HETATM    3  C   UNL     1      -9.115  12.278  67.135  1.00  0.00    -0.193 C  
HETATM    4  C   UNL     1     -11.477  11.997  66.446  1.00  0.00    -0.353 C  
ENDROOT
BRANCH   2   5
HETATM    5  C   UNL     1     -10.836  13.642  68.268  1.00  0.00    -0.251 C  
BRANCH   5   6
HETATM    6  C   UNL     1     -11.645  12.795  69.290  1.00  0.00    -0.314 C  
HETATM    7  H   UNL     1     -12.838  13.132  70.842  1.00  0.00     0.000 HD 
HETATM    8  O   UNL     1     -12.342  13.650  70.218  1.00  0.00    -0.333 OA 
BRANCH   6   9
HETATM    9  C   UNL     1     -10.914  11.714  70.076  1.00  0.00     0.244 C  
HETATM   10  C   UNL     1     -11.696  10.417  70.013  1.00  0.00    -0.286 C  
HETATM   11  O   UNL     1     -12.938  10.538  70.170  1.00  0.00    -0.218 OA 
HETATM   12  O   UNL     1     -11.011   9.416  69.674  1.00  0.00    -0.239 OA 
ENDBRANCH   6   9
ENDBRANCH   5   6
ENDBRANCH   2   5
TORSDOF 3
ENDMDL
MODEL      182
REMARK 921   NORMALIZED FREE ENERGY PREDICTED BY IDOCK:   -1.92 KCAL/MOL
REMARK 922        TOTAL FREE ENERGY PREDICTED BY IDOCK:   -2.62 KCAL/MOL
REMARK 923 INTER-LIGAND FREE ENERGY PREDICTED BY IDOCK:   -2.45 KCAL/MOL
REMARK 924 INTRA-LIGAND FREE ENERGY PREDICTED BY IDOCK:   -0.17 KCAL/MOL
REMARK 927      BINDING AFFINITY PREDICTED BY RF-SCORE:    0.00 PKD
ROOT
HETATM    1  C   UNL     1     -11.124   7.286  72.759  1.00  0.00    -0.319 C  
HETATM    2  N   UNL     1     -11.182   7.766  71.316  1.00  0.00    -0.251 N  
HETATM    3  C   UNL     1     -12.110   8.974  71.273  1.00  0.00    -0.314 C  
HETATM    4  C   UNL     1     -11.743   6.675  70.431  1.00  0.00    -0.386 C  
ENDROOT
BRANCH   2   5
HETATM    5  C   UNL     1      -9.792   8.252  70.812  1.00  0.00    -0.179 C  
BRANCH   5   6
HETATM    6  C   UNL     1      -9.421   8.034  69.318  1.00  0.00    -0.155 C  
HETATM    7  H   UNL     1      -8.456   6.673  68.240  1.00  0.00     0.000 HD 
HETATM    8  O   UNL     1      -8.682   6.807  69.153  1.00  0.00    -0.130 OA 
BRANCH   6   9
HETATM    9  C   UNL     1      -8.687   9.148  68.583  1.00  0.00    -0.129 C  
HETATM   10  C   UNL     1      -9.669  10.230  68.178  1.00  0.00    -0.143 C  
HETATM   11  O   UNL     1     -10.754   9.809  67.701  1.00  0.00    -0.260 OA 
HETATM   12  O   UNL     1      -9.319  11.395  68.503  1.00  0.00    -0.182 OA 
ENDBRANCH   6   9
ENDBRANCH   5   6
ENDBRANCH   2   5
TORSDOF 3
ENDMDL
MODEL      183
REMARK 921   NORMALIZED FREE ENERGY PREDICTED BY IDOCK:   -1.90 KCAL/MOL
REMARK 922        TOTAL FREE ENERGY PREDICTED BY IDOCK:   -2.60 KCAL/MOL
REMARK 923 INTER-LIGAND FREE ENERGY PREDICTED BY IDOCK:   -2.43 KCAL/MOL
REMARK 924 INTRA-LIGAND FREE ENERGY PREDICTED BY IDOCK:   -0.17 KCAL/MOL
REMARK 927      BINDING AFFINITY PREDICTED BY RF-SCORE:    0.00 PKD
ROOT
HETATM    1  C   UNL     1      -8.462   9.161  69.818  1.00  0.00    -0.139 C  
HETATM    2  N   UNL     1      -9.019   9.489  68.441  1.00  0.00    -0.127 N  
HETATM    3  C   UNL     1     -10.092   8.455  68.123  1.00  0.00    -0.200 C  
HETATM    4  C   UNL     1      -7.920   9.404  67.404  1.00  0.00    -0.106 C  
ENDROOT
BRANCH   2   5
HETATM    5  C   UNL     1      -9.718  10.880  68.417  1.00  0.00    -0.176 C  
BRANCH   5   6
HETATM    6  C   UNL     1     -11.238  10.958  68.733  1.00  0.00    -0.270 C  
HETATM    7  H   UNL     1     -12.857  11.770  67.917  1.00  0.00     0.000 HD 
HETATM    8  O   UNL     1     -11.927  11.723  67.724  1.00  0.00    -0.586 OA 
BRANCH   6   9
HETATM    9  C   UNL     1     -11.669  11.459  70.106  1.00  0.00    -0.414 C  
HETATM   10  C   UNL     1     -12.704  10.520  70.694  1.00  0.00    -0.355 C  
HETATM   11  O   UNL     1     -13.591  10.137  69.888  1.00  0.00     0.321 OA 
HETATM   12  O   UNL     1     -12.453  10.143  71.869  1.00  0.00    -0.382 OA 
ENDBRANCH   6   9
ENDBRANCH   5   6
ENDBRANCH   2   5
TORSDOF 3
ENDMDL
MODEL      184
REMARK 921   NORMALIZED FREE ENERGY PREDICTED BY IDOCK:   -1.90 KCAL/MOL
REMARK 922        TOTAL FREE ENERGY PREDICTED BY IDOCK:   -2.60 KCAL/MOL
REMARK 923 INTER-LIGAND FREE ENERGY PREDICTED BY IDOCK:   -2.30 KCAL/MOL
REMARK 924 INTRA-LIGAND FREE ENERGY PREDICTED BY IDOCK:   -0.30 KCAL/MOL
REMARK 927      BINDING AFFINITY PREDICTED BY RF-SCORE:    0.00 PKD
ROOT
HETATM    1  C   UNL     1      -8.937  10.084  69.015  1.00  0.00    -0.163 C  
HETATM    2  N   UNL     1      -9.211   8.815  68.222  1.00  0.00    -0.140 N  
HETATM    3  C   UNL     1      -8.112   7.815  68.565  1.00  0.00    -0.123 C  
HETATM    4  C   UNL     1      -9.170   9.111  66.739  1.00  0.00    -0.155 C  
ENDROOT
BRANCH   2   5
HETATM    5  C   UNL     1     -10.559   8.155  68.635  1.00  0.00    -0.109 C  
BRANCH   5   6
HETATM    6  C   UNL     1     -10.593   7.253  69.900  1.00  0.00    -0.231 C  
HETATM    7  H   UNL     1     -11.651   5.706  70.559  1.00  0.00     0.000 HD 
HETATM    8  O   UNL     1     -11.630   6.258  69.786  1.00  0.00    -0.436 OA 
BRANCH   6   9
HETATM    9  C   UNL     1     -10.706   7.921  71.265  1.00  0.00    -0.257 C  
HETATM   10  C   UNL     1      -9.433   7.694  72.055  1.00  0.00    -0.153 C  
HETATM   11  O   UNL     1      -8.974   6.524  71.995  1.00  0.00    -0.140 OA 
HETATM   12  O   UNL     1      -8.936   8.741  72.548  1.00  0.00    -0.386 OA 
ENDBRANCH   6   9
ENDBRANCH   5   6
ENDBRANCH   2   5
TORSDOF 3
ENDMDL
MODEL      185
REMARK 921   NORMALIZED FREE ENERGY PREDICTED BY IDOCK:   -1.89 KCAL/MOL
REMARK 922        TOTAL FREE ENERGY PREDICTED BY IDOCK:   -2.59 KCAL/MOL
REMARK 923 INTER-LIGAND FREE ENERGY PREDICTED BY IDOCK:   -3.38 KCAL/MOL
REMARK 924 INTRA-LIGAND FREE ENERGY PREDICTED BY IDOCK:    0.79 KCAL/MOL
REMARK 927      BINDING AFFINITY PREDICTED BY RF-SCORE:    0.00 PKD
ROOT
HETATM    1  C   UNL     1     -11.044  12.852  68.837  1.00  0.00    -0.255 C  
HETATM    2  N   UNL     1     -11.400  14.330  68.856  1.00  0.00    -0.257 N  
HETATM    3  C   UNL     1     -10.150  15.096  69.276  1.00  0.00    -0.246 C  
HETATM    4  C   UNL     1     -12.502  14.585  69.861  1.00  0.00    -0.252 C  
ENDROOT
BRANCH   2   5
HETATM    5  C   UNL     1     -11.787  14.851  67.441  1.00  0.00    -0.224 C  
BRANCH   5   6
HETATM    6  C   UNL     1     -10.657  15.316  66.481  1.00  0.00    -0.304 C  
HETATM    7  H   UNL     1      -9.041  14.525  65.639  1.00  0.00     0.000 HD 
HETATM    8  O   UNL     1      -9.732  14.240  66.227  1.00  0.00    -0.284 OA 
BRANCH   6   9
HETATM    9  C   UNL     1      -9.865  16.566  66.844  1.00  0.00    -0.262 C  
HETATM   10  C   UNL     1     -10.566  17.795  66.299  1.00  0.00    -0.220 C  
HETATM   11  O   UNL     1     -11.001  17.680  65.124  1.00  0.00    -0.651 OA 
HETATM   12  O   UNL     1     -10.739  18.711  67.146  1.00  0.00    -0.421 OA 
ENDBRANCH   6   9
ENDBRANCH   5   6
ENDBRANCH   2   5
TORSDOF 3
ENDMDL
MODEL      186
REMARK 921   NORMALIZED FREE ENERGY PREDICTED BY IDOCK:   -1.88 KCAL/MOL
REMARK 922        TOTAL FREE ENERGY PREDICTED BY IDOCK:   -2.58 KCAL/MOL
REMARK 923 INTER-LIGAND FREE ENERGY PREDICTED BY IDOCK:   -2.30 KCAL/MOL
REMARK 924 INTRA-LIGAND FREE ENERGY PREDICTED BY IDOCK:   -0.28 KCAL/MOL
REMARK 927      BINDING AFFINITY PREDICTED BY RF-SCORE:    0.00 PKD
ROOT
HETATM    1  C   UNL     1      -9.829   2.676  71.689  1.00  0.00    -0.143 C  
HETATM    2  N   UNL     1      -9.162   3.997  72.042  1.00  0.00    -0.120 N  
HETATM    3  C   UNL     1      -7.840   4.059  71.285  1.00  0.00    -0.070 C  
HETATM    4  C   UNL     1      -8.889   4.058  73.529  1.00  0.00    -0.093 C  
ENDROOT
BRANCH   2   5
HETATM    5  C   UNL     1     -10.005   5.217  71.566  1.00  0.00    -0.187 C  
BRANCH   5   6
HETATM    6  C   UNL     1     -10.802   6.032  72.623  1.00  0.00    -0.244 C  
HETATM    7  H   UNL     1     -12.645   6.050  73.362  1.00  0.00     0.000 HD 
HETATM    8  O   UNL     1     -12.158   5.552  72.716  1.00  0.00    -0.192 OA 
BRANCH   6   9
HETATM    9  C   UNL     1     -10.828   7.550  72.499  1.00  0.00    -0.349 C  
HETATM   10  C   UNL     1      -9.513   8.127  72.986  1.00  0.00    -0.263 C  
HETATM   11  O   UNL     1      -9.072   7.618  74.049  1.00  0.00    -0.259 OA 
HETATM   12  O   UNL     1      -8.976   8.938  72.187  1.00  0.00    -0.381 OA 
ENDBRANCH   6   9
ENDBRANCH   5   6
ENDBRANCH   2   5
TORSDOF 3
ENDMDL
MODEL      187
REMARK 921   NORMALIZED FREE ENERGY PREDICTED BY IDOCK:   -1.87 KCAL/MOL
REMARK 922        TOTAL FREE ENERGY PREDICTED BY IDOCK:   -2.56 KCAL/MOL
REMARK 923 INTER-LIGAND FREE ENERGY PREDICTED BY IDOCK:   -3.06 KCAL/MOL
REMARK 924 INTRA-LIGAND FREE ENERGY PREDICTED BY IDOCK:    0.51 KCAL/MOL
REMARK 927      BINDING AFFINITY PREDICTED BY RF-SCORE:    0.00 PKD
ROOT
HETATM    1  C   UNL     1     -10.652   9.477  67.765  1.00  0.00    -0.261 C  
HETATM    2  N   UNL     1     -10.657  10.711  68.654  1.00  0.00    -0.190 N  
HETATM    3  C   UNL     1     -11.801  11.606  68.190  1.00  0.00    -0.244 C  
HETATM    4  C   UNL     1      -9.350  11.459  68.511  1.00  0.00    -0.180 C  
ENDROOT
BRANCH   2   5
HETATM    5  C   UNL     1     -10.948  10.352  70.141  1.00  0.00    -0.300 C  
BRANCH   5   6
HETATM    6  C   UNL     1     -12.402  10.487  70.672  1.00  0.00    -0.356 C  
HETATM    7  H   UNL     1     -13.619  11.954  71.232  1.00  0.00     0.000 HD 
HETATM    8  O   UNL     1     -12.729  11.871  70.907  1.00  0.00    -0.297 OA 
BRANCH   6   9
HETATM    9  C   UNL     1     -12.806   9.675  71.897  1.00  0.00    -0.515 C  
HETATM   10  C   UNL     1     -12.289   8.256  71.764  1.00  0.00    -0.328 C  
HETATM   11  O   UNL     1     -12.438   7.741  70.626  1.00  0.00    -0.030 OA 
HETATM   12  O   UNL     1     -11.658   7.838  72.771  1.00  0.00    -0.362 OA 
ENDBRANCH   6   9
ENDBRANCH   5   6
ENDBRANCH   2   5
TORSDOF 3
ENDMDL
MODEL      188
REMARK 921   NORMALIZED FREE ENERGY PREDICTED BY IDOCK:   -1.86 KCAL/MOL
REMARK 922        TOTAL FREE ENERGY PREDICTED BY IDOCK:   -2.55 KCAL/MOL
REMARK 923 INTER-LIGAND FREE ENERGY PREDICTED BY IDOCK:   -2.25 KCAL/MOL
REMARK 924 INTRA-LIGAND FREE ENERGY PREDICTED BY IDOCK:   -0.30 KCAL/MOL
REMARK 927      BINDING AFFINITY PREDICTED BY RF-SCORE:    0.00 PKD
ROOT
HETATM    1  C   UNL     1      -8.038   7.090  70.587  1.00  0.00    -0.117 C  
HETATM    2  N   UNL     1      -8.346   5.674  70.123  1.00  0.00    -0.116 N  
HETATM    3  C   UNL     1      -7.794   4.718  71.173  1.00  0.00    -0.083 C  
HETATM    4  C   UNL     1      -7.667   5.405  68.798  1.00  0.00    -0.083 C  
ENDROOT
BRANCH   2   5
HETATM    5  C   UNL     1      -9.878   5.412  70.043  1.00  0.00    -0.207 C  
BRANCH   5   6
HETATM    6  C   UNL     1     -10.801   6.534  69.490  1.00  0.00    -0.304 C  
HETATM    7  H   UNL     1     -12.665   7.159  69.772  1.00  0.00     0.000 HD 
HETATM    8  O   UNL     1     -12.101   6.473  70.110  1.00  0.00    -0.323 OA 
BRANCH   6   9
HETATM    9  C   UNL     1     -10.983   6.645  67.981  1.00  0.00    -0.332 C  
HETATM   10  C   UNL     1     -10.317   7.909  67.475  1.00  0.00    -0.259 C  
HETATM   11  O   UNL     1     -10.514   8.931  68.182  1.00  0.00    -0.219 OA 
HETATM   12  O   UNL     1      -9.545   7.731  66.496  1.00  0.00    -0.202 OA 
ENDBRANCH   6   9
ENDBRANCH   5   6
ENDBRANCH   2   5
TORSDOF 3
ENDMDL
MODEL      189
REMARK 921   NORMALIZED FREE ENERGY PREDICTED BY IDOCK:   -1.86 KCAL/MOL
REMARK 922        TOTAL FREE ENERGY PREDICTED BY IDOCK:   -2.54 KCAL/MOL
REMARK 923 INTER-LIGAND FREE ENERGY PREDICTED BY IDOCK:   -2.92 KCAL/MOL
REMARK 924 INTRA-LIGAND FREE ENERGY PREDICTED BY IDOCK:    0.37 KCAL/MOL
REMARK 927      BINDING AFFINITY PREDICTED BY RF-SCORE:    0.00 PKD
ROOT
HETATM    1  C   UNL     1     -10.668  16.589  67.921  1.00  0.00    -0.337 C  
HETATM    2  N   UNL     1      -9.772  15.892  66.908  1.00  0.00    -0.226 N  
HETATM    3  C   UNL     1     -10.663  15.386  65.780  1.00  0.00    -0.351 C  
HETATM    4  C   UNL     1      -9.073  14.718  67.556  1.00  0.00    -0.189 C  
ENDROOT
BRANCH   2   5
HETATM    5  C   UNL     1      -8.753  16.877  66.263  1.00  0.00    -0.286 C  
BRANCH   5   6
HETATM    6  C   UNL     1      -7.368  17.070  66.942  1.00  0.00    -0.209 C  
HETATM    7  H   UNL     1      -6.647  17.991  68.547  1.00  0.00     0.000 HD 
HETATM    8  O   UNL     1      -7.494  17.874  68.132  1.00  0.00    -0.233 OA 
BRANCH   6   9
HETATM    9  C   UNL     1      -6.219  17.616  66.103  1.00  0.00    -0.268 C  
HETATM   10  C   UNL     1      -6.413  19.101  65.870  1.00  0.00    -0.225 C  
HETATM   11  O   UNL     1      -7.588  19.441  65.575  1.00  0.00    -0.434 OA 
HETATM   12  O   UNL     1      -5.404  19.804  66.141  1.00  0.00    -0.160 OA 
ENDBRANCH   6   9
ENDBRANCH   5   6
ENDBRANCH   2   5
TORSDOF 3
ENDMDL
MODEL      190
REMARK 921   NORMALIZED FREE ENERGY PREDICTED BY IDOCK:   -1.85 KCAL/MOL
REMARK 922        TOTAL FREE ENERGY PREDICTED BY IDOCK:   -2.54 KCAL/MOL
REMARK 923 INTER-LIGAND FREE ENERGY PREDICTED BY IDOCK:   -2.28 KCAL/MOL
REMARK 924 INTRA-LIGAND FREE ENERGY PREDICTED BY IDOCK:   -0.26 KCAL/MOL
REMARK 927      BINDING AFFINITY PREDICTED BY RF-SCORE:    0.00 PKD
ROOT
HETATM    1  C   UNL     1     -11.548   9.409  70.894  1.00  0.00    -0.312 C  
HETATM    2  N   UNL     1     -11.022   8.047  71.322  1.00  0.00    -0.232 N  
HETATM    3  C   UNL     1     -12.227   7.148  71.572  1.00  0.00    -0.360 C  
HETATM    4  C   UNL     1     -10.224   8.178  72.600  1.00  0.00    -0.318 C  
ENDROOT
BRANCH   2   5
HETATM    5  C   UNL     1     -10.187   7.370  70.195  1.00  0.00    -0.205 C  
BRANCH   5   6
HETATM    6  C   UNL     1     -10.422   7.810  68.724  1.00  0.00    -0.181 C  
HETATM    7  H   UNL     1     -11.352   7.097  67.120  1.00  0.00     0.000 HD 
HETATM    8  O   UNL     1     -11.208   6.828  68.020  1.00  0.00    -0.186 OA 
BRANCH   6   9
HETATM    9  C   UNL     1      -9.210   8.167  67.871  1.00  0.00    -0.138 C  
HETATM   10  C   UNL     1      -8.824   9.614  68.109  1.00  0.00    -0.119 C  
HETATM   11  O   UNL     1      -9.789  10.420  68.151  1.00  0.00    -0.148 OA 
HETATM   12  O   UNL     1      -7.605   9.788  68.371  1.00  0.00    -0.079 OA 
ENDBRANCH   6   9
ENDBRANCH   5   6
ENDBRANCH   2   5
TORSDOF 3
ENDMDL
MODEL      191
REMARK 921   NORMALIZED FREE ENERGY PREDICTED BY IDOCK:   -1.85 KCAL/MOL
REMARK 922        TOTAL FREE ENERGY PREDICTED BY IDOCK:   -2.53 KCAL/MOL
REMARK 923 INTER-LIGAND FREE ENERGY PREDICTED BY IDOCK:   -2.29 KCAL/MOL
REMARK 924 INTRA-LIGAND FREE ENERGY PREDICTED BY IDOCK:   -0.24 KCAL/MOL
REMARK 927      BINDING AFFINITY PREDICTED BY RF-SCORE:    0.00 PKD
ROOT
HETATM    1  C   UNL     1      -7.970   9.946  69.602  1.00  0.00    -0.162 C  
HETATM    2  N   UNL     1      -7.886   8.433  69.466  1.00  0.00    -0.100 N  
HETATM    3  C   UNL     1      -6.572   7.989  70.099  1.00  0.00    -0.037 C  
HETATM    4  C   UNL     1      -7.892   8.044  68.004  1.00  0.00    -0.126 C  
ENDROOT
BRANCH   2   5
HETATM    5  C   UNL     1      -9.024   7.718  70.252  1.00  0.00    -0.148 C  
BRANCH   5   6
HETATM    6  C   UNL     1     -10.417   7.568  69.579  1.00  0.00    -0.226 C  
HETATM    7  H   UNL     1     -12.274   8.183  69.921  1.00  0.00     0.000 HD 
HETATM    8  O   UNL     1     -11.422   8.275  70.333  1.00  0.00    -0.232 OA 
BRANCH   6   9
HETATM    9  C   UNL     1     -10.929   6.165  69.277  1.00  0.00    -0.450 C  
HETATM   10  C   UNL     1     -10.782   5.873  67.797  1.00  0.00    -0.265 C  
HETATM   11  O   UNL     1     -11.121   6.815  67.034  1.00  0.00    -0.403 OA 
HETATM   12  O   UNL     1     -10.209   4.782  67.538  1.00  0.00    -0.140 OA 
ENDBRANCH   6   9
ENDBRANCH   5   6
ENDBRANCH   2   5
TORSDOF 3
ENDMDL
MODEL      192
REMARK 921   NORMALIZED FREE ENERGY PREDICTED BY IDOCK:   -1.84 KCAL/MOL
REMARK 922        TOTAL FREE ENERGY PREDICTED BY IDOCK:   -2.53 KCAL/MOL
REMARK 923 INTER-LIGAND FREE ENERGY PREDICTED BY IDOCK:   -2.16 KCAL/MOL
REMARK 924 INTRA-LIGAND FREE ENERGY PREDICTED BY IDOCK:   -0.37 KCAL/MOL
REMARK 927      BINDING AFFINITY PREDICTED BY RF-SCORE:    0.00 PKD
ROOT
HETATM    1  C   UNL     1     -10.908   9.138  69.647  1.00  0.00    -0.197 C  
HETATM    2  N   UNL     1     -10.512   8.056  70.640  1.00  0.00    -0.207 N  
HETATM    3  C   UNL     1     -11.685   7.089  70.755  1.00  0.00    -0.349 C  
HETATM    4  C   UNL     1     -10.238   8.671  71.995  1.00  0.00    -0.337 C  
ENDROOT
BRANCH   2   5
HETATM    5  C   UNL     1      -9.297   7.224  70.135  1.00  0.00    -0.155 C  
BRANCH   5   6
HETATM    6  C   UNL     1      -8.293   7.888  69.152  1.00  0.00    -0.133 C  
HETATM    7  H   UNL     1      -7.444   7.439  67.413  1.00  0.00     0.000 HD 
HETATM    8  O   UNL     1      -8.057   7.033  68.015  1.00  0.00    -0.116 OA 
BRANCH   6   9
HETATM    9  C   UNL     1      -6.951   8.361  69.694  1.00  0.00    -0.048 C  
HETATM   10  C   UNL     1      -7.096   9.749  70.285  1.00  0.00    -0.143 C  
HETATM   11  O   UNL     1      -7.782  10.549  69.597  1.00  0.00    -0.154 OA 
HETATM   12  O   UNL     1      -6.628   9.869  71.448  1.00  0.00    -0.321 OA 
ENDBRANCH   6   9
ENDBRANCH   5   6
ENDBRANCH   2   5
TORSDOF 3
ENDMDL
MODEL      193
REMARK 921   NORMALIZED FREE ENERGY PREDICTED BY IDOCK:   -1.84 KCAL/MOL
REMARK 922        TOTAL FREE ENERGY PREDICTED BY IDOCK:   -2.52 KCAL/MOL
REMARK 923 INTER-LIGAND FREE ENERGY PREDICTED BY IDOCK:   -2.37 KCAL/MOL
REMARK 924 INTRA-LIGAND FREE ENERGY PREDICTED BY IDOCK:   -0.15 KCAL/MOL
REMARK 927      BINDING AFFINITY PREDICTED BY RF-SCORE:    0.00 PKD
ROOT
HETATM    1  C   UNL     1      -9.148  11.294  68.178  1.00  0.00    -0.166 C  
HETATM    2  N   UNL     1     -10.580  11.342  67.666  1.00  0.00    -0.193 N  
HETATM    3  C   UNL     1     -10.676  12.502  66.682  1.00  0.00    -0.236 C  
HETATM    4  C   UNL     1     -11.533  11.584  68.816  1.00  0.00    -0.287 C  
ENDROOT
BRANCH   2   5
HETATM    5  C   UNL     1     -10.955  10.054  66.875  1.00  0.00    -0.000 C  
BRANCH   5   6
HETATM    6  C   UNL     1     -10.021   8.817  66.975  1.00  0.00    -0.240 C  
HETATM    7  H   UNL     1      -8.533   8.026  65.925  1.00  0.00     0.000 HD 
HETATM    8  O   UNL     1      -9.104   8.782  65.863  1.00  0.00    -0.193 OA 
BRANCH   6   9
HETATM    9  C   UNL     1     -10.655   7.440  67.129  1.00  0.00    -0.413 C  
HETATM   10  C   UNL     1     -10.385   6.903  68.521  1.00  0.00    -0.186 C  
HETATM   11  O   UNL     1      -9.210   7.074  68.937  1.00  0.00    -0.138 OA 
HETATM   12  O   UNL     1     -11.410   6.486  69.122  1.00  0.00    -0.320 OA 
ENDBRANCH   6   9
ENDBRANCH   5   6
ENDBRANCH   2   5
TORSDOF 3
ENDMDL
MODEL      194
REMARK 921   NORMALIZED FREE ENERGY PREDICTED BY IDOCK:   -1.84 KCAL/MOL
REMARK 922        TOTAL FREE ENERGY PREDICTED BY IDOCK:   -2.52 KCAL/MOL
REMARK 923 INTER-LIGAND FREE ENERGY PREDICTED BY IDOCK:   -2.34 KCAL/MOL
REMARK 924 INTRA-LIGAND FREE ENERGY PREDICTED BY IDOCK:   -0.18 KCAL/MOL
REMARK 927      BINDING AFFINITY PREDICTED BY RF-SCORE:    0.00 PKD
ROOT
HETATM    1  C   UNL     1      -9.884   2.865  71.604  1.00  0.00    -0.139 C  
HETATM    2  N   UNL     1      -9.686   3.528  72.959  1.00  0.00    -0.119 N  
HETATM    3  C   UNL     1      -8.432   2.927  73.583  1.00  0.00    -0.073 C  
HETATM    4  C   UNL     1     -10.873   3.243  73.853  1.00  0.00    -0.214 C  
ENDROOT
BRANCH   2   5
HETATM    5  C   UNL     1      -9.429   5.057  72.823  1.00  0.00    -0.139 C  
BRANCH   5   6
HETATM    6  C   UNL     1      -9.664   5.735  71.445  1.00  0.00    -0.167 C  
HETATM    7  H   UNL     1      -8.554   6.381  69.930  1.00  0.00     0.000 HD 
HETATM    8  O   UNL     1      -8.410   5.966  70.773  1.00  0.00    -0.121 OA 
BRANCH   6   9
HETATM    9  C   UNL     1     -10.486   7.017  71.398  1.00  0.00    -0.225 C  
HETATM   10  C   UNL     1     -11.741   6.792  70.579  1.00  0.00    -0.375 C  
HETATM   11  O   UNL     1     -11.569   6.149  69.511  1.00  0.00    -0.396 OA 
HETATM   12  O   UNL     1     -12.804   7.158  71.147  1.00  0.00    -0.370 OA 
ENDBRANCH   6   9
ENDBRANCH   5   6
ENDBRANCH   2   5
TORSDOF 3
ENDMDL
MODEL      195
REMARK 921   NORMALIZED FREE ENERGY PREDICTED BY IDOCK:   -1.83 KCAL/MOL
REMARK 922        TOTAL FREE ENERGY PREDICTED BY IDOCK:   -2.51 KCAL/MOL
REMARK 923 INTER-LIGAND FREE ENERGY PREDICTED BY IDOCK:   -2.48 KCAL/MOL
REMARK 924 INTRA-LIGAND FREE ENERGY PREDICTED BY IDOCK:   -0.03 KCAL/MOL
REMARK 927      BINDING AFFINITY PREDICTED BY RF-SCORE:    0.00 PKD
ROOT
HETATM    1  C   UNL     1     -10.639  10.639  67.527  1.00  0.00    -0.252 C  
HETATM    2  N   UNL     1      -9.960  11.531  66.499  1.00  0.00    -0.205 N  
HETATM    3  C   UNL     1     -10.263  10.954  65.121  1.00  0.00    -0.297 C  
HETATM    4  C   UNL     1      -8.463  11.531  66.721  1.00  0.00    -0.168 C  
ENDROOT
BRANCH   2   5
HETATM    5  C   UNL     1     -10.539  12.976  66.514  1.00  0.00    -0.282 C  
BRANCH   5   6
HETATM    6  C   UNL     1     -10.285  13.870  67.760  1.00  0.00    -0.237 C  
HETATM    7  H   UNL     1     -11.257  14.366  69.419  1.00  0.00     0.000 HD 
HETATM    8  O   UNL     1     -11.412  13.820  68.657  1.00  0.00    -0.259 OA 
BRANCH   6   9
HETATM    9  C   UNL     1      -9.900  15.327  67.541  1.00  0.00    -0.213 C  
HETATM   10  C   UNL     1      -8.814  15.724  68.522  1.00  0.00    -0.193 C  
HETATM   11  O   UNL     1      -8.991  15.320  69.700  1.00  0.00    -0.232 OA 
HETATM   12  O   UNL     1      -7.818  16.284  67.993  1.00  0.00    -0.145 OA 
ENDBRANCH   6   9
ENDBRANCH   5   6
ENDBRANCH   2   5
TORSDOF 3
ENDMDL
MODEL      196
REMARK 921   NORMALIZED FREE ENERGY PREDICTED BY IDOCK:   -1.81 KCAL/MOL
REMARK 922        TOTAL FREE ENERGY PREDICTED BY IDOCK:   -2.49 KCAL/MOL
REMARK 923 INTER-LIGAND FREE ENERGY PREDICTED BY IDOCK:   -2.27 KCAL/MOL
REMARK 924 INTRA-LIGAND FREE ENERGY PREDICTED BY IDOCK:   -0.21 KCAL/MOL
REMARK 927      BINDING AFFINITY PREDICTED BY RF-SCORE:    0.00 PKD
ROOT
HETATM    1  C   UNL     1      -9.690  10.879  67.403  1.00  0.00    -0.168 C  
HETATM    2  N   UNL     1     -10.581  11.831  66.620  1.00  0.00    -0.231 N  
HETATM    3  C   UNL     1      -9.856  13.170  66.533  1.00  0.00    -0.265 C  
HETATM    4  C   UNL     1     -11.896  12.022  67.342  1.00  0.00    -0.198 C  
ENDROOT
BRANCH   2   5
HETATM    5  C   UNL     1     -10.799  11.347  65.156  1.00  0.00    -0.238 C  
BRANCH   5   6
HETATM    6  C   UNL     1      -9.561  11.177  64.232  1.00  0.00    -0.252 C  
HETATM    7  H   UNL     1      -8.930  11.900  62.493  1.00  0.00     0.000 HD 
HETATM    8  O   UNL     1      -9.687  12.004  63.058  1.00  0.00    -0.383 OA 
BRANCH   6   9
HETATM    9  C   UNL     1      -9.167   9.771  63.800  1.00  0.00    -0.237 C  
HETATM   10  C   UNL     1      -7.731   9.495  64.199  1.00  0.00    -0.124 C  
HETATM   11  O   UNL     1      -6.928  10.438  63.978  1.00  0.00    -0.088 OA 
HETATM   12  O   UNL     1      -7.565   8.413  64.822  1.00  0.00    -0.091 OA 
ENDBRANCH   6   9
ENDBRANCH   5   6
ENDBRANCH   2   5
TORSDOF 3
ENDMDL
MODEL      197
REMARK 921   NORMALIZED FREE ENERGY PREDICTED BY IDOCK:   -1.81 KCAL/MOL
REMARK 922        TOTAL FREE ENERGY PREDICTED BY IDOCK:   -2.49 KCAL/MOL
REMARK 923 INTER-LIGAND FREE ENERGY PREDICTED BY IDOCK:   -2.29 KCAL/MOL
REMARK 924 INTRA-LIGAND FREE ENERGY PREDICTED BY IDOCK:   -0.20 KCAL/MOL
REMARK 927      BINDING AFFINITY PREDICTED BY RF-SCORE:    0.00 PKD
ROOT
HETATM    1  C   UNL     1      -9.509   6.221  68.827  1.00  0.00    -0.122 C  
HETATM    2  N   UNL     1      -9.582   7.715  69.104  1.00  0.00    -0.154 N  
HETATM    3  C   UNL     1      -9.750   8.422  67.764  1.00  0.00    -0.162 C  
HETATM    4  C   UNL     1      -8.300   8.184  69.757  1.00  0.00    -0.124 C  
ENDROOT
BRANCH   2   5
HETATM    5  C   UNL     1     -10.827   8.084  69.962  1.00  0.00    -0.235 C  
BRANCH   5   6
HETATM    6  C   UNL     1     -11.312   7.081  71.046  1.00  0.00    -0.287 C  
HETATM    7  H   UNL     1     -13.043   6.325  71.662  1.00  0.00     0.000 HD 
HETATM    8  O   UNL     1     -12.746   6.939  70.999  1.00  0.00    -0.356 OA 
BRANCH   6   9
HETATM    9  C   UNL     1     -10.892   7.316  72.491  1.00  0.00    -0.312 C  
HETATM   10  C   UNL     1     -10.236   6.066  73.044  1.00  0.00    -0.194 C  
HETATM   11  O   UNL     1     -10.819   4.989  72.755  1.00  0.00    -0.221 OA 
HETATM   12  O   UNL     1      -9.123   6.267  73.599  1.00  0.00    -0.127 OA 
ENDBRANCH   6   9
ENDBRANCH   5   6
ENDBRANCH   2   5
TORSDOF 3
ENDMDL
MODEL      198
REMARK 921   NORMALIZED FREE ENERGY PREDICTED BY IDOCK:   -1.81 KCAL/MOL
REMARK 922        TOTAL FREE ENERGY PREDICTED BY IDOCK:   -2.49 KCAL/MOL
REMARK 923 INTER-LIGAND FREE ENERGY PREDICTED BY IDOCK:   -3.03 KCAL/MOL
REMARK 924 INTRA-LIGAND FREE ENERGY PREDICTED BY IDOCK:    0.55 KCAL/MOL
REMARK 927      BINDING AFFINITY PREDICTED BY RF-SCORE:    0.00 PKD
ROOT
HETATM    1  C   UNL     1      -7.278  14.414  67.527  1.00  0.00    -0.180 C  
HETATM    2  N   UNL     1      -8.489  15.297  67.786  1.00  0.00    -0.147 N  
HETATM    3  C   UNL     1      -8.952  15.845  66.441  1.00  0.00    -0.326 C  
HETATM    4  C   UNL     1      -8.106  16.450  68.689  1.00  0.00    -0.218 C  
ENDROOT
BRANCH   2   5
HETATM    5  C   UNL     1      -9.682  14.486  68.372  1.00  0.00    -0.224 C  
BRANCH   5   6
HETATM    6  C   UNL     1      -9.916  13.034  67.871  1.00  0.00    -0.230 C  
HETATM    7  H   UNL     1      -9.142  11.235  68.202  1.00  0.00     0.000 HD 
HETATM    8  O   UNL     1      -8.998  12.123  68.509  1.00  0.00    -0.164 OA 
BRANCH   6   9
HETATM    9  C   UNL     1      -9.899  12.773  66.370  1.00  0.00    -0.269 C  
HETATM   10  C   UNL     1     -11.316  12.769  65.833  1.00  0.00    -0.324 C  
HETATM   11  O   UNL     1     -12.150  12.148  66.542  1.00  0.00    -0.627 OA 
HETATM   12  O   UNL     1     -11.491  13.505  64.826  1.00  0.00    -0.323 OA 
ENDBRANCH   6   9
ENDBRANCH   5   6
ENDBRANCH   2   5
TORSDOF 3
ENDMDL
MODEL      199
REMARK 921   NORMALIZED FREE ENERGY PREDICTED BY IDOCK:   -1.81 KCAL/MOL
REMARK 922        TOTAL FREE ENERGY PREDICTED BY IDOCK:   -2.49 KCAL/MOL
REMARK 923 INTER-LIGAND FREE ENERGY PREDICTED BY IDOCK:   -2.26 KCAL/MOL
REMARK 924 INTRA-LIGAND FREE ENERGY PREDICTED BY IDOCK:   -0.22 KCAL/MOL
REMARK 927      BINDING AFFINITY PREDICTED BY RF-SCORE:    0.00 PKD
ROOT
HETATM    1  C   UNL     1      -9.881  13.875  67.991  1.00  0.00    -0.234 C  
HETATM    2  N   UNL     1     -10.648  13.028  66.986  1.00  0.00    -0.256 N  
HETATM    3  C   UNL     1      -9.971  13.200  65.631  1.00  0.00    -0.227 C  
HETATM    4  C   UNL     1     -12.080  13.504  66.893  1.00  0.00    -0.368 C  
ENDROOT
BRANCH   2   5
HETATM    5  C   UNL     1     -10.573  11.511  67.332  1.00  0.00    -0.214 C  
BRANCH   5   6
HETATM    6  C   UNL     1      -9.666  10.592  66.467  1.00  0.00    -0.192 C  
HETATM    7  H   UNL     1      -9.806   8.815  65.590  1.00  0.00     0.000 HD 
HETATM    8  O   UNL     1     -10.361   9.377  66.119  1.00  0.00    -0.232 OA 
BRANCH   6   9
HETATM    9  C   UNL     1      -8.285  10.230  66.997  1.00  0.00    -0.122 C  
HETATM   10  C   UNL     1      -7.231  10.579  65.965  1.00  0.00    -0.137 C  
HETATM   11  O   UNL     1      -7.522  10.264  64.782  1.00  0.00    -0.143 OA 
HETATM   12  O   UNL     1      -6.272  11.261  66.414  1.00  0.00    -0.139 OA 
ENDBRANCH   6   9
ENDBRANCH   5   6
ENDBRANCH   2   5
TORSDOF 3
ENDMDL
MODEL      200
REMARK 921   NORMALIZED FREE ENERGY PREDICTED BY IDOCK:   -1.80 KCAL/MOL
REMARK 922        TOTAL FREE ENERGY PREDICTED BY IDOCK:   -2.48 KCAL/MOL
REMARK 923 INTER-LIGAND FREE ENERGY PREDICTED BY IDOCK:   -2.26 KCAL/MOL
REMARK 924 INTRA-LIGAND FREE ENERGY PREDICTED BY IDOCK:   -0.22 KCAL/MOL
REMARK 927      BINDING AFFINITY PREDICTED BY RF-SCORE:    0.00 PKD
ROOT
HETATM    1  C   UNL     1      -8.483   7.645  66.056  1.00  0.00    -0.144 C  
HETATM    2  N   UNL     1      -9.027   6.869  67.246  1.00  0.00    -0.117 N  
HETATM    3  C   UNL     1      -8.186   5.606  67.391  1.00  0.00    -0.101 C  
HETATM    4  C   UNL     1     -10.468   6.482  66.998  1.00  0.00    -0.295 C  
ENDROOT
BRANCH   2   5
HETATM    5  C   UNL     1      -8.870   7.664  68.575  1.00  0.00    -0.130 C  
BRANCH   5   6
HETATM    6  C   UNL     1     -10.147   8.027  69.384  1.00  0.00    -0.197 C  
HETATM    7  H   UNL     1     -11.242   9.648  69.728  1.00  0.00     0.000 HD 
HETATM    8  O   UNL     1     -10.461   9.426  69.234  1.00  0.00    -0.207 OA 
BRANCH   6   9
HETATM    9  C   UNL     1     -10.193   7.672  70.865  1.00  0.00    -0.202 C  
HETATM   10  C   UNL     1     -11.269   6.633  71.110  1.00  0.00    -0.292 C  
HETATM   11  O   UNL     1     -12.354   6.840  70.507  1.00  0.00    -0.326 OA 
HETATM   12  O   UNL     1     -10.883   5.633  71.771  1.00  0.00    -0.244 OA 
ENDBRANCH   6   9
ENDBRANCH   5   6
ENDBRANCH   2   5
TORSDOF 3
ENDMDL
MODEL      201
REMARK 921   NORMALIZED FREE ENERGY PREDICTED BY IDOCK:   -1.80 KCAL/MOL
REMARK 922        TOTAL FREE ENERGY PREDICTED BY IDOCK:   -2.47 KCAL/MOL
REMARK 923 INTER-LIGAND FREE ENERGY PREDICTED BY IDOCK:   -2.22 KCAL/MOL
REMARK 924 INTRA-LIGAND FREE ENERGY PREDICTED BY IDOCK:   -0.25 KCAL/MOL
REMARK 927      BINDING AFFINITY PREDICTED BY RF-SCORE:    0.00 PKD
ROOT
HETATM    1  C   UNL     1      -7.897   7.977  73.155  1.00  0.00    -0.156 C  
HETATM    2  N   UNL     1      -7.507   6.667  72.486  1.00  0.00    -0.089 N  
HETATM    3  C   UNL     1      -7.554   5.577  73.551  1.00  0.00    -0.095 C  
HETATM    4  C   UNL     1      -6.102   6.766  71.935  1.00  0.00    -0.038 C  
ENDROOT
BRANCH   2   5
HETATM    5  C   UNL     1      -8.526   6.255  71.383  1.00  0.00    -0.127 C  
BRANCH   5   6
HETATM    6  C   UNL     1     -10.041   6.482  71.642  1.00  0.00    -0.182 C  
HETATM    7  H   UNL     1     -11.676   5.365  71.800  1.00  0.00     0.000 HD 
HETATM    8  O   UNL     1     -10.749   5.226  71.641  1.00  0.00    -0.219 OA 
BRANCH   6   9
HETATM    9  C   UNL     1     -10.790   7.466  70.752  1.00  0.00    -0.257 C  
HETATM   10  C   UNL     1     -11.297   8.628  71.583  1.00  0.00    -0.307 C  
HETATM   11  O   UNL     1     -11.808   8.307  72.687  1.00  0.00    -0.401 OA 
HETATM   12  O   UNL     1     -11.010   9.762  71.117  1.00  0.00    -0.348 OA 
ENDBRANCH   6   9
ENDBRANCH   5   6
ENDBRANCH   2   5
TORSDOF 3
ENDMDL
MODEL      202
REMARK 921   NORMALIZED FREE ENERGY PREDICTED BY IDOCK:   -1.79 KCAL/MOL
REMARK 922        TOTAL FREE ENERGY PREDICTED BY IDOCK:   -2.46 KCAL/MOL
REMARK 923 INTER-LIGAND FREE ENERGY PREDICTED BY IDOCK:   -2.12 KCAL/MOL
REMARK 924 INTRA-LIGAND FREE ENERGY PREDICTED BY IDOCK:   -0.34 KCAL/MOL
REMARK 927      BINDING AFFINITY PREDICTED BY RF-SCORE:    0.00 PKD
ROOT
HETATM    1  C   UNL     1      -9.554   4.892  70.089  1.00  0.00    -0.193 C  
HETATM    2  N   UNL     1     -10.254   6.138  70.610  1.00  0.00    -0.192 N  
HETATM    3  C   UNL     1     -11.315   6.529  69.588  1.00  0.00    -0.380 C  
HETATM    4  C   UNL     1      -9.259   7.269  70.753  1.00  0.00    -0.156 C  
ENDROOT
BRANCH   2   5
HETATM    5  C   UNL     1     -11.002   5.864  71.948  1.00  0.00    -0.266 C  
BRANCH   5   6
HETATM    6  C   UNL     1     -10.331   4.945  73.006  1.00  0.00    -0.186 C  
HETATM    7  H   UNL     1     -10.819   3.329  74.052  1.00  0.00     0.000 HD 
HETATM    8  O   UNL     1     -11.230   3.891  73.405  1.00  0.00    -0.237 OA 
BRANCH   6   9
HETATM    9  C   UNL     1      -9.743   5.586  74.256  1.00  0.00    -0.182 C  
HETATM   10  C   UNL     1      -8.308   5.999  73.996  1.00  0.00    -0.112 C  
HETATM   11  O   UNL     1      -7.617   5.150  73.374  1.00  0.00    -0.093 OA 
HETATM   12  O   UNL     1      -8.045   7.188  74.314  1.00  0.00    -0.124 OA 
ENDBRANCH   6   9
ENDBRANCH   5   6
ENDBRANCH   2   5
TORSDOF 3
ENDMDL
MODEL      203
REMARK 921   NORMALIZED FREE ENERGY PREDICTED BY IDOCK:   -1.78 KCAL/MOL
REMARK 922        TOTAL FREE ENERGY PREDICTED BY IDOCK:   -2.46 KCAL/MOL
REMARK 923 INTER-LIGAND FREE ENERGY PREDICTED BY IDOCK:   -2.22 KCAL/MOL
REMARK 924 INTRA-LIGAND FREE ENERGY PREDICTED BY IDOCK:   -0.24 KCAL/MOL
REMARK 927      BINDING AFFINITY PREDICTED BY RF-SCORE:    0.00 PKD
ROOT
HETATM    1  C   UNL     1      -8.957   8.255  72.786  1.00  0.00    -0.253 C  
HETATM    2  N   UNL     1     -10.171   7.342  72.704  1.00  0.00    -0.197 N  
HETATM    3  C   UNL     1     -11.377   8.212  72.373  1.00  0.00    -0.391 C  
HETATM    4  C   UNL     1     -10.398   6.661  74.036  1.00  0.00    -0.351 C  
ENDROOT
BRANCH   2   5
HETATM    5  C   UNL     1     -10.038   6.305  71.549  1.00  0.00    -0.190 C  
BRANCH   5   6
HETATM    6  C   UNL     1      -9.241   4.996  71.808  1.00  0.00    -0.141 C  
HETATM    7  H   UNL     1      -7.646   4.087  71.052  1.00  0.00     0.000 HD 
HETATM    8  O   UNL     1      -8.133   4.888  70.893  1.00  0.00    -0.090 OA 
BRANCH   6   9
HETATM    9  C   UNL     1     -10.000   3.675  71.815  1.00  0.00    -0.210 C  
HETATM   10  C   UNL     1     -10.005   3.093  73.215  1.00  0.00    -0.115 C  
HETATM   11  O   UNL     1      -8.904   3.157  73.820  1.00  0.00    -0.076 OA 
HETATM   12  O   UNL     1     -11.144   2.754  73.631  1.00  0.00    -0.201 OA 
ENDBRANCH   6   9
ENDBRANCH   5   6
ENDBRANCH   2   5
TORSDOF 3
ENDMDL
MODEL      204
REMARK 921   NORMALIZED FREE ENERGY PREDICTED BY IDOCK:   -1.78 KCAL/MOL
REMARK 922        TOTAL FREE ENERGY PREDICTED BY IDOCK:   -2.46 KCAL/MOL
REMARK 923 INTER-LIGAND FREE ENERGY PREDICTED BY IDOCK:   -2.26 KCAL/MOL
REMARK 924 INTRA-LIGAND FREE ENERGY PREDICTED BY IDOCK:   -0.19 KCAL/MOL
REMARK 927      BINDING AFFINITY PREDICTED BY RF-SCORE:    0.00 PKD
ROOT
HETATM    1  C   UNL     1     -11.364   4.992  73.175  1.00  0.00    -0.321 C  
HETATM    2  N   UNL     1      -9.938   4.950  72.647  1.00  0.00    -0.160 N  
HETATM    3  C   UNL     1      -9.799   3.687  71.804  1.00  0.00    -0.165 C  
HETATM    4  C   UNL     1      -8.960   4.890  73.799  1.00  0.00    -0.113 C  
ENDROOT
BRANCH   2   5
HETATM    5  C   UNL     1      -9.635   6.151  71.703  1.00  0.00    -0.151 C  
BRANCH   5   6
HETATM    6  C   UNL     1     -10.814   6.818  70.940  1.00  0.00    -0.249 C  
HETATM    7  H   UNL     1     -11.470   6.913  69.068  1.00  0.00     0.000 HD 
HETATM    8  O   UNL     1     -10.749   6.506  69.534  1.00  0.00    -0.221 OA 
BRANCH   6   9
HETATM    9  C   UNL     1     -11.024   8.318  71.099  1.00  0.00    -0.286 C  
HETATM   10  C   UNL     1     -12.456   8.596  71.511  1.00  0.00    -0.323 C  
HETATM   11  O   UNL     1     -13.324   7.929  70.890  1.00  0.00     0.010 OA 
HETATM   12  O   UNL     1     -12.570   9.352  72.511  1.00  0.00    -0.285 OA 
ENDBRANCH   6   9
ENDBRANCH   5   6
ENDBRANCH   2   5
TORSDOF 3
ENDMDL
MODEL      205
REMARK 921   NORMALIZED FREE ENERGY PREDICTED BY IDOCK:   -1.74 KCAL/MOL
REMARK 922        TOTAL FREE ENERGY PREDICTED BY IDOCK:   -2.41 KCAL/MOL
REMARK 923 INTER-LIGAND FREE ENERGY PREDICTED BY IDOCK:   -3.22 KCAL/MOL
REMARK 924 INTRA-LIGAND FREE ENERGY PREDICTED BY IDOCK:    0.80 KCAL/MOL
REMARK 927      BINDING AFFINITY PREDICTED BY RF-SCORE:    0.00 PKD
ROOT
HETATM    1  C   UNL     1     -13.984  14.144  72.173  1.00  0.00    -0.531 C  
HETATM    2  N   UNL     1     -12.783  14.423  71.282  1.00  0.00    -0.323 N  
HETATM    3  C   UNL     1     -12.317  13.089  70.711  1.00  0.00    -0.310 C  
HETATM    4  C   UNL     1     -11.665  15.035  72.097  1.00  0.00    -0.349 C  
ENDROOT
BRANCH   2   5
HETATM    5  C   UNL     1     -13.161  15.320  70.067  1.00  0.00     0.121 C  
BRANCH   5   6
HETATM    6  C   UNL     1     -12.138  15.476  68.907  1.00  0.00    -0.194 C  
HETATM    7  H   UNL     1     -11.340  14.321  67.502  1.00  0.00     0.000 HD 
HETATM    8  O   UNL     1     -11.965  14.225  68.212  1.00  0.00    -0.341 OA 
BRANCH   6   9
HETATM    9  C   UNL     1     -10.764  16.053  69.224  1.00  0.00    -0.275 C  
HETATM   10  C   UNL     1     -10.428  17.151  68.234  1.00  0.00    -0.373 C  
HETATM   11  O   UNL     1     -10.708  16.889  67.036  1.00  0.00    -0.267 OA 
HETATM   12  O   UNL     1     -10.044  18.227  68.765  1.00  0.00    -0.378 OA 
ENDBRANCH   6   9
ENDBRANCH   5   6
ENDBRANCH   2   5
TORSDOF 3
ENDMDL
MODEL      206
REMARK 921   NORMALIZED FREE ENERGY PREDICTED BY IDOCK:   -1.73 KCAL/MOL
REMARK 922        TOTAL FREE ENERGY PREDICTED BY IDOCK:   -2.40 KCAL/MOL
REMARK 923 INTER-LIGAND FREE ENERGY PREDICTED BY IDOCK:   -2.09 KCAL/MOL
REMARK 924 INTRA-LIGAND FREE ENERGY PREDICTED BY IDOCK:   -0.31 KCAL/MOL
REMARK 927      BINDING AFFINITY PREDICTED BY RF-SCORE:    0.00 PKD
ROOT
HETATM    1  C   UNL     1      -8.936   3.422  68.210  1.00  0.00    -0.137 C  
HETATM    2  N   UNL     1      -8.620   3.955  69.599  1.00  0.00    -0.066 N  
HETATM    3  C   UNL     1      -7.720   5.173  69.428  1.00  0.00    -0.076 C  
HETATM    4  C   UNL     1      -7.888   2.903  70.404  1.00  0.00    -0.042 C  
ENDROOT
BRANCH   2   5
HETATM    5  C   UNL     1      -9.901   4.448  70.336  1.00  0.00    -0.216 C  
BRANCH   5   6
HETATM    6  C   UNL     1     -10.340   5.928  70.161  1.00  0.00    -0.241 C  
HETATM    7  H   UNL     1     -11.186   7.338  71.276  1.00  0.00     0.000 HD 
HETATM    8  O   UNL     1     -10.917   6.432  71.383  1.00  0.00    -0.247 OA 
BRANCH   6   9
HETATM    9  C   UNL     1     -11.265   6.279  69.003  1.00  0.00    -0.415 C  
HETATM   10  C   UNL     1     -10.570   7.247  68.066  1.00  0.00    -0.189 C  
HETATM   11  O   UNL     1      -9.941   8.176  68.635  1.00  0.00    -0.179 OA 
HETATM   12  O   UNL     1     -10.603   6.908  66.854  1.00  0.00    -0.288 OA 
ENDBRANCH   6   9
ENDBRANCH   5   6
ENDBRANCH   2   5
TORSDOF 3
ENDMDL
MODEL      207
REMARK 921   NORMALIZED FREE ENERGY PREDICTED BY IDOCK:   -1.73 KCAL/MOL
REMARK 922        TOTAL FREE ENERGY PREDICTED BY IDOCK:   -2.40 KCAL/MOL
REMARK 923 INTER-LIGAND FREE ENERGY PREDICTED BY IDOCK:   -2.72 KCAL/MOL
REMARK 924 INTRA-LIGAND FREE ENERGY PREDICTED BY IDOCK:    0.32 KCAL/MOL
REMARK 927      BINDING AFFINITY PREDICTED BY RF-SCORE:    0.00 PKD
ROOT
HETATM    1  C   UNL     1     -10.740  15.332  69.926  1.00  0.00    -0.285 C  
HETATM    2  N   UNL     1      -9.891  15.577  68.688  1.00  0.00    -0.201 N  
HETATM    3  C   UNL     1     -10.839  15.905  67.540  1.00  0.00    -0.305 C  
HETATM    4  C   UNL     1      -9.105  14.331  68.344  1.00  0.00    -0.194 C  
ENDROOT
BRANCH   2   5
HETATM    5  C   UNL     1      -8.958  16.810  68.861  1.00  0.00    -0.227 C  
BRANCH   5   6
HETATM    6  C   UNL     1      -8.465  17.560  67.592  1.00  0.00    -0.215 C  
HETATM    7  H   UNL     1      -6.887  17.504  66.387  1.00  0.00     0.000 HD 
HETATM    8  O   UNL     1      -7.188  17.046  67.164  1.00  0.00    -0.148 OA 
BRANCH   6   9
HETATM    9  C   UNL     1      -8.393  19.081  67.629  1.00  0.00    -0.314 C  
HETATM   10  C   UNL     1      -7.139  19.517  68.361  1.00  0.00    -0.314 C  
HETATM   11  O   UNL     1      -6.891  18.877  69.416  1.00  0.00    -0.285 OA 
HETATM   12  O   UNL     1      -6.445  20.365  67.740  1.00  0.00    -0.233 OA 
ENDBRANCH   6   9
ENDBRANCH   5   6
ENDBRANCH   2   5
TORSDOF 3
ENDMDL
MODEL      208
REMARK 921   NORMALIZED FREE ENERGY PREDICTED BY IDOCK:   -1.73 KCAL/MOL
REMARK 922        TOTAL FREE ENERGY PREDICTED BY IDOCK:   -2.40 KCAL/MOL
REMARK 923 INTER-LIGAND FREE ENERGY PREDICTED BY IDOCK:   -2.14 KCAL/MOL
REMARK 924 INTRA-LIGAND FREE ENERGY PREDICTED BY IDOCK:   -0.26 KCAL/MOL
REMARK 927      BINDING AFFINITY PREDICTED BY RF-SCORE:    0.00 PKD
ROOT
HETATM    1  C   UNL     1     -10.016   9.069  65.955  1.00  0.00    -0.176 C  
HETATM    2  N   UNL     1      -9.458  10.143  65.034  1.00  0.00    -0.248 N  
HETATM    3  C   UNL     1     -10.638  10.944  64.497  1.00  0.00    -0.265 C  
HETATM    4  C   UNL     1      -8.722   9.502  63.878  1.00  0.00    -0.216 C  
ENDROOT
BRANCH   2   5
HETATM    5  C   UNL     1      -8.550  11.148  65.801  1.00  0.00    -0.113 C  
BRANCH   5   6
HETATM    6  C   UNL     1      -9.131  11.886  67.040  1.00  0.00    -0.191 C  
HETATM    7  H   UNL     1      -9.444  13.765  67.602  1.00  0.00     0.000 HD 
HETATM    8  O   UNL     1      -9.088  13.314  66.845  1.00  0.00    -0.231 OA 
BRANCH   6   9
HETATM    9  C   UNL     1      -8.556  11.563  68.413  1.00  0.00    -0.159 C  
HETATM   10  C   UNL     1      -9.498  10.640  69.160  1.00  0.00    -0.170 C  
HETATM   11  O   UNL     1     -10.716  10.944  69.075  1.00  0.00    -0.199 OA 
HETATM   12  O   UNL     1      -8.946   9.618  69.646  1.00  0.00    -0.171 OA 
ENDBRANCH   6   9
ENDBRANCH   5   6
ENDBRANCH   2   5
TORSDOF 3
ENDMDL
MODEL      209
REMARK 921   NORMALIZED FREE ENERGY PREDICTED BY IDOCK:   -1.72 KCAL/MOL
REMARK 922        TOTAL FREE ENERGY PREDICTED BY IDOCK:   -2.38 KCAL/MOL
REMARK 923 INTER-LIGAND FREE ENERGY PREDICTED BY IDOCK:   -2.16 KCAL/MOL
REMARK 924 INTRA-LIGAND FREE ENERGY PREDICTED BY IDOCK:   -0.23 KCAL/MOL
REMARK 927      BINDING AFFINITY PREDICTED BY RF-SCORE:    0.00 PKD
ROOT
HETATM    1  C   UNL     1      -7.963   6.141  67.992  1.00  0.00    -0.110 C  
HETATM    2  N   UNL     1      -8.261   6.037  69.480  1.00  0.00    -0.113 N  
HETATM    3  C   UNL     1      -7.100   5.291  70.128  1.00  0.00    -0.061 C  
HETATM    4  C   UNL     1      -9.538   5.257  69.700  1.00  0.00    -0.163 C  
ENDROOT
BRANCH   2   5
HETATM    5  C   UNL     1      -8.324   7.438  70.157  1.00  0.00    -0.136 C  
BRANCH   5   6
HETATM    6  C   UNL     1      -9.535   8.362  69.851  1.00  0.00    -0.166 C  
HETATM    7  H   UNL     1      -9.970   9.819  68.572  1.00  0.00     0.000 HD 
HETATM    8  O   UNL     1      -9.229   9.254  68.760  1.00  0.00    -0.135 OA 
BRANCH   6   9
HETATM    9  C   UNL     1     -10.135   9.174  70.992  1.00  0.00    -0.373 C  
HETATM   10  C   UNL     1     -11.253   8.388  71.648  1.00  0.00    -0.278 C  
HETATM   11  O   UNL     1     -12.032   7.806  70.850  1.00  0.00    -0.284 OA 
HETATM   12  O   UNL     1     -11.165   8.311  72.902  1.00  0.00    -0.337 OA 
ENDBRANCH   6   9
ENDBRANCH   5   6
ENDBRANCH   2   5
TORSDOF 3
ENDMDL
MODEL      210
REMARK 921   NORMALIZED FREE ENERGY PREDICTED BY IDOCK:   -1.70 KCAL/MOL
REMARK 922        TOTAL FREE ENERGY PREDICTED BY IDOCK:   -2.36 KCAL/MOL
REMARK 923 INTER-LIGAND FREE ENERGY PREDICTED BY IDOCK:   -2.11 KCAL/MOL
REMARK 924 INTRA-LIGAND FREE ENERGY PREDICTED BY IDOCK:   -0.25 KCAL/MOL
REMARK 927      BINDING AFFINITY PREDICTED BY RF-SCORE:    0.00 PKD
ROOT
HETATM    1  C   UNL     1     -10.526   8.259  69.713  1.00  0.00    -0.220 C  
HETATM    2  N   UNL     1     -10.959   6.938  70.332  1.00  0.00    -0.259 N  
HETATM    3  C   UNL     1     -12.272   7.185  71.066  1.00  0.00    -0.343 C  
HETATM    4  C   UNL     1      -9.917   6.463  71.320  1.00  0.00    -0.182 C  
ENDROOT
BRANCH   2   5
HETATM    5  C   UNL     1     -11.251   5.859  69.248  1.00  0.00    -0.185 C  
BRANCH   5   6
HETATM    6  C   UNL     1     -10.404   5.862  67.944  1.00  0.00    -0.211 C  
HETATM    7  H   UNL     1     -10.724   6.106  65.999  1.00  0.00     0.000 HD 
HETATM    8  O   UNL     1     -11.242   6.105  66.796  1.00  0.00    -0.279 OA 
BRANCH   6   9
HETATM    9  C   UNL     1      -9.515   4.659  67.655  1.00  0.00    -0.186 C  
HETATM   10  C   UNL     1      -8.076   4.990  67.999  1.00  0.00    -0.093 C  
HETATM   11  O   UNL     1      -7.690   6.127  67.625  1.00  0.00    -0.095 OA 
HETATM   12  O   UNL     1      -7.510   4.137  68.733  1.00  0.00    -0.055 OA 
ENDBRANCH   6   9
ENDBRANCH   5   6
ENDBRANCH   2   5
TORSDOF 3
ENDMDL
MODEL      211
REMARK 921   NORMALIZED FREE ENERGY PREDICTED BY IDOCK:   -1.70 KCAL/MOL
REMARK 922        TOTAL FREE ENERGY PREDICTED BY IDOCK:   -2.36 KCAL/MOL
REMARK 923 INTER-LIGAND FREE ENERGY PREDICTED BY IDOCK:   -2.84 KCAL/MOL
REMARK 924 INTRA-LIGAND FREE ENERGY PREDICTED BY IDOCK:    0.48 KCAL/MOL
REMARK 927      BINDING AFFINITY PREDICTED BY RF-SCORE:    0.00 PKD
ROOT
HETATM    1  C   UNL     1      -9.955  15.020  68.349  1.00  0.00    -0.225 C  
HETATM    2  N   UNL     1      -8.586  14.918  67.694  1.00  0.00    -0.165 N  
HETATM    3  C   UNL     1      -8.303  13.440  67.452  1.00  0.00    -0.190 C  
HETATM    4  C   UNL     1      -7.528  15.485  68.614  1.00  0.00    -0.131 C  
ENDROOT
BRANCH   2   5
HETATM    5  C   UNL     1      -8.559  15.610  66.299  1.00  0.00    -0.230 C  
BRANCH   5   6
HETATM    6  C   UNL     1      -8.387  17.154  66.234  1.00  0.00    -0.263 C  
HETATM    7  H   UNL     1      -6.888  18.447  66.074  1.00  0.00     0.000 HD 
HETATM    8  O   UNL     1      -6.993  17.504  66.114  1.00  0.00    -0.265 OA 
BRANCH   6   9
HETATM    9  C   UNL     1      -9.010  18.000  67.337  1.00  0.00    -0.246 C  
HETATM   10  C   UNL     1      -9.937  19.034  66.728  1.00  0.00    -0.360 C  
HETATM   11  O   UNL     1      -9.486  19.615  65.707  1.00  0.00    -0.384 OA 
HETATM   12  O   UNL     1     -11.084  19.070  67.246  1.00  0.00    -0.382 OA 
ENDBRANCH   6   9
ENDBRANCH   5   6
ENDBRANCH   2   5
TORSDOF 3
ENDMDL
MODEL      212
REMARK 921   NORMALIZED FREE ENERGY PREDICTED BY IDOCK:   -1.69 KCAL/MOL
REMARK 922        TOTAL FREE ENERGY PREDICTED BY IDOCK:   -2.35 KCAL/MOL
REMARK 923 INTER-LIGAND FREE ENERGY PREDICTED BY IDOCK:   -2.09 KCAL/MOL
REMARK 924 INTRA-LIGAND FREE ENERGY PREDICTED BY IDOCK:   -0.26 KCAL/MOL
REMARK 927      BINDING AFFINITY PREDICTED BY RF-SCORE:    0.00 PKD
ROOT
HETATM    1  C   UNL     1      -7.828  11.331  67.828  1.00  0.00    -0.115 C  
HETATM    2  N   UNL     1      -9.065  12.208  67.943  1.00  0.00    -0.178 N  
HETATM    3  C   UNL     1      -9.935  11.629  69.053  1.00  0.00     0.019 C  
HETATM    4  C   UNL     1      -9.837  12.188  66.642  1.00  0.00    -0.211 C  
ENDROOT
BRANCH   2   5
HETATM    5  C   UNL     1      -8.707  13.661  68.371  1.00  0.00    -0.153 C  
BRANCH   5   6
HETATM    6  C   UNL     1      -8.599  14.758  67.275  1.00  0.00    -0.212 C  
HETATM    7  H   UNL     1      -7.166  15.580  66.173  1.00  0.00     0.000 HD 
HETATM    8  O   UNL     1      -7.232  14.910  66.843  1.00  0.00    -0.074 OA 
BRANCH   6   9
HETATM    9  C   UNL     1      -9.174  16.137  67.570  1.00  0.00    -0.210 C  
HETATM   10  C   UNL     1     -10.688  16.064  67.609  1.00  0.00    -0.320 C  
HETATM   11  O   UNL     1     -11.209  15.379  66.691  1.00  0.00    -0.284 OA 
HETATM   12  O   UNL     1     -11.206  16.584  68.633  1.00  0.00    -0.353 OA 
ENDBRANCH   6   9
ENDBRANCH   5   6
ENDBRANCH   2   5
TORSDOF 3
ENDMDL
MODEL      213
REMARK 921   NORMALIZED FREE ENERGY PREDICTED BY IDOCK:   -1.68 KCAL/MOL
REMARK 922        TOTAL FREE ENERGY PREDICTED BY IDOCK:   -2.34 KCAL/MOL
REMARK 923 INTER-LIGAND FREE ENERGY PREDICTED BY IDOCK:   -2.82 KCAL/MOL
REMARK 924 INTRA-LIGAND FREE ENERGY PREDICTED BY IDOCK:    0.48 KCAL/MOL
REMARK 927      BINDING AFFINITY PREDICTED BY RF-SCORE:    0.00 PKD
ROOT
HETATM    1  C   UNL     1      -8.339  10.507  67.541  1.00  0.00    -0.118 C  
HETATM    2  N   UNL     1      -9.542   9.659  67.155  1.00  0.00    -0.161 N  
HETATM    3  C   UNL     1      -9.549   8.435  68.063  1.00  0.00    -0.149 C  
HETATM    4  C   UNL     1      -9.420   9.212  65.715  1.00  0.00    -0.254 C  
ENDROOT
BRANCH   2   5
HETATM    5  C   UNL     1     -10.883  10.409  67.408  1.00  0.00    -0.286 C  
BRANCH   5   6
HETATM    6  C   UNL     1     -11.053  11.848  66.847  1.00  0.00    -0.305 C  
HETATM    7  H   UNL     1     -10.465  12.867  65.247  1.00  0.00     0.000 HD 
HETATM    8  O   UNL     1     -10.361  11.987  65.590  1.00  0.00    -0.237 OA 
BRANCH   6   9
HETATM    9  C   UNL     1     -10.680  13.024  67.742  1.00  0.00    -0.242 C  
HETATM   10  C   UNL     1     -11.876  13.939  67.911  1.00  0.00    -0.378 C  
HETATM   11  O   UNL     1     -12.522  14.168  66.856  1.00  0.00    -0.359 OA 
HETATM   12  O   UNL     1     -12.139  14.232  69.108  1.00  0.00    -0.329 OA 
ENDBRANCH   6   9
ENDBRANCH   5   6
ENDBRANCH   2   5
TORSDOF 3
ENDMDL
MODEL      214
REMARK 921   NORMALIZED FREE ENERGY PREDICTED BY IDOCK:   -1.64 KCAL/MOL
REMARK 922        TOTAL FREE ENERGY PREDICTED BY IDOCK:   -2.29 KCAL/MOL
REMARK 923 INTER-LIGAND FREE ENERGY PREDICTED BY IDOCK:   -2.00 KCAL/MOL
REMARK 924 INTRA-LIGAND FREE ENERGY PREDICTED BY IDOCK:   -0.28 KCAL/MOL
REMARK 927      BINDING AFFINITY PREDICTED BY RF-SCORE:    0.00 PKD
ROOT
HETATM    1  C   UNL     1      -8.456   5.063  69.936  1.00  0.00    -0.088 C  
HETATM    2  N   UNL     1      -8.234   6.332  70.745  1.00  0.00    -0.123 N  
HETATM    3  C   UNL     1      -8.063   7.481  69.758  1.00  0.00    -0.126 C  
HETATM    4  C   UNL     1      -6.978   6.201  71.579  1.00  0.00    -0.076 C  
ENDROOT
BRANCH   2   5
HETATM    5  C   UNL     1      -9.470   6.680  71.626  1.00  0.00    -0.159 C  
BRANCH   5   6
HETATM    6  C   UNL     1     -10.701   5.732  71.595  1.00  0.00    -0.256 C  
HETATM    7  H   UNL     1     -12.553   5.772  70.880  1.00  0.00     0.000 HD 
HETATM    8  O   UNL     1     -11.800   6.352  70.899  1.00  0.00    -0.350 OA 
BRANCH   6   9
HETATM    9  C   UNL     1     -11.213   5.166  72.913  1.00  0.00    -0.362 C  
HETATM   10  C   UNL     1     -10.428   3.921  73.277  1.00  0.00    -0.177 C  
HETATM   11  O   UNL     1     -10.220   3.128  72.323  1.00  0.00    -0.161 OA 
HETATM   12  O   UNL     1      -9.974   3.920  74.451  1.00  0.00    -0.126 OA 
ENDBRANCH   6   9
ENDBRANCH   5   6
ENDBRANCH   2   5
TORSDOF 3
ENDMDL
MODEL      215
REMARK 921   NORMALIZED FREE ENERGY PREDICTED BY IDOCK:   -1.63 KCAL/MOL
REMARK 922        TOTAL FREE ENERGY PREDICTED BY IDOCK:   -2.27 KCAL/MOL
REMARK 923 INTER-LIGAND FREE ENERGY PREDICTED BY IDOCK:   -2.02 KCAL/MOL
REMARK 924 INTRA-LIGAND FREE ENERGY PREDICTED BY IDOCK:   -0.25 KCAL/MOL
REMARK 927      BINDING AFFINITY PREDICTED BY RF-SCORE:    0.00 PKD
ROOT
HETATM    1  C   UNL     1      -9.303   9.342  70.575  1.00  0.00    -0.262 C  
HETATM    2  N   UNL     1      -7.921   8.991  70.045  1.00  0.00    -0.101 N  
HETATM    3  C   UNL     1      -6.932   9.170  71.190  1.00  0.00    -0.081 C  
HETATM    4  C   UNL     1      -7.548   9.923  68.913  1.00  0.00    -0.083 C  
ENDROOT
BRANCH   2   5
HETATM    5  C   UNL     1      -7.831   7.499  69.608  1.00  0.00    -0.119 C  
BRANCH   5   6
HETATM    6  C   UNL     1      -8.704   6.449  70.349  1.00  0.00    -0.147 C  
HETATM    7  H   UNL     1      -8.452   5.089  71.775  1.00  0.00     0.000 HD 
HETATM    8  O   UNL     1      -7.918   5.731  71.321  1.00  0.00    -0.108 OA 
BRANCH   6   9
HETATM    9  C   UNL     1      -9.491   5.443  69.518  1.00  0.00    -0.182 C  
HETATM   10  C   UNL     1     -10.789   6.069  69.049  1.00  0.00    -0.342 C  
HETATM   11  O   UNL     1     -11.401   6.738  69.921  1.00  0.00    -0.315 OA 
HETATM   12  O   UNL     1     -11.005   5.949  67.814  1.00  0.00    -0.279 OA 
ENDBRANCH   6   9
ENDBRANCH   5   6
ENDBRANCH   2   5
TORSDOF 3
ENDMDL
MODEL      216
REMARK 921   NORMALIZED FREE ENERGY PREDICTED BY IDOCK:   -1.62 KCAL/MOL
REMARK 922        TOTAL FREE ENERGY PREDICTED BY IDOCK:   -2.27 KCAL/MOL
REMARK 923 INTER-LIGAND FREE ENERGY PREDICTED BY IDOCK:   -2.70 KCAL/MOL
REMARK 924 INTRA-LIGAND FREE ENERGY PREDICTED BY IDOCK:    0.43 KCAL/MOL
REMARK 927      BINDING AFFINITY PREDICTED BY RF-SCORE:    0.00 PKD
ROOT
HETATM    1  C   UNL     1      -9.363  15.004  66.610  1.00  0.00    -0.266 C  
HETATM    2  N   UNL     1      -8.606  16.136  67.289  1.00  0.00    -0.171 N  
HETATM    3  C   UNL     1      -7.117  15.850  67.131  1.00  0.00    -0.204 C  
HETATM    4  C   UNL     1      -8.952  16.180  68.761  1.00  0.00    -0.236 C  
ENDROOT
BRANCH   2   5
HETATM    5  C   UNL     1      -8.873  17.506  66.599  1.00  0.00    -0.262 C  
BRANCH   5   6
HETATM    6  C   UNL     1      -7.957  18.711  66.951  1.00  0.00    -0.242 C  
HETATM    7  H   UNL     1      -7.574  19.835  68.543  1.00  0.00     0.000 HD 
HETATM    8  O   UNL     1      -8.135  19.098  68.328  1.00  0.00    -0.304 OA 
BRANCH   6   9
HETATM    9  C   UNL     1      -8.032  19.958  66.079  1.00  0.00    -0.328 C  
HETATM   10  C   UNL     1      -6.712  20.701  66.131  1.00  0.00    -0.214 C  
HETATM   11  O   UNL     1      -6.203  20.799  67.278  1.00  0.00    -0.216 OA 
HETATM   12  O   UNL     1      -6.238  20.996  65.002  1.00  0.00    -0.257 OA 
ENDBRANCH   6   9
ENDBRANCH   5   6
ENDBRANCH   2   5
TORSDOF 3
ENDMDL
MODEL      217
REMARK 921   NORMALIZED FREE ENERGY PREDICTED BY IDOCK:   -1.59 KCAL/MOL
REMARK 922        TOTAL FREE ENERGY PREDICTED BY IDOCK:   -2.23 KCAL/MOL
REMARK 923 INTER-LIGAND FREE ENERGY PREDICTED BY IDOCK:   -2.12 KCAL/MOL
REMARK 924 INTRA-LIGAND FREE ENERGY PREDICTED BY IDOCK:   -0.10 KCAL/MOL
REMARK 927      BINDING AFFINITY PREDICTED BY RF-SCORE:    0.00 PKD
ROOT
HETATM    1  C   UNL     1     -10.773  15.111  70.197  1.00  0.00    -0.221 C  
HETATM    2  N   UNL     1     -10.964  14.454  68.838  1.00  0.00    -0.247 N  
HETATM    3  C   UNL     1     -11.526  15.510  67.894  1.00  0.00    -0.272 C  
HETATM    4  C   UNL     1     -11.947  13.310  68.950  1.00  0.00    -0.297 C  
ENDROOT
BRANCH   2   5
HETATM    5  C   UNL     1      -9.611  13.985  68.227  1.00  0.00    -0.224 C  
BRANCH   5   6
HETATM    6  C   UNL     1      -8.308  14.724  68.640  1.00  0.00    -0.165 C  
HETATM    7  H   UNL     1      -7.279  16.313  68.036  1.00  0.00     0.000 HD 
HETATM    8  O   UNL     1      -8.076  15.860  67.783  1.00  0.00    -0.138 OA 
BRANCH   6   9
HETATM    9  C   UNL     1      -7.018  13.919  68.743  1.00  0.00    -0.108 C  
HETATM   10  C   UNL     1      -6.294  14.273  70.027  1.00  0.00    -0.150 C  
HETATM   11  O   UNL     1      -6.258  15.502  70.294  1.00  0.00    -0.137 OA 
HETATM   12  O   UNL     1      -5.950  13.278  70.718  1.00  0.00    -0.164 OA 
ENDBRANCH   6   9
ENDBRANCH   5   6
ENDBRANCH   2   5
TORSDOF 3
ENDMDL
MODEL      218
REMARK 921   NORMALIZED FREE ENERGY PREDICTED BY IDOCK:   -1.58 KCAL/MOL
REMARK 922        TOTAL FREE ENERGY PREDICTED BY IDOCK:   -2.22 KCAL/MOL
REMARK 923 INTER-LIGAND FREE ENERGY PREDICTED BY IDOCK:   -2.13 KCAL/MOL
REMARK 924 INTRA-LIGAND FREE ENERGY PREDICTED BY IDOCK:   -0.09 KCAL/MOL
REMARK 927      BINDING AFFINITY PREDICTED BY RF-SCORE:    0.00 PKD
ROOT
HETATM    1  C   UNL     1      -9.296   8.625  71.172  1.00  0.00    -0.216 C  
HETATM    2  N   UNL     1     -10.764   8.388  70.853  1.00  0.00    -0.217 N  
HETATM    3  C   UNL     1     -11.523   9.658  71.219  1.00  0.00    -0.392 C  
HETATM    4  C   UNL     1     -11.293   7.235  71.678  1.00  0.00    -0.254 C  
ENDROOT
BRANCH   2   5
HETATM    5  C   UNL     1     -10.995   8.153  69.331  1.00  0.00    -0.002 C  
BRANCH   5   6
HETATM    6  C   UNL     1     -10.528   9.245  68.328  1.00  0.00    -0.215 C  
HETATM    7  H   UNL     1     -11.320  10.823  67.419  1.00  0.00     0.000 HD 
HETATM    8  O   UNL     1     -11.606  10.155  68.032  1.00  0.00    -0.253 OA 
BRANCH   6   9
HETATM    9  C   UNL     1      -9.891   8.800  67.018  1.00  0.00    -0.279 C  
HETATM   10  C   UNL     1      -8.384   8.938  67.107  1.00  0.00    -0.103 C  
HETATM   11  O   UNL     1      -7.980  10.003  67.641  1.00  0.00    -0.105 OA 
HETATM   12  O   UNL     1      -7.748   7.907  66.761  1.00  0.00    -0.095 OA 
ENDBRANCH   6   9
ENDBRANCH   5   6
ENDBRANCH   2   5
TORSDOF 3
ENDMDL
MODEL      219
REMARK 921   NORMALIZED FREE ENERGY PREDICTED BY IDOCK:   -1.57 KCAL/MOL
REMARK 922        TOTAL FREE ENERGY PREDICTED BY IDOCK:   -2.21 KCAL/MOL
REMARK 923 INTER-LIGAND FREE ENERGY PREDICTED BY IDOCK:   -2.54 KCAL/MOL
REMARK 924 INTRA-LIGAND FREE ENERGY PREDICTED BY IDOCK:    0.33 KCAL/MOL
REMARK 927      BINDING AFFINITY PREDICTED BY RF-SCORE:    0.00 PKD
ROOT
HETATM    1  C   UNL     1     -10.371  18.170  68.436  1.00  0.00    -0.356 C  
HETATM    2  N   UNL     1      -8.928  18.249  67.961  1.00  0.00    -0.283 N  
HETATM    3  C   UNL     1      -8.221  19.295  68.816  1.00  0.00    -0.355 C  
HETATM    4  C   UNL     1      -8.883  18.677  66.511  1.00  0.00    -0.304 C  
ENDROOT
BRANCH   2   5
HETATM    5  C   UNL     1      -8.171  16.906  68.183  1.00  0.00    -0.207 C  
BRANCH   5   6
HETATM    6  C   UNL     1      -8.984  15.581  68.180  1.00  0.00    -0.179 C  
HETATM    7  H   UNL     1      -9.324  14.078  69.433  1.00  0.00     0.000 HD 
HETATM    8  O   UNL     1      -8.827  14.888  69.435  1.00  0.00    -0.149 OA 
BRANCH   6   9
HETATM    9  C   UNL     1      -8.756  14.593  67.044  1.00  0.00    -0.258 C  
HETATM   10  C   UNL     1      -7.537  13.742  67.340  1.00  0.00    -0.137 C  
HETATM   11  O   UNL     1      -6.548  14.373  67.795  1.00  0.00    -0.153 OA 
HETATM   12  O   UNL     1      -7.728  12.503  67.221  1.00  0.00    -0.159 OA 
ENDBRANCH   6   9
ENDBRANCH   5   6
ENDBRANCH   2   5
TORSDOF 3
ENDMDL
MODEL      220
REMARK 921   NORMALIZED FREE ENERGY PREDICTED BY IDOCK:   -1.57 KCAL/MOL
REMARK 922        TOTAL FREE ENERGY PREDICTED BY IDOCK:   -2.21 KCAL/MOL
REMARK 923 INTER-LIGAND FREE ENERGY PREDICTED BY IDOCK:   -2.56 KCAL/MOL
REMARK 924 INTRA-LIGAND FREE ENERGY PREDICTED BY IDOCK:    0.35 KCAL/MOL
REMARK 927      BINDING AFFINITY PREDICTED BY RF-SCORE:    0.00 PKD
ROOT
HETATM    1  C   UNL     1     -11.734   8.907  71.086  1.00  0.00    -0.298 C  
HETATM    2  N   UNL     1     -11.937   7.478  71.565  1.00  0.00    -0.294 N  
HETATM    3  C   UNL     1     -13.437   7.257  71.724  1.00  0.00    -0.300 C  
HETATM    4  C   UNL     1     -11.259   7.278  72.903  1.00  0.00    -0.292 C  
ENDROOT
BRANCH   2   5
HETATM    5  C   UNL     1     -11.442   6.440  70.515  1.00  0.00    -0.379 C  
BRANCH   5   6
HETATM    6  C   UNL     1     -10.766   6.957  69.215  1.00  0.00    -0.238 C  
HETATM    7  H   UNL     1     -10.837   6.547  67.272  1.00  0.00     0.000 HD 
HETATM    8  O   UNL     1     -11.250   6.231  68.068  1.00  0.00    -0.323 OA 
BRANCH   6   9
HETATM    9  C   UNL     1      -9.244   7.003  69.157  1.00  0.00    -0.138 C  
HETATM   10  C   UNL     1      -8.702   5.631  68.804  1.00  0.00    -0.106 C  
HETATM   11  O   UNL     1      -9.253   4.673  69.405  1.00  0.00    -0.100 OA 
HETATM   12  O   UNL     1      -7.873   5.630  67.857  1.00  0.00    -0.095 OA 
ENDBRANCH   6   9
ENDBRANCH   5   6
ENDBRANCH   2   5
TORSDOF 3
ENDMDL
MODEL      221
REMARK 921   NORMALIZED FREE ENERGY PREDICTED BY IDOCK:   -1.56 KCAL/MOL
REMARK 922        TOTAL FREE ENERGY PREDICTED BY IDOCK:   -2.20 KCAL/MOL
REMARK 923 INTER-LIGAND FREE ENERGY PREDICTED BY IDOCK:   -2.25 KCAL/MOL
REMARK 924 INTRA-LIGAND FREE ENERGY PREDICTED BY IDOCK:    0.05 KCAL/MOL
REMARK 927      BINDING AFFINITY PREDICTED BY RF-SCORE:    0.00 PKD
ROOT
HETATM    1  C   UNL     1      -6.461  16.628  70.023  1.00  0.00     0.099 C  
HETATM    2  N   UNL     1      -6.691  16.025  68.645  1.00  0.00    -0.121 N  
HETATM    3  C   UNL     1      -8.185  15.756  68.506  1.00  0.00    -0.166 C  
HETATM    4  C   UNL     1      -5.935  14.721  68.518  1.00  0.00    -0.096 C  
ENDROOT
BRANCH   2   5
HETATM    5  C   UNL     1      -6.310  17.018  67.508  1.00  0.00    -0.149 C  
BRANCH   5   6
HETATM    6  C   UNL     1      -7.444  17.790  66.778  1.00  0.00    -0.211 C  
HETATM    7  H   UNL     1      -8.652  17.486  65.231  1.00  0.00     0.000 HD 
HETATM    8  O   UNL     1      -7.958  17.014  65.677  1.00  0.00    -0.318 OA 
BRANCH   6   9
HETATM    9  C   UNL     1      -7.160  19.204  66.288  1.00  0.00    -0.258 C  
HETATM   10  C   UNL     1      -8.031  20.192  67.039  1.00  0.00    -0.323 C  
HETATM   11  O   UNL     1      -9.228  19.837  67.188  1.00  0.00    -0.313 OA 
HETATM   12  O   UNL     1      -7.403  21.167  67.530  1.00  0.00    -0.391 OA 
ENDBRANCH   6   9
ENDBRANCH   5   6
ENDBRANCH   2   5
TORSDOF 3
ENDMDL
MODEL      222
REMARK 921   NORMALIZED FREE ENERGY PREDICTED BY IDOCK:   -1.56 KCAL/MOL
REMARK 922        TOTAL FREE ENERGY PREDICTED BY IDOCK:   -2.19 KCAL/MOL
REMARK 923 INTER-LIGAND FREE ENERGY PREDICTED BY IDOCK:   -1.88 KCAL/MOL
REMARK 924 INTRA-LIGAND FREE ENERGY PREDICTED BY IDOCK:   -0.31 KCAL/MOL
REMARK 927      BINDING AFFINITY PREDICTED BY RF-SCORE:    0.00 PKD
ROOT
HETATM    1  C   UNL     1      -7.497   3.706  71.974  1.00  0.00    -0.057 C  
HETATM    2  N   UNL     1      -7.958   5.086  71.531  1.00  0.00    -0.109 N  
HETATM    3  C   UNL     1      -7.214   5.427  70.245  1.00  0.00    -0.066 C  
HETATM    4  C   UNL     1      -7.617   6.110  72.591  1.00  0.00    -0.101 C  
ENDROOT
BRANCH   2   5
HETATM    5  C   UNL     1      -9.476   5.107  71.187  1.00  0.00    -0.153 C  
BRANCH   5   6
HETATM    6  C   UNL     1     -10.295   6.391  71.495  1.00  0.00    -0.207 C  
HETATM    7  H   UNL     1     -12.119   6.836  72.144  1.00  0.00     0.000 HD 
HETATM    8  O   UNL     1     -11.618   6.050  71.955  1.00  0.00    -0.295 OA 
BRANCH   6   9
HETATM    9  C   UNL     1     -10.414   7.453  70.409  1.00  0.00    -0.230 C  
HETATM   10  C   UNL     1      -9.696   8.715  70.844  1.00  0.00    -0.204 C  
HETATM   11  O   UNL     1      -9.895   9.053  72.040  1.00  0.00    -0.311 OA 
HETATM   12  O   UNL     1      -8.890   9.173  69.992  1.00  0.00    -0.151 OA 
ENDBRANCH   6   9
ENDBRANCH   5   6
ENDBRANCH   2   5
TORSDOF 3
ENDMDL
MODEL      223
REMARK 921   NORMALIZED FREE ENERGY PREDICTED BY IDOCK:   -1.55 KCAL/MOL
REMARK 922        TOTAL FREE ENERGY PREDICTED BY IDOCK:   -2.19 KCAL/MOL
REMARK 923 INTER-LIGAND FREE ENERGY PREDICTED BY IDOCK:   -2.83 KCAL/MOL
REMARK 924 INTRA-LIGAND FREE ENERGY PREDICTED BY IDOCK:    0.64 KCAL/MOL
REMARK 927      BINDING AFFINITY PREDICTED BY RF-SCORE:    0.00 PKD
ROOT
HETATM    1  C   UNL     1      -9.997  15.343  65.992  1.00  0.00    -0.324 C  
HETATM    2  N   UNL     1      -8.869  15.733  66.935  1.00  0.00    -0.224 N  
HETATM    3  C   UNL     1      -8.076  14.469  67.248  1.00  0.00    -0.196 C  
HETATM    4  C   UNL     1      -9.440  16.293  68.220  1.00  0.00    -0.214 C  
ENDROOT
BRANCH   2   5
HETATM    5  C   UNL     1      -7.876  16.730  66.269  1.00  0.00    -0.299 C  
BRANCH   5   6
HETATM    6  C   UNL     1      -6.618  17.176  67.066  1.00  0.00    -0.192 C  
HETATM    7  H   UNL     1      -4.849  16.409  67.545  1.00  0.00     0.000 HD 
HETATM    8  O   UNL     1      -5.619  16.136  67.058  1.00  0.00    -0.337 OA 
BRANCH   6   9
HETATM    9  C   UNL     1      -6.801  17.667  68.496  1.00  0.00    -0.223 C  
HETATM   10  C   UNL     1      -6.990  19.171  68.502  1.00  0.00    -0.283 C  
HETATM   11  O   UNL     1      -6.213  19.806  67.743  1.00  0.00    -0.201 OA 
HETATM   12  O   UNL     1      -7.990  19.565  69.159  1.00  0.00    -0.336 OA 
ENDBRANCH   6   9
ENDBRANCH   5   6
ENDBRANCH   2   5
TORSDOF 3
ENDMDL
MODEL      224
REMARK 921   NORMALIZED FREE ENERGY PREDICTED BY IDOCK:   -1.55 KCAL/MOL
REMARK 922        TOTAL FREE ENERGY PREDICTED BY IDOCK:   -2.19 KCAL/MOL
REMARK 923 INTER-LIGAND FREE ENERGY PREDICTED BY IDOCK:   -2.03 KCAL/MOL
REMARK 924 INTRA-LIGAND FREE ENERGY PREDICTED BY IDOCK:   -0.16 KCAL/MOL
REMARK 927      BINDING AFFINITY PREDICTED BY RF-SCORE:    0.00 PKD
ROOT
HETATM    1  C   UNL     1     -10.479   3.118  72.970  1.00  0.00    -0.163 C  
HETATM    2  N   UNL     1      -9.745   3.956  71.934  1.00  0.00    -0.160 N  
HETATM    3  C   UNL     1      -9.495   3.067  70.721  1.00  0.00    -0.158 C  
HETATM    4  C   UNL     1      -8.419   4.425  72.491  1.00  0.00    -0.109 C  
ENDROOT
BRANCH   2   5
HETATM    5  C   UNL     1     -10.611   5.152  71.439  1.00  0.00    -0.137 C  
BRANCH   5   6
HETATM    6  C   UNL     1     -10.058   6.053  70.299  1.00  0.00    -0.194 C  
HETATM    7  H   UNL     1      -9.295   7.878  70.124  1.00  0.00     0.000 HD 
HETATM    8  O   UNL     1      -9.633   7.327  70.821  1.00  0.00    -0.171 OA 
BRANCH   6   9
HETATM    9  C   UNL     1     -10.934   6.293  69.076  1.00  0.00    -0.437 C  
HETATM   10  C   UNL     1     -10.140   6.021  67.814  1.00  0.00    -0.156 C  
HETATM   11  O   UNL     1      -8.969   6.482  67.815  1.00  0.00    -0.117 OA 
HETATM   12  O   UNL     1     -10.712   5.253  66.996  1.00  0.00    -0.229 OA 
ENDBRANCH   6   9
ENDBRANCH   5   6
ENDBRANCH   2   5
TORSDOF 3
ENDMDL
MODEL      225
REMARK 921   NORMALIZED FREE ENERGY PREDICTED BY IDOCK:   -1.55 KCAL/MOL
REMARK 922        TOTAL FREE ENERGY PREDICTED BY IDOCK:   -2.18 KCAL/MOL
REMARK 923 INTER-LIGAND FREE ENERGY PREDICTED BY IDOCK:   -1.97 KCAL/MOL
REMARK 924 INTRA-LIGAND FREE ENERGY PREDICTED BY IDOCK:   -0.22 KCAL/MOL
REMARK 927      BINDING AFFINITY PREDICTED BY RF-SCORE:    0.00 PKD
ROOT
HETATM    1  C   UNL     1      -8.881   7.820  71.602  1.00  0.00    -0.118 C  
HETATM    2  N   UNL     1     -10.131   8.315  70.890  1.00  0.00    -0.188 N  
HETATM    3  C   UNL     1     -11.041   8.938  71.942  1.00  0.00    -0.372 C  
HETATM    4  C   UNL     1     -10.847   7.155  70.235  1.00  0.00    -0.249 C  
ENDROOT
BRANCH   2   5
HETATM    5  C   UNL     1      -9.805   9.438  69.862  1.00  0.00    -0.210 C  
BRANCH   5   6
HETATM    6  C   UNL     1      -8.830   9.122  68.693  1.00  0.00    -0.133 C  
HETATM    7  H   UNL     1      -7.264   9.984  67.828  1.00  0.00     0.000 HD 
HETATM    8  O   UNL     1      -7.860  10.177  68.543  1.00  0.00    -0.090 OA 
BRANCH   6   9
HETATM    9  C   UNL     1      -9.418   8.799  67.325  1.00  0.00    -0.200 C  
HETATM   10  C   UNL     1      -9.049   7.384  66.929  1.00  0.00    -0.141 C  
HETATM   11  O   UNL     1      -7.855   7.062  67.161  1.00  0.00    -0.106 OA 
HETATM   12  O   UNL     1     -10.024   6.681  66.551  1.00  0.00    -0.159 OA 
ENDBRANCH   6   9
ENDBRANCH   5   6
ENDBRANCH   2   5
TORSDOF 3
ENDMDL
MODEL      226
REMARK 921   NORMALIZED FREE ENERGY PREDICTED BY IDOCK:   -1.54 KCAL/MOL
REMARK 922        TOTAL FREE ENERGY PREDICTED BY IDOCK:   -2.17 KCAL/MOL
REMARK 923 INTER-LIGAND FREE ENERGY PREDICTED BY IDOCK:   -2.53 KCAL/MOL
REMARK 924 INTRA-LIGAND FREE ENERGY PREDICTED BY IDOCK:    0.36 KCAL/MOL
REMARK 927      BINDING AFFINITY PREDICTED BY RF-SCORE:    0.00 PKD
ROOT
HETATM    1  C   UNL     1      -6.799  13.495  68.671  1.00  0.00    -0.098 C  
HETATM    2  N   UNL     1      -7.274  12.367  67.767  1.00  0.00    -0.107 N  
HETATM    3  C   UNL     1      -7.852  11.276  68.660  1.00  0.00    -0.139 C  
HETATM    4  C   UNL     1      -6.108  11.805  66.984  1.00  0.00    -0.152 C  
ENDROOT
BRANCH   2   5
HETATM    5  C   UNL     1      -8.425  12.828  66.824  1.00  0.00    -0.029 C  
BRANCH   5   6
HETATM    6  C   UNL     1      -9.164  14.157  67.142  1.00  0.00    -0.231 C  
HETATM    7  H   UNL     1     -10.920  14.705  67.890  1.00  0.00     0.000 HD 
HETATM    8  O   UNL     1     -10.468  13.892  67.695  1.00  0.00    -0.242 OA 
BRANCH   6   9
HETATM    9  C   UNL     1      -9.305  15.192  66.032  1.00  0.00    -0.326 C  
HETATM   10  C   UNL     1     -10.302  14.704  64.999  1.00  0.00    -0.402 C  
HETATM   11  O   UNL     1     -10.186  13.492  64.681  1.00  0.00    -0.387 OA 
HETATM   12  O   UNL     1     -11.196  15.541  64.707  1.00  0.00    -0.422 OA 
ENDBRANCH   6   9
ENDBRANCH   5   6
ENDBRANCH   2   5
TORSDOF 3
ENDMDL
MODEL      227
REMARK 921   NORMALIZED FREE ENERGY PREDICTED BY IDOCK:   -1.54 KCAL/MOL
REMARK 922        TOTAL FREE ENERGY PREDICTED BY IDOCK:   -2.17 KCAL/MOL
REMARK 923 INTER-LIGAND FREE ENERGY PREDICTED BY IDOCK:   -2.08 KCAL/MOL
REMARK 924 INTRA-LIGAND FREE ENERGY PREDICTED BY IDOCK:   -0.09 KCAL/MOL
REMARK 927      BINDING AFFINITY PREDICTED BY RF-SCORE:    0.00 PKD
ROOT
HETATM    1  C   UNL     1      -8.973   6.695  66.271  1.00  0.00    -0.152 C  
HETATM    2  N   UNL     1      -9.717   5.547  66.935  1.00  0.00    -0.139 N  
HETATM    3  C   UNL     1      -8.687   4.697  67.669  1.00  0.00    -0.104 C  
HETATM    4  C   UNL     1     -10.406   4.701  65.886  1.00  0.00    -0.283 C  
ENDROOT
BRANCH   2   5
HETATM    5  C   UNL     1     -10.724   6.054  68.009  1.00  0.00    -0.282 C  
BRANCH   5   6
HETATM    6  C   UNL     1     -10.168   6.711  69.303  1.00  0.00    -0.183 C  
HETATM    7  H   UNL     1      -9.873   6.182  71.195  1.00  0.00     0.000 HD 
HETATM    8  O   UNL     1     -10.213   5.780  70.404  1.00  0.00    -0.194 OA 
BRANCH   6   9
HETATM    9  C   UNL     1     -10.765   8.036  69.759  1.00  0.00    -0.231 C  
HETATM   10  C   UNL     1      -9.672   9.080  69.872  1.00  0.00    -0.183 C  
HETATM   11  O   UNL     1      -8.611   8.680  70.418  1.00  0.00    -0.134 OA 
HETATM   12  O   UNL     1      -9.926  10.162  69.280  1.00  0.00    -0.195 OA 
ENDBRANCH   6   9
ENDBRANCH   5   6
ENDBRANCH   2   5
TORSDOF 3
ENDMDL
MODEL      228
REMARK 921   NORMALIZED FREE ENERGY PREDICTED BY IDOCK:   -1.54 KCAL/MOL
REMARK 922        TOTAL FREE ENERGY PREDICTED BY IDOCK:   -2.17 KCAL/MOL
REMARK 923 INTER-LIGAND FREE ENERGY PREDICTED BY IDOCK:   -1.84 KCAL/MOL
REMARK 924 INTRA-LIGAND FREE ENERGY PREDICTED BY IDOCK:   -0.33 KCAL/MOL
REMARK 927      BINDING AFFINITY PREDICTED BY RF-SCORE:    0.00 PKD
ROOT
HETATM    1  C   UNL     1      -7.994   6.907  67.154  1.00  0.00    -0.113 C  
HETATM    2  N   UNL     1      -8.829   8.132  67.493  1.00  0.00    -0.134 N  
HETATM    3  C   UNL     1     -10.286   7.787  67.207  1.00  0.00    -0.301 C  
HETATM    4  C   UNL     1      -8.413   9.299  66.625  1.00  0.00    -0.126 C  
ENDROOT
BRANCH   2   5
HETATM    5  C   UNL     1      -8.745   8.489  69.007  1.00  0.00    -0.134 C  
BRANCH   5   6
HETATM    6  C   UNL     1      -8.687   9.986  69.420  1.00  0.00    -0.186 C  
HETATM    7  H   UNL     1      -7.576  11.129  70.605  1.00  0.00     0.000 HD 
HETATM    8  O   UNL     1      -7.612  10.213  70.352  1.00  0.00    -0.249 OA 
BRANCH   6   9
HETATM    9  C   UNL     1      -9.952  10.638  69.964  1.00  0.00     0.254 C  
HETATM   10  C   UNL     1     -10.707  11.314  68.837  1.00  0.00    -0.207 C  
HETATM   11  O   UNL     1      -9.991  11.968  68.037  1.00  0.00    -0.185 OA 
HETATM   12  O   UNL     1     -11.929  11.013  68.778  1.00  0.00    -0.457 OA 
ENDBRANCH   6   9
ENDBRANCH   5   6
ENDBRANCH   2   5
TORSDOF 3
ENDMDL
MODEL      229
REMARK 921   NORMALIZED FREE ENERGY PREDICTED BY IDOCK:   -1.53 KCAL/MOL
REMARK 922        TOTAL FREE ENERGY PREDICTED BY IDOCK:   -2.16 KCAL/MOL
REMARK 923 INTER-LIGAND FREE ENERGY PREDICTED BY IDOCK:   -2.53 KCAL/MOL
REMARK 924 INTRA-LIGAND FREE ENERGY PREDICTED BY IDOCK:    0.36 KCAL/MOL
REMARK 927      BINDING AFFINITY PREDICTED BY RF-SCORE:    0.00 PKD
ROOT
HETATM    1  C   UNL     1     -10.482   9.206  70.913  1.00  0.00    -0.278 C  
HETATM    2  N   UNL     1      -9.942   9.259  69.492  1.00  0.00    -0.179 N  
HETATM    3  C   UNL     1      -8.631  10.035  69.529  1.00  0.00    -0.186 C  
HETATM    4  C   UNL     1     -10.922   9.978  68.592  1.00  0.00    -0.204 C  
ENDROOT
BRANCH   2   5
HETATM    5  C   UNL     1      -9.604   7.839  68.948  1.00  0.00    -0.154 C  
BRANCH   5   6
HETATM    6  C   UNL     1     -10.773   6.881  68.584  1.00  0.00    -0.216 C  
HETATM    7  H   UNL     1     -11.347   5.039  69.055  1.00  0.00     0.000 HD 
HETATM    8  O   UNL     1     -10.633   5.625  69.277  1.00  0.00    -0.267 OA 
BRANCH   6   9
HETATM    9  C   UNL     1     -11.048   6.599  67.112  1.00  0.00    -0.427 C  
HETATM   10  C   UNL     1     -10.042   5.595  66.585  1.00  0.00    -0.198 C  
HETATM   11  O   UNL     1      -8.854   5.795  66.947  1.00  0.00    -0.114 OA 
HETATM   12  O   UNL     1     -10.554   4.621  65.974  1.00  0.00    -0.302 OA 
ENDBRANCH   6   9
ENDBRANCH   5   6
ENDBRANCH   2   5
TORSDOF 3
ENDMDL
MODEL      230
REMARK 921   NORMALIZED FREE ENERGY PREDICTED BY IDOCK:   -1.53 KCAL/MOL
REMARK 922        TOTAL FREE ENERGY PREDICTED BY IDOCK:   -2.16 KCAL/MOL
REMARK 923 INTER-LIGAND FREE ENERGY PREDICTED BY IDOCK:   -1.80 KCAL/MOL
REMARK 924 INTRA-LIGAND FREE ENERGY PREDICTED BY IDOCK:   -0.36 KCAL/MOL
REMARK 927      BINDING AFFINITY PREDICTED BY RF-SCORE:    0.00 PKD
ROOT
HETATM    1  C   UNL     1     -10.183   8.552  69.418  1.00  0.00    -0.211 C  
HETATM    2  N   UNL     1      -9.992   7.085  69.774  1.00  0.00    -0.172 N  
HETATM    3  C   UNL     1      -9.207   6.437  68.640  1.00  0.00    -0.125 C  
HETATM    4  C   UNL     1     -11.337   6.405  69.902  1.00  0.00    -0.434 C  
ENDROOT
BRANCH   2   5
HETATM    5  C   UNL     1      -9.139   6.909  71.065  1.00  0.00    -0.155 C  
BRANCH   5   6
HETATM    6  C   UNL     1      -9.501   5.762  72.049  1.00  0.00    -0.150 C  
HETATM    7  H   UNL     1     -10.174   5.598  73.911  1.00  0.00     0.000 HD 
HETATM    8  O   UNL     1      -9.953   6.299  73.309  1.00  0.00    -0.165 OA 
BRANCH   6   9
HETATM    9  C   UNL     1      -8.459   4.686  72.323  1.00  0.00    -0.118 C  
HETATM   10  C   UNL     1      -8.463   3.669  71.199  1.00  0.00    -0.068 C  
HETATM   11  O   UNL     1      -9.605   3.314  70.809  1.00  0.00    -0.162 OA 
HETATM   12  O   UNL     1      -7.325   3.425  70.717  1.00  0.00    -0.037 OA 
ENDBRANCH   6   9
ENDBRANCH   5   6
ENDBRANCH   2   5
TORSDOF 3
ENDMDL
MODEL      231
REMARK 921   NORMALIZED FREE ENERGY PREDICTED BY IDOCK:   -1.51 KCAL/MOL
REMARK 922        TOTAL FREE ENERGY PREDICTED BY IDOCK:   -2.14 KCAL/MOL
REMARK 923 INTER-LIGAND FREE ENERGY PREDICTED BY IDOCK:   -1.82 KCAL/MOL
REMARK 924 INTRA-LIGAND FREE ENERGY PREDICTED BY IDOCK:   -0.32 KCAL/MOL
REMARK 927      BINDING AFFINITY PREDICTED BY RF-SCORE:    0.00 PKD
ROOT
HETATM    1  C   UNL     1     -10.716   8.724  69.680  1.00  0.00    -0.208 C  
HETATM    2  N   UNL     1     -10.348   7.282  69.997  1.00  0.00    -0.208 N  
HETATM    3  C   UNL     1     -11.587   6.610  70.575  1.00  0.00    -0.390 C  
HETATM    4  C   UNL     1      -9.236   7.245  71.023  1.00  0.00    -0.154 C  
ENDROOT
BRANCH   2   5
HETATM    5  C   UNL     1      -9.966   6.487  68.714  1.00  0.00    -0.143 C  
BRANCH   5   6
HETATM    6  C   UNL     1      -8.892   5.368  68.820  1.00  0.00    -0.103 C  
HETATM    7  H   UNL     1      -7.457   4.613  67.673  1.00  0.00     0.000 HD 
HETATM    8  O   UNL     1      -8.114   5.297  67.608  1.00  0.00    -0.100 OA 
BRANCH   6   9
HETATM    9  C   UNL     1      -9.344   3.962  69.194  1.00  0.00    -0.240 C  
HETATM   10  C   UNL     1      -8.837   3.613  70.580  1.00  0.00    -0.080 C  
HETATM   11  O   UNL     1      -7.644   3.941  70.807  1.00  0.00    -0.043 OA 
HETATM   12  O   UNL     1      -9.722   3.168  71.357  1.00  0.00    -0.151 OA 
ENDBRANCH   6   9
ENDBRANCH   5   6
ENDBRANCH   2   5
TORSDOF 3
ENDMDL
MODEL      232
REMARK 921   NORMALIZED FREE ENERGY PREDICTED BY IDOCK:   -1.51 KCAL/MOL
REMARK 922        TOTAL FREE ENERGY PREDICTED BY IDOCK:   -2.13 KCAL/MOL
REMARK 923 INTER-LIGAND FREE ENERGY PREDICTED BY IDOCK:   -1.87 KCAL/MOL
REMARK 924 INTRA-LIGAND FREE ENERGY PREDICTED BY IDOCK:   -0.26 KCAL/MOL
REMARK 927      BINDING AFFINITY PREDICTED BY RF-SCORE:    0.00 PKD
ROOT
HETATM    1  C   UNL     1      -7.707   9.147  69.512  1.00  0.00    -0.080 C  
HETATM    2  N   UNL     1      -8.978   8.548  70.093  1.00  0.00    -0.143 N  
HETATM    3  C   UNL     1     -10.136   8.974  69.198  1.00  0.00    -0.195 C  
HETATM    4  C   UNL     1      -9.208   9.077  71.492  1.00  0.00    -0.190 C  
ENDROOT
BRANCH   2   5
HETATM    5  C   UNL     1      -8.947   6.991  70.070  1.00  0.00    -0.142 C  
BRANCH   5   6
HETATM    6  C   UNL     1      -9.934   6.237  69.136  1.00  0.00    -0.150 C  
HETATM    7  H   UNL     1     -11.346   4.853  69.321  1.00  0.00     0.000 HD 
HETATM    8  O   UNL     1     -10.742   5.313  69.893  1.00  0.00    -0.291 OA 
BRANCH   6   9
HETATM    9  C   UNL     1      -9.372   5.512  67.920  1.00  0.00    -0.117 C  
HETATM   10  C   UNL     1      -9.702   6.289  66.661  1.00  0.00    -0.155 C  
HETATM   11  O   UNL     1     -10.878   6.733  66.606  1.00  0.00    -0.256 OA 
HETATM   12  O   UNL     1      -8.715   6.501  65.909  1.00  0.00    -0.149 OA 
ENDBRANCH   6   9
ENDBRANCH   5   6
ENDBRANCH   2   5
TORSDOF 3
ENDMDL
MODEL      233
REMARK 921   NORMALIZED FREE ENERGY PREDICTED BY IDOCK:   -1.50 KCAL/MOL
REMARK 922        TOTAL FREE ENERGY PREDICTED BY IDOCK:   -2.13 KCAL/MOL
REMARK 923 INTER-LIGAND FREE ENERGY PREDICTED BY IDOCK:   -1.81 KCAL/MOL
REMARK 924 INTRA-LIGAND FREE ENERGY PREDICTED BY IDOCK:   -0.32 KCAL/MOL
REMARK 927      BINDING AFFINITY PREDICTED BY RF-SCORE:    0.00 PKD
ROOT
HETATM    1  C   UNL     1      -8.887   3.060  72.380  1.00  0.00    -0.083 C  
HETATM    2  N   UNL     1      -9.747   3.955  73.259  1.00  0.00    -0.112 N  
HETATM    3  C   UNL     1      -8.918   5.183  73.614  1.00  0.00    -0.121 C  
HETATM    4  C   UNL     1     -10.125   3.224  74.529  1.00  0.00    -0.162 C  
ENDROOT
BRANCH   2   5
HETATM    5  C   UNL     1     -11.007   4.471  72.502  1.00  0.00    -0.007 C  
BRANCH   5   6
HETATM    6  C   UNL     1     -10.876   5.736  71.609  1.00  0.00    -0.255 C  
HETATM    7  H   UNL     1     -12.007   7.289  71.108  1.00  0.00     0.000 HD 
HETATM    8  O   UNL     1     -12.088   6.515  71.654  1.00  0.00    -0.337 OA 
BRANCH   6   9
HETATM    9  C   UNL     1     -10.463   5.557  70.154  1.00  0.00    -0.370 C  
HETATM   10  C   UNL     1      -8.982   5.844  70.001  1.00  0.00    -0.141 C  
HETATM   11  O   UNL     1      -8.572   6.858  70.622  1.00  0.00    -0.138 OA 
HETATM   12  O   UNL     1      -8.342   4.949  69.388  1.00  0.00    -0.083 OA 
ENDBRANCH   6   9
ENDBRANCH   5   6
ENDBRANCH   2   5
TORSDOF 3
ENDMDL
MODEL      234
REMARK 921   NORMALIZED FREE ENERGY PREDICTED BY IDOCK:   -1.50 KCAL/MOL
REMARK 922        TOTAL FREE ENERGY PREDICTED BY IDOCK:   -2.12 KCAL/MOL
REMARK 923 INTER-LIGAND FREE ENERGY PREDICTED BY IDOCK:   -1.88 KCAL/MOL
REMARK 924 INTRA-LIGAND FREE ENERGY PREDICTED BY IDOCK:   -0.24 KCAL/MOL
REMARK 927      BINDING AFFINITY PREDICTED BY RF-SCORE:    0.00 PKD
ROOT
HETATM    1  C   UNL     1      -9.028  13.110  67.089  1.00  0.00    -0.228 C  
HETATM    2  N   UNL     1      -8.288  11.921  67.683  1.00  0.00    -0.144 N  
HETATM    3  C   UNL     1      -7.113  12.467  68.485  1.00  0.00    -0.107 C  
HETATM    4  C   UNL     1      -7.767  11.031  66.576  1.00  0.00    -0.154 C  
ENDROOT
BRANCH   2   5
HETATM    5  C   UNL     1      -9.178  11.126  68.683  1.00  0.00    -0.171 C  
BRANCH   5   6
HETATM    6  C   UNL     1      -9.957   9.884  68.166  1.00  0.00    -0.151 C  
HETATM    7  H   UNL     1     -11.693   9.520  67.272  1.00  0.00     0.000 HD 
HETATM    8  O   UNL     1     -11.217  10.279  67.588  1.00  0.00    -0.307 OA 
BRANCH   6   9
HETATM    9  C   UNL     1     -10.201   8.729  69.129  1.00  0.00    -0.215 C  
HETATM   10  C   UNL     1      -9.123   7.678  68.955  1.00  0.00    -0.140 C  
HETATM   11  O   UNL     1      -8.828   7.413  67.761  1.00  0.00    -0.128 OA 
HETATM   12  O   UNL     1      -8.573   7.318  70.029  1.00  0.00    -0.138 OA 
ENDBRANCH   6   9
ENDBRANCH   5   6
ENDBRANCH   2   5
TORSDOF 3
ENDMDL
MODEL      235
REMARK 921   NORMALIZED FREE ENERGY PREDICTED BY IDOCK:   -1.50 KCAL/MOL
REMARK 922        TOTAL FREE ENERGY PREDICTED BY IDOCK:   -2.12 KCAL/MOL
REMARK 923 INTER-LIGAND FREE ENERGY PREDICTED BY IDOCK:   -2.01 KCAL/MOL
REMARK 924 INTRA-LIGAND FREE ENERGY PREDICTED BY IDOCK:   -0.11 KCAL/MOL
REMARK 927      BINDING AFFINITY PREDICTED BY RF-SCORE:    0.00 PKD
ROOT
HETATM    1  C   UNL     1      -9.357   3.426  68.905  1.00  0.00    -0.168 C  
HETATM    2  N   UNL     1      -8.330   4.472  69.313  1.00  0.00    -0.078 N  
HETATM    3  C   UNL     1      -8.161   5.430  68.140  1.00  0.00    -0.099 C  
HETATM    4  C   UNL     1      -7.004   3.808  69.609  1.00  0.00    -0.042 C  
ENDROOT
BRANCH   2   5
HETATM    5  C   UNL     1      -8.822   5.326  70.519  1.00  0.00    -0.132 C  
BRANCH   5   6
HETATM    6  C   UNL     1      -9.100   6.839  70.298  1.00  0.00    -0.153 C  
HETATM    7  H   UNL     1      -8.115   8.549  70.520  1.00  0.00     0.000 HD 
HETATM    8  O   UNL     1      -7.945   7.624  70.655  1.00  0.00    -0.096 OA 
BRANCH   6   9
HETATM    9  C   UNL     1     -10.330   7.453  70.955  1.00  0.00    -0.201 C  
HETATM   10  C   UNL     1     -11.566   6.664  70.571  1.00  0.00    -0.390 C  
HETATM   11  O   UNL     1     -11.631   6.339  69.357  1.00  0.00    -0.403 OA 
HETATM   12  O   UNL     1     -12.286   6.322  71.546  1.00  0.00    -0.246 OA 
ENDBRANCH   6   9
ENDBRANCH   5   6
ENDBRANCH   2   5
TORSDOF 3
ENDMDL
MODEL      236
REMARK 921   NORMALIZED FREE ENERGY PREDICTED BY IDOCK:   -1.49 KCAL/MOL
REMARK 922        TOTAL FREE ENERGY PREDICTED BY IDOCK:   -2.12 KCAL/MOL
REMARK 923 INTER-LIGAND FREE ENERGY PREDICTED BY IDOCK:   -1.91 KCAL/MOL
REMARK 924 INTRA-LIGAND FREE ENERGY PREDICTED BY IDOCK:   -0.21 KCAL/MOL
REMARK 927      BINDING AFFINITY PREDICTED BY RF-SCORE:    0.00 PKD
ROOT
HETATM    1  C   UNL     1     -10.750   6.855  67.476  1.00  0.00    -0.298 C  
HETATM    2  N   UNL     1      -9.872   6.988  68.711  1.00  0.00    -0.150 N  
HETATM    3  C   UNL     1      -9.014   5.731  68.800  1.00  0.00    -0.116 C  
HETATM    4  C   UNL     1     -10.734   7.091  69.950  1.00  0.00    -0.240 C  
ENDROOT
BRANCH   2   5
HETATM    5  C   UNL     1      -8.891   8.191  68.597  1.00  0.00    -0.134 C  
BRANCH   5   6
HETATM    6  C   UNL     1      -8.188   8.457  67.237  1.00  0.00    -0.112 C  
HETATM    7  H   UNL     1      -6.447   8.021  66.386  1.00  0.00     0.000 HD 
HETATM    8  O   UNL     1      -6.877   7.859  67.218  1.00  0.00    -0.066 OA 
BRANCH   6   9
HETATM    9  C   UNL     1      -8.077   9.895  66.746  1.00  0.00    -0.117 C  
HETATM   10  C   UNL     1      -9.410  10.352  66.188  1.00  0.00    -0.172 C  
HETATM   11  O   UNL     1      -9.995   9.511  65.458  1.00  0.00    -0.304 OA 
HETATM   12  O   UNL     1      -9.813  11.454  66.646  1.00  0.00    -0.198 OA 
ENDBRANCH   6   9
ENDBRANCH   5   6
ENDBRANCH   2   5
TORSDOF 3
ENDMDL
MODEL      237
REMARK 921   NORMALIZED FREE ENERGY PREDICTED BY IDOCK:   -1.49 KCAL/MOL
REMARK 922        TOTAL FREE ENERGY PREDICTED BY IDOCK:   -2.12 KCAL/MOL
REMARK 923 INTER-LIGAND FREE ENERGY PREDICTED BY IDOCK:   -1.87 KCAL/MOL
REMARK 924 INTRA-LIGAND FREE ENERGY PREDICTED BY IDOCK:   -0.25 KCAL/MOL
REMARK 927      BINDING AFFINITY PREDICTED BY RF-SCORE:    0.00 PKD
ROOT
HETATM    1  C   UNL     1     -10.034   9.145  65.922  1.00  0.00    -0.162 C  
HETATM    2  N   UNL     1      -8.740   8.977  66.704  1.00  0.00    -0.125 N  
HETATM    3  C   UNL     1      -8.640  10.145  67.679  1.00  0.00    -0.118 C  
HETATM    4  C   UNL     1      -7.557   9.012  65.762  1.00  0.00    -0.090 C  
ENDROOT
BRANCH   2   5
HETATM    5  C   UNL     1      -8.747   7.679  67.563  1.00  0.00    -0.125 C  
BRANCH   5   6
HETATM    6  C   UNL     1      -8.517   7.795  69.096  1.00  0.00    -0.138 C  
HETATM    7  H   UNL     1      -6.982   7.680  70.351  1.00  0.00     0.000 HD 
HETATM    8  O   UNL     1      -7.123   7.609  69.414  1.00  0.00    -0.071 OA 
BRANCH   6   9
HETATM    9  C   UNL     1      -9.350   6.920  70.023  1.00  0.00    -0.158 C  
HETATM   10  C   UNL     1     -10.773   7.442  70.080  1.00  0.00    -0.242 C  
HETATM   11  O   UNL     1     -10.875   8.692  70.180  1.00  0.00    -0.234 OA 
HETATM   12  O   UNL     1     -11.654   6.565  69.880  1.00  0.00    -0.409 OA 
ENDBRANCH   6   9
ENDBRANCH   5   6
ENDBRANCH   2   5
TORSDOF 3
ENDMDL
MODEL      238
REMARK 921   NORMALIZED FREE ENERGY PREDICTED BY IDOCK:   -1.48 KCAL/MOL
REMARK 922        TOTAL FREE ENERGY PREDICTED BY IDOCK:   -2.10 KCAL/MOL
REMARK 923 INTER-LIGAND FREE ENERGY PREDICTED BY IDOCK:   -1.87 KCAL/MOL
REMARK 924 INTRA-LIGAND FREE ENERGY PREDICTED BY IDOCK:   -0.24 KCAL/MOL
REMARK 927      BINDING AFFINITY PREDICTED BY RF-SCORE:    0.00 PKD
ROOT
HETATM    1  C   UNL     1     -10.370   8.468  69.001  1.00  0.00    -0.216 C  
HETATM    2  N   UNL     1     -10.047   7.279  69.894  1.00  0.00    -0.191 N  
HETATM    3  C   UNL     1      -8.669   6.767  69.493  1.00  0.00    -0.133 C  
HETATM    4  C   UNL     1     -11.067   6.182  69.684  1.00  0.00    -0.419 C  
ENDROOT
BRANCH   2   5
HETATM    5  C   UNL     1      -9.952   7.690  71.393  1.00  0.00    -0.181 C  
BRANCH   5   6
HETATM    6  C   UNL     1      -9.480   6.632  72.429  1.00  0.00    -0.148 C  
HETATM    7  H   UNL     1     -10.316   5.453  73.792  1.00  0.00     0.000 HD 
HETATM    8  O   UNL     1     -10.604   6.100  73.158  1.00  0.00    -0.221 OA 
BRANCH   6   9
HETATM    9  C   UNL     1      -8.394   7.024  73.423  1.00  0.00    -0.140 C  
HETATM   10  C   UNL     1      -7.108   6.294  73.092  1.00  0.00    -0.083 C  
HETATM   11  O   UNL     1      -7.248   5.077  72.804  1.00  0.00    -0.080 OA 
HETATM   12  O   UNL     1      -6.095   7.038  73.016  1.00  0.00    -0.055 OA 
ENDBRANCH   6   9
ENDBRANCH   5   6
ENDBRANCH   2   5
TORSDOF 3
ENDMDL
MODEL      239
REMARK 921   NORMALIZED FREE ENERGY PREDICTED BY IDOCK:   -1.48 KCAL/MOL
REMARK 922        TOTAL FREE ENERGY PREDICTED BY IDOCK:   -2.10 KCAL/MOL
REMARK 923 INTER-LIGAND FREE ENERGY PREDICTED BY IDOCK:   -1.83 KCAL/MOL
REMARK 924 INTRA-LIGAND FREE ENERGY PREDICTED BY IDOCK:   -0.27 KCAL/MOL
REMARK 927      BINDING AFFINITY PREDICTED BY RF-SCORE:    0.00 PKD
ROOT
HETATM    1  C   UNL     1      -9.781   9.201  66.098  1.00  0.00    -0.287 C  
HETATM    2  N   UNL     1      -8.987  10.309  66.773  1.00  0.00    -0.133 N  
HETATM    3  C   UNL     1      -9.755  11.611  66.571  1.00  0.00    -0.206 C  
HETATM    4  C   UNL     1      -7.622  10.432  66.134  1.00  0.00    -0.130 C  
ENDROOT
BRANCH   2   5
HETATM    5  C   UNL     1      -8.879  10.090  68.311  1.00  0.00    -0.116 C  
BRANCH   5   6
HETATM    6  C   UNL     1      -9.955   9.220  69.019  1.00  0.00    -0.182 C  
HETATM    7  H   UNL     1     -11.620   9.521  70.059  1.00  0.00     0.000 HD 
HETATM    8  O   UNL     1     -10.962  10.053  69.626  1.00  0.00    -0.237 OA 
BRANCH   6   9
HETATM    9  C   UNL     1      -9.495   8.187  70.040  1.00  0.00    -0.167 C  
HETATM   10  C   UNL     1      -8.966   6.959  69.325  1.00  0.00    -0.137 C  
HETATM   11  O   UNL     1      -9.661   6.572  68.350  1.00  0.00    -0.124 OA 
HETATM   12  O   UNL     1      -7.831   6.579  69.719  1.00  0.00    -0.109 OA 
ENDBRANCH   6   9
ENDBRANCH   5   6
ENDBRANCH   2   5
TORSDOF 3
ENDMDL
MODEL      240
REMARK 921   NORMALIZED FREE ENERGY PREDICTED BY IDOCK:   -1.47 KCAL/MOL
REMARK 922        TOTAL FREE ENERGY PREDICTED BY IDOCK:   -2.09 KCAL/MOL
REMARK 923 INTER-LIGAND FREE ENERGY PREDICTED BY IDOCK:   -1.78 KCAL/MOL
REMARK 924 INTRA-LIGAND FREE ENERGY PREDICTED BY IDOCK:   -0.32 KCAL/MOL
REMARK 927      BINDING AFFINITY PREDICTED BY RF-SCORE:    0.00 PKD
ROOT
HETATM    1  C   UNL     1      -9.297   8.146  73.120  1.00  0.00    -0.258 C  
HETATM    2  N   UNL     1     -10.386   7.697  72.157  1.00  0.00    -0.211 N  
HETATM    3  C   UNL     1     -11.669   8.421  72.546  1.00  0.00    -0.359 C  
HETATM    4  C   UNL     1     -10.600   6.204  72.278  1.00  0.00    -0.216 C  
ENDROOT
BRANCH   2   5
HETATM    5  C   UNL     1     -10.068   8.110  70.690  1.00  0.00    -0.194 C  
BRANCH   5   6
HETATM    6  C   UNL     1      -8.592   8.066  70.205  1.00  0.00    -0.130 C  
HETATM    7  H   UNL     1      -7.416   9.140  69.017  1.00  0.00     0.000 HD 
HETATM    8  O   UNL     1      -8.319   9.166  69.314  1.00  0.00    -0.116 OA 
BRANCH   6   9
HETATM    9  C   UNL     1      -8.076   6.782  69.568  1.00  0.00    -0.126 C  
HETATM   10  C   UNL     1      -7.081   6.113  70.495  1.00  0.00    -0.071 C  
HETATM   11  O   UNL     1      -6.253   6.892  71.035  1.00  0.00    -0.035 OA 
HETATM   12  O   UNL     1      -7.308   4.893  70.705  1.00  0.00    -0.060 OA 
ENDBRANCH   6   9
ENDBRANCH   5   6
ENDBRANCH   2   5
TORSDOF 3
ENDMDL
MODEL      241
REMARK 921   NORMALIZED FREE ENERGY PREDICTED BY IDOCK:   -1.47 KCAL/MOL
REMARK 922        TOTAL FREE ENERGY PREDICTED BY IDOCK:   -2.09 KCAL/MOL
REMARK 923 INTER-LIGAND FREE ENERGY PREDICTED BY IDOCK:   -1.76 KCAL/MOL
REMARK 924 INTRA-LIGAND FREE ENERGY PREDICTED BY IDOCK:   -0.33 KCAL/MOL
REMARK 927      BINDING AFFINITY PREDICTED BY RF-SCORE:    0.00 PKD
ROOT
HETATM    1  C   UNL     1      -7.705   3.961  71.739  1.00  0.00    -0.065 C  
HETATM    2  N   UNL     1      -8.961   4.641  72.264  1.00  0.00    -0.125 N  
HETATM    3  C   UNL     1      -8.639   6.120  72.446  1.00  0.00    -0.119 C  
HETATM    4  C   UNL     1      -9.350   4.048  73.601  1.00  0.00    -0.103 C  
ENDROOT
BRANCH   2   5
HETATM    5  C   UNL     1     -10.133   4.562  71.242  1.00  0.00    -0.155 C  
BRANCH   5   6
HETATM    6  C   UNL     1     -10.235   5.650  70.138  1.00  0.00    -0.250 C  
HETATM    7  H   UNL     1     -11.580   6.973  69.515  1.00  0.00     0.000 HD 
HETATM    8  O   UNL     1     -11.517   6.308  70.191  1.00  0.00    -0.400 OA 
BRANCH   6   9
HETATM    9  C   UNL     1      -9.952   5.249  68.696  1.00  0.00    -0.234 C  
HETATM   10  C   UNL     1      -8.531   5.628  68.327  1.00  0.00    -0.105 C  
HETATM   11  O   UNL     1      -8.169   6.768  68.716  1.00  0.00    -0.118 OA 
HETATM   12  O   UNL     1      -7.865   4.695  67.805  1.00  0.00    -0.085 OA 
ENDBRANCH   6   9
ENDBRANCH   5   6
ENDBRANCH   2   5
TORSDOF 3
ENDMDL
MODEL      242
REMARK 921   NORMALIZED FREE ENERGY PREDICTED BY IDOCK:   -1.45 KCAL/MOL
REMARK 922        TOTAL FREE ENERGY PREDICTED BY IDOCK:   -2.07 KCAL/MOL
REMARK 923 INTER-LIGAND FREE ENERGY PREDICTED BY IDOCK:   -2.47 KCAL/MOL
REMARK 924 INTRA-LIGAND FREE ENERGY PREDICTED BY IDOCK:    0.41 KCAL/MOL
REMARK 927      BINDING AFFINITY PREDICTED BY RF-SCORE:    0.00 PKD
ROOT
HETATM    1  C   UNL     1     -10.952  15.161  70.725  1.00  0.00    -0.214 C  
HETATM    2  N   UNL     1     -10.392  15.094  69.312  1.00  0.00    -0.248 N  
HETATM    3  C   UNL     1      -8.920  15.482  69.385  1.00  0.00    -0.275 C  
HETATM    4  C   UNL     1     -11.122  16.073  68.419  1.00  0.00    -0.351 C  
ENDROOT
BRANCH   2   5
HETATM    5  C   UNL     1     -10.444  13.649  68.736  1.00  0.00    -0.202 C  
BRANCH   5   6
HETATM    6  C   UNL     1     -10.199  13.440  67.216  1.00  0.00    -0.241 C  
HETATM    7  H   UNL     1     -11.053  14.000  65.512  1.00  0.00     0.000 HD 
HETATM    8  O   UNL     1     -11.203  14.128  66.442  1.00  0.00    -0.315 OA 
BRANCH   6   9
HETATM    9  C   UNL     1     -10.068  12.016  66.690  1.00  0.00    -0.220 C  
HETATM   10  C   UNL     1      -8.693  11.471  67.025  1.00  0.00    -0.169 C  
HETATM   11  O   UNL     1      -7.743  12.273  66.832  1.00  0.00    -0.118 OA 
HETATM   12  O   UNL     1      -8.706  10.340  67.580  1.00  0.00    -0.122 OA 
ENDBRANCH   6   9
ENDBRANCH   5   6
ENDBRANCH   2   5
TORSDOF 3
ENDMDL
MODEL      243
REMARK 921   NORMALIZED FREE ENERGY PREDICTED BY IDOCK:   -1.44 KCAL/MOL
REMARK 922        TOTAL FREE ENERGY PREDICTED BY IDOCK:   -2.05 KCAL/MOL
REMARK 923 INTER-LIGAND FREE ENERGY PREDICTED BY IDOCK:   -2.57 KCAL/MOL
REMARK 924 INTRA-LIGAND FREE ENERGY PREDICTED BY IDOCK:    0.52 KCAL/MOL
REMARK 927      BINDING AFFINITY PREDICTED BY RF-SCORE:    0.00 PKD
ROOT
HETATM    1  C   UNL     1      -6.915  19.672  66.886  1.00  0.00    -0.198 C  
HETATM    2  N   UNL     1      -8.110  19.351  67.770  1.00  0.00    -0.284 N  
HETATM    3  C   UNL     1      -9.020  20.574  67.771  1.00  0.00    -0.114 C  
HETATM    4  C   UNL     1      -7.649  19.071  69.183  1.00  0.00    -0.208 C  
ENDROOT
BRANCH   2   5
HETATM    5  C   UNL     1      -8.952  18.171  67.200  1.00  0.00    -0.256 C  
BRANCH   5   6
HETATM    6  C   UNL     1      -8.210  16.912  66.669  1.00  0.00    -0.257 C  
HETATM    7  H   UNL     1      -6.951  16.475  65.197  1.00  0.00     0.000 HD 
HETATM    8  O   UNL     1      -7.405  17.245  65.521  1.00  0.00    -0.156 OA 
BRANCH   6   9
HETATM    9  C   UNL     1      -9.031  15.669  66.348  1.00  0.00    -0.362 C  
HETATM   10  C   UNL     1      -9.922  15.324  67.524  1.00  0.00    -0.226 C  
HETATM   11  O   UNL     1      -9.367  15.403  68.651  1.00  0.00    -0.186 OA 
HETATM   12  O   UNL     1     -11.131  15.140  67.222  1.00  0.00    -0.321 OA 
ENDBRANCH   6   9
ENDBRANCH   5   6
ENDBRANCH   2   5
TORSDOF 3
ENDMDL
MODEL      244
REMARK 921   NORMALIZED FREE ENERGY PREDICTED BY IDOCK:   -1.44 KCAL/MOL
REMARK 922        TOTAL FREE ENERGY PREDICTED BY IDOCK:   -2.05 KCAL/MOL
REMARK 923 INTER-LIGAND FREE ENERGY PREDICTED BY IDOCK:   -1.68 KCAL/MOL
REMARK 924 INTRA-LIGAND FREE ENERGY PREDICTED BY IDOCK:   -0.37 KCAL/MOL
REMARK 927      BINDING AFFINITY PREDICTED BY RF-SCORE:    0.00 PKD
ROOT
HETATM    1  C   UNL     1      -8.420   6.580  66.431  1.00  0.00    -0.124 C  
HETATM    2  N   UNL     1      -9.691   6.758  67.247  1.00  0.00    -0.134 N  
HETATM    3  C   UNL     1     -10.597   5.569  66.948  1.00  0.00    -0.278 C  
HETATM    4  C   UNL     1     -10.394   8.034  66.841  1.00  0.00    -0.338 C  
ENDROOT
BRANCH   2   5
HETATM    5  C   UNL     1      -9.405   6.726  68.778  1.00  0.00    -0.132 C  
BRANCH   5   6
HETATM    6  C   UNL     1      -8.046   7.274  69.295  1.00  0.00    -0.124 C  
HETATM    7  H   UNL     1      -6.504   6.591  70.344  1.00  0.00     0.000 HD 
HETATM    8  O   UNL     1      -7.335   6.256  70.027  1.00  0.00    -0.077 OA 
BRANCH   6   9
HETATM    9  C   UNL     1      -8.047   8.556  70.118  1.00  0.00    -0.111 C  
HETATM   10  C   UNL     1      -8.188   9.755  69.201  1.00  0.00    -0.130 C  
HETATM   11  O   UNL     1      -7.484   9.710  68.158  1.00  0.00    -0.081 OA 
HETATM   12  O   UNL     1      -9.092  10.563  69.539  1.00  0.00    -0.152 OA 
ENDBRANCH   6   9
ENDBRANCH   5   6
ENDBRANCH   2   5
TORSDOF 3
ENDMDL
MODEL      245
REMARK 921   NORMALIZED FREE ENERGY PREDICTED BY IDOCK:   -1.43 KCAL/MOL
REMARK 922        TOTAL FREE ENERGY PREDICTED BY IDOCK:   -2.04 KCAL/MOL
REMARK 923 INTER-LIGAND FREE ENERGY PREDICTED BY IDOCK:   -1.79 KCAL/MOL
REMARK 924 INTRA-LIGAND FREE ENERGY PREDICTED BY IDOCK:   -0.26 KCAL/MOL
REMARK 927      BINDING AFFINITY PREDICTED BY RF-SCORE:    0.00 PKD
ROOT
HETATM    1  C   UNL     1     -12.096   6.793  70.561  1.00  0.00    -0.274 C  
HETATM    2  N   UNL     1     -10.621   6.443  70.434  1.00  0.00    -0.226 N  
HETATM    3  C   UNL     1     -10.476   5.497  69.248  1.00  0.00    -0.266 C  
HETATM    4  C   UNL     1     -10.145   5.745  71.689  1.00  0.00    -0.194 C  
ENDROOT
BRANCH   2   5
HETATM    5  C   UNL     1      -9.755   7.696  70.114  1.00  0.00    -0.179 C  
BRANCH   5   6
HETATM    6  C   UNL     1      -8.374   7.495  69.430  1.00  0.00    -0.132 C  
HETATM    7  H   UNL     1      -6.461   7.733  69.910  1.00  0.00     0.000 HD 
HETATM    8  O   UNL     1      -7.305   7.856  70.328  1.00  0.00    -0.063 OA 
BRANCH   6   9
HETATM    9  C   UNL     1      -8.127   8.163  68.083  1.00  0.00    -0.128 C  
HETATM   10  C   UNL     1      -7.926   7.107  67.015  1.00  0.00    -0.113 C  
HETATM   11  O   UNL     1      -7.188   6.145  67.353  1.00  0.00    -0.072 OA 
HETATM   12  O   UNL     1      -8.635   7.267  65.987  1.00  0.00    -0.141 OA 
ENDBRANCH   6   9
ENDBRANCH   5   6
ENDBRANCH   2   5
TORSDOF 3
ENDMDL
MODEL      246
REMARK 921   NORMALIZED FREE ENERGY PREDICTED BY IDOCK:   -1.41 KCAL/MOL
REMARK 922        TOTAL FREE ENERGY PREDICTED BY IDOCK:   -2.02 KCAL/MOL
REMARK 923 INTER-LIGAND FREE ENERGY PREDICTED BY IDOCK:   -1.76 KCAL/MOL
REMARK 924 INTRA-LIGAND FREE ENERGY PREDICTED BY IDOCK:   -0.27 KCAL/MOL
REMARK 927      BINDING AFFINITY PREDICTED BY RF-SCORE:    0.00 PKD
ROOT
HETATM    1  C   UNL     1      -9.242   9.734  69.991  1.00  0.00    -0.229 C  
HETATM    2  N   UNL     1      -9.081   8.656  68.931  1.00  0.00    -0.145 N  
HETATM    3  C   UNL     1      -7.852   7.833  69.297  1.00  0.00    -0.116 C  
HETATM    4  C   UNL     1      -8.869   9.291  67.574  1.00  0.00    -0.118 C  
ENDROOT
BRANCH   2   5
HETATM    5  C   UNL     1     -10.288   7.672  68.918  1.00  0.00    -0.212 C  
BRANCH   5   6
HETATM    6  C   UNL     1     -10.250   6.455  67.951  1.00  0.00    -0.168 C  
HETATM    7  H   UNL     1     -11.219   5.856  66.324  1.00  0.00     0.000 HD 
HETATM    8  O   UNL     1     -11.242   6.600  66.915  1.00  0.00    -0.391 OA 
BRANCH   6   9
HETATM    9  C   UNL     1     -10.362   5.056  68.543  1.00  0.00    -0.094 C  
HETATM   10  C   UNL     1      -8.995   4.402  68.576  1.00  0.00    -0.115 C  
HETATM   11  O   UNL     1      -8.305   4.562  67.537  1.00  0.00    -0.100 OA 
HETATM   12  O   UNL     1      -8.684   3.909  69.693  1.00  0.00    -0.070 OA 
ENDBRANCH   6   9
ENDBRANCH   5   6
ENDBRANCH   2   5
TORSDOF 3
ENDMDL
MODEL      247
REMARK 921   NORMALIZED FREE ENERGY PREDICTED BY IDOCK:   -1.40 KCAL/MOL
REMARK 922        TOTAL FREE ENERGY PREDICTED BY IDOCK:   -2.01 KCAL/MOL
REMARK 923 INTER-LIGAND FREE ENERGY PREDICTED BY IDOCK:   -2.34 KCAL/MOL
REMARK 924 INTRA-LIGAND FREE ENERGY PREDICTED BY IDOCK:    0.33 KCAL/MOL
REMARK 927      BINDING AFFINITY PREDICTED BY RF-SCORE:    0.00 PKD
ROOT
HETATM    1  C   UNL     1      -8.006  12.747  68.281  1.00  0.00    -0.151 C  
HETATM    2  N   UNL     1      -9.166  12.007  67.632  1.00  0.00    -0.176 N  
HETATM    3  C   UNL     1     -10.117  13.055  67.063  1.00  0.00    -0.243 C  
HETATM    4  C   UNL     1      -9.897  11.180  68.667  1.00  0.00    -0.202 C  
ENDROOT
BRANCH   2   5
HETATM    5  C   UNL     1      -8.696  11.134  66.432  1.00  0.00    -0.177 C  
BRANCH   5   6
HETATM    6  C   UNL     1      -9.768  10.516  65.492  1.00  0.00    -0.242 C  
HETATM    7  H   UNL     1     -10.605   8.737  65.207  1.00  0.00     0.000 HD 
HETATM    8  O   UNL     1      -9.949   9.115  65.782  1.00  0.00    -0.277 OA 
BRANCH   6   9
HETATM    9  C   UNL     1      -9.599  10.686  63.988  1.00  0.00    -0.351 C  
HETATM   10  C   UNL     1      -8.583   9.687  63.469  1.00  0.00    -0.209 C  
HETATM   11  O   UNL     1      -7.552   9.563  64.180  1.00  0.00    -0.113 OA 
HETATM   12  O   UNL     1      -8.973   9.020  62.475  1.00  0.00    -0.199 OA 
ENDBRANCH   6   9
ENDBRANCH   5   6
ENDBRANCH   2   5
TORSDOF 3
ENDMDL
MODEL      248
REMARK 921   NORMALIZED FREE ENERGY PREDICTED BY IDOCK:   -1.40 KCAL/MOL
REMARK 922        TOTAL FREE ENERGY PREDICTED BY IDOCK:   -2.00 KCAL/MOL
REMARK 923 INTER-LIGAND FREE ENERGY PREDICTED BY IDOCK:   -1.74 KCAL/MOL
REMARK 924 INTRA-LIGAND FREE ENERGY PREDICTED BY IDOCK:   -0.27 KCAL/MOL
REMARK 927      BINDING AFFINITY PREDICTED BY RF-SCORE:    0.00 PKD
ROOT
HETATM    1  C   UNL     1      -8.102   8.011  67.645  1.00  0.00    -0.124 C  
HETATM    2  N   UNL     1      -9.370   7.668  68.412  1.00  0.00    -0.146 N  
HETATM    3  C   UNL     1     -10.274   6.878  67.474  1.00  0.00    -0.194 C  
HETATM    4  C   UNL     1     -10.079   8.936  68.836  1.00  0.00    -0.197 C  
ENDROOT
BRANCH   2   5
HETATM    5  C   UNL     1      -9.077   6.745  69.631  1.00  0.00    -0.143 C  
BRANCH   5   6
HETATM    6  C   UNL     1      -9.860   5.408  69.762  1.00  0.00    -0.201 C  
HETATM    7  H   UNL     1     -11.442   4.737  70.757  1.00  0.00     0.000 HD 
HETATM    8  O   UNL     1     -10.964   5.554  70.677  1.00  0.00    -0.233 OA 
BRANCH   6   9
HETATM    9  C   UNL     1      -9.086   4.148  70.126  1.00  0.00    -0.181 C  
HETATM   10  C   UNL     1      -8.640   3.436  68.865  1.00  0.00    -0.083 C  
HETATM   11  O   UNL     1      -9.511   3.366  67.960  1.00  0.00    -0.187 OA 
HETATM   12  O   UNL     1      -7.417   3.136  68.843  1.00  0.00    -0.049 OA 
ENDBRANCH   6   9
ENDBRANCH   5   6
ENDBRANCH   2   5
TORSDOF 3
ENDMDL
MODEL      249
REMARK 921   NORMALIZED FREE ENERGY PREDICTED BY IDOCK:   -1.40 KCAL/MOL
REMARK 922        TOTAL FREE ENERGY PREDICTED BY IDOCK:   -2.00 KCAL/MOL
REMARK 923 INTER-LIGAND FREE ENERGY PREDICTED BY IDOCK:   -2.32 KCAL/MOL
REMARK 924 INTRA-LIGAND FREE ENERGY PREDICTED BY IDOCK:    0.32 KCAL/MOL
REMARK 927      BINDING AFFINITY PREDICTED BY RF-SCORE:    0.00 PKD
ROOT
HETATM    1  C   UNL     1     -10.165  15.531  66.454  1.00  0.00    -0.289 C  
HETATM    2  N   UNL     1     -10.721  14.298  67.150  1.00  0.00    -0.279 N  
HETATM    3  C   UNL     1     -12.100  14.022  66.561  1.00  0.00    -0.459 C  
HETATM    4  C   UNL     1     -10.855  14.556  68.634  1.00  0.00    -0.251 C  
ENDROOT
BRANCH   2   5
HETATM    5  C   UNL     1      -9.855  13.034  66.867  1.00  0.00    -0.240 C  
BRANCH   5   6
HETATM    6  C   UNL     1      -8.893  12.524  67.975  1.00  0.00    -0.187 C  
HETATM    7  H   UNL     1      -6.977  12.739  68.453  1.00  0.00     0.000 HD 
HETATM    8  O   UNL     1      -7.566  13.051  67.775  1.00  0.00    -0.122 OA 
BRANCH   6   9
HETATM    9  C   UNL     1      -8.792  11.023  68.213  1.00  0.00    -0.144 C  
HETATM   10  C   UNL     1      -7.884  10.398  67.173  1.00  0.00    -0.110 C  
HETATM   11  O   UNL     1      -8.062  10.809  65.998  1.00  0.00    -0.156 OA 
HETATM   12  O   UNL     1      -6.983   9.657  67.650  1.00  0.00    -0.084 OA 
ENDBRANCH   6   9
ENDBRANCH   5   6
ENDBRANCH   2   5
TORSDOF 3
ENDMDL
MODEL      250
REMARK 921   NORMALIZED FREE ENERGY PREDICTED BY IDOCK:   -1.39 KCAL/MOL
REMARK 922        TOTAL FREE ENERGY PREDICTED BY IDOCK:   -2.00 KCAL/MOL
REMARK 923 INTER-LIGAND FREE ENERGY PREDICTED BY IDOCK:   -2.33 KCAL/MOL
REMARK 924 INTRA-LIGAND FREE ENERGY PREDICTED BY IDOCK:    0.33 KCAL/MOL
REMARK 927      BINDING AFFINITY PREDICTED BY RF-SCORE:    0.00 PKD
ROOT
HETATM    1  C   UNL     1      -8.299   4.671  65.370  1.00  0.00    -0.119 C  
HETATM    2  N   UNL     1      -9.491   4.622  66.314  1.00  0.00    -0.152 N  
HETATM    3  C   UNL     1      -9.404   3.315  67.094  1.00  0.00    -0.181 C  
HETATM    4  C   UNL     1     -10.780   4.645  65.522  1.00  0.00    -0.134 C  
ENDROOT
BRANCH   2   5
HETATM    5  C   UNL     1      -9.446   5.771  67.363  1.00  0.00    -0.112 C  
BRANCH   5   6
HETATM    6  C   UNL     1     -10.787   6.339  67.907  1.00  0.00    -0.333 C  
HETATM    7  H   UNL     1     -11.706   8.098  67.970  1.00  0.00     0.000 HD 
HETATM    8  O   UNL     1     -10.886   7.751  67.637  1.00  0.00    -0.187 OA 
BRANCH   6   9
HETATM    9  C   UNL     1     -11.137   6.095  69.370  1.00  0.00    -0.479 C  
HETATM   10  C   UNL     1     -10.527   7.183  70.232  1.00  0.00    -0.217 C  
HETATM   11  O   UNL     1      -9.342   7.488  69.941  1.00  0.00    -0.151 OA 
HETATM   12  O   UNL     1     -11.336   7.727  71.029  1.00  0.00    -0.263 OA 
ENDBRANCH   6   9
ENDBRANCH   5   6
ENDBRANCH   2   5
TORSDOF 3
ENDMDL
MODEL      251
REMARK 921   NORMALIZED FREE ENERGY PREDICTED BY IDOCK:   -1.39 KCAL/MOL
REMARK 922        TOTAL FREE ENERGY PREDICTED BY IDOCK:   -1.99 KCAL/MOL
REMARK 923 INTER-LIGAND FREE ENERGY PREDICTED BY IDOCK:   -2.07 KCAL/MOL
REMARK 924 INTRA-LIGAND FREE ENERGY PREDICTED BY IDOCK:    0.08 KCAL/MOL
REMARK 927      BINDING AFFINITY PREDICTED BY RF-SCORE:    0.00 PKD
ROOT
HETATM    1  C   UNL     1     -11.020  14.561  68.491  1.00  0.00    -0.249 C  
HETATM    2  N   UNL     1      -9.621  15.115  68.269  1.00  0.00    -0.207 N  
HETATM    3  C   UNL     1      -8.921  15.147  69.623  1.00  0.00    -0.053 C  
HETATM    4  C   UNL     1      -9.703  16.521  67.717  1.00  0.00    -0.235 C  
ENDROOT
BRANCH   2   5
HETATM    5  C   UNL     1      -8.771  14.190  67.350  1.00  0.00    -0.210 C  
BRANCH   5   6
HETATM    6  C   UNL     1      -8.382  12.777  67.866  1.00  0.00    -0.172 C  
HETATM    7  H   UNL     1      -6.930  11.972  68.957  1.00  0.00     0.000 HD 
HETATM    8  O   UNL     1      -7.167  12.836  68.641  1.00  0.00    -0.101 OA 
BRANCH   6   9
HETATM    9  C   UNL     1      -8.262  11.643  66.855  1.00  0.00    -0.169 C  
HETATM   10  C   UNL     1      -9.603  11.403  66.191  1.00  0.00    -0.218 C  
HETATM   11  O   UNL     1     -10.590  11.411  66.970  1.00  0.00    -0.225 OA 
HETATM   12  O   UNL     1      -9.558  11.368  64.932  1.00  0.00    -0.233 OA 
ENDBRANCH   6   9
ENDBRANCH   5   6
ENDBRANCH   2   5
TORSDOF 3
ENDMDL
MODEL      252
REMARK 921   NORMALIZED FREE ENERGY PREDICTED BY IDOCK:   -1.38 KCAL/MOL
REMARK 922        TOTAL FREE ENERGY PREDICTED BY IDOCK:   -1.99 KCAL/MOL
REMARK 923 INTER-LIGAND FREE ENERGY PREDICTED BY IDOCK:   -1.85 KCAL/MOL
REMARK 924 INTRA-LIGAND FREE ENERGY PREDICTED BY IDOCK:   -0.14 KCAL/MOL
REMARK 927      BINDING AFFINITY PREDICTED BY RF-SCORE:    0.00 PKD
ROOT
HETATM    1  C   UNL     1     -10.002   9.166  66.817  1.00  0.00    -0.254 C  
HETATM    2  N   UNL     1      -9.874  10.535  66.167  1.00  0.00    -0.208 N  
HETATM    3  C   UNL     1     -11.064  11.372  66.623  1.00  0.00    -0.271 C  
HETATM    4  C   UNL     1      -9.909  10.399  64.661  1.00  0.00    -0.338 C  
ENDROOT
BRANCH   2   5
HETATM    5  C   UNL     1      -8.594  11.283  66.642  1.00  0.00    -0.167 C  
BRANCH   5   6
HETATM    6  C   UNL     1      -8.436  11.607  68.154  1.00  0.00    -0.156 C  
HETATM    7  H   UNL     1      -8.745  13.161  69.352  1.00  0.00     0.000 HD 
HETATM    8  O   UNL     1      -8.842  12.963  68.427  1.00  0.00    -0.182 OA 
BRANCH   6   9
HETATM    9  C   UNL     1      -7.083  11.361  68.811  1.00  0.00    -0.102 C  
HETATM   10  C   UNL     1      -6.896   9.877  69.059  1.00  0.00    -0.054 C  
HETATM   11  O   UNL     1      -7.906   9.285  69.521  1.00  0.00    -0.076 OA 
HETATM   12  O   UNL     1      -5.802   9.416  68.638  1.00  0.00    -0.040 OA 
ENDBRANCH   6   9
ENDBRANCH   5   6
ENDBRANCH   2   5
TORSDOF 3
ENDMDL
MODEL      253
REMARK 921   NORMALIZED FREE ENERGY PREDICTED BY IDOCK:   -1.37 KCAL/MOL
REMARK 922        TOTAL FREE ENERGY PREDICTED BY IDOCK:   -1.97 KCAL/MOL
REMARK 923 INTER-LIGAND FREE ENERGY PREDICTED BY IDOCK:   -2.41 KCAL/MOL
REMARK 924 INTRA-LIGAND FREE ENERGY PREDICTED BY IDOCK:    0.44 KCAL/MOL
REMARK 927      BINDING AFFINITY PREDICTED BY RF-SCORE:    0.00 PKD
ROOT
HETATM    1  C   UNL     1      -8.898  12.895  66.840  1.00  0.00    -0.187 C  
HETATM    2  N   UNL     1      -7.814  11.916  67.263  1.00  0.00    -0.160 N  
HETATM    3  C   UNL     1      -6.484  12.660  67.227  1.00  0.00    -0.097 C  
HETATM    4  C   UNL     1      -7.761  10.753  66.297  1.00  0.00    -0.146 C  
ENDROOT
BRANCH   2   5
HETATM    5  C   UNL     1      -8.013  11.430  68.729  1.00  0.00    -0.122 C  
BRANCH   5   6
HETATM    6  C   UNL     1      -9.095  10.353  69.019  1.00  0.00    -0.187 C  
HETATM    7  H   UNL     1      -9.150   8.398  69.364  1.00  0.00     0.000 HD 
HETATM    8  O   UNL     1      -8.488   9.056  69.186  1.00  0.00    -0.123 OA 
BRANCH   6   9
HETATM    9  C   UNL     1     -10.267  10.224  68.054  1.00  0.00    -0.200 C  
HETATM   10  C   UNL     1     -11.500  10.870  68.653  1.00  0.00    -0.311 C  
HETATM   11  O   UNL     1     -11.693  10.616  69.870  1.00  0.00    -0.267 OA 
HETATM   12  O   UNL     1     -12.083  11.683  67.888  1.00  0.00    -0.613 OA 
ENDBRANCH   6   9
ENDBRANCH   5   6
ENDBRANCH   2   5
TORSDOF 3
ENDMDL
MODEL      254
REMARK 921   NORMALIZED FREE ENERGY PREDICTED BY IDOCK:   -1.37 KCAL/MOL
REMARK 922        TOTAL FREE ENERGY PREDICTED BY IDOCK:   -1.97 KCAL/MOL
REMARK 923 INTER-LIGAND FREE ENERGY PREDICTED BY IDOCK:   -2.60 KCAL/MOL
REMARK 924 INTRA-LIGAND FREE ENERGY PREDICTED BY IDOCK:    0.63 KCAL/MOL
REMARK 927      BINDING AFFINITY PREDICTED BY RF-SCORE:    0.00 PKD
ROOT
HETATM    1  C   UNL     1      -9.940   7.560  69.955  1.00  0.00    -0.186 C  
HETATM    2  N   UNL     1      -9.838   8.724  70.929  1.00  0.00    -0.204 N  
HETATM    3  C   UNL     1      -8.631   8.469  71.824  1.00  0.00    -0.190 C  
HETATM    4  C   UNL     1     -11.086   8.796  71.782  1.00  0.00    -0.347 C  
ENDROOT
BRANCH   2   5
HETATM    5  C   UNL     1      -9.571  10.071  70.194  1.00  0.00    -0.097 C  
BRANCH   5   6
HETATM    6  C   UNL     1     -10.774  10.836  69.576  1.00  0.00    -0.226 C  
HETATM    7  H   UNL     1     -12.543  11.505  70.182  1.00  0.00     0.000 HD 
HETATM    8  O   UNL     1     -11.808  11.036  70.560  1.00  0.00    -0.331 OA 
BRANCH   6   9
HETATM    9  C   UNL     1     -11.409  10.285  68.305  1.00  0.00    -0.245 C  
HETATM   10  C   UNL     1     -11.097  11.199  67.137  1.00  0.00    -0.287 C  
HETATM   11  O   UNL     1     -11.210  12.428  67.381  1.00  0.00    -0.262 OA 
HETATM   12  O   UNL     1     -10.634  10.608  66.126  1.00  0.00    -0.219 OA 
ENDBRANCH   6   9
ENDBRANCH   5   6
ENDBRANCH   2   5
TORSDOF 3
ENDMDL
MODEL      255
REMARK 921   NORMALIZED FREE ENERGY PREDICTED BY IDOCK:   -1.34 KCAL/MOL
REMARK 922        TOTAL FREE ENERGY PREDICTED BY IDOCK:   -1.93 KCAL/MOL
REMARK 923 INTER-LIGAND FREE ENERGY PREDICTED BY IDOCK:   -2.41 KCAL/MOL
REMARK 924 INTRA-LIGAND FREE ENERGY PREDICTED BY IDOCK:    0.48 KCAL/MOL
REMARK 927      BINDING AFFINITY PREDICTED BY RF-SCORE:    0.00 PKD
ROOT
HETATM    1  C   UNL     1      -6.860   8.411  65.998  1.00  0.00    -0.064 C  
HETATM    2  N   UNL     1      -7.687   7.349  66.706  1.00  0.00    -0.107 N  
HETATM    3  C   UNL     1      -6.723   6.453  67.474  1.00  0.00    -0.070 C  
HETATM    4  C   UNL     1      -8.440   6.517  65.691  1.00  0.00    -0.144 C  
ENDROOT
BRANCH   2   5
HETATM    5  C   UNL     1      -8.650   7.972  67.758  1.00  0.00    -0.128 C  
BRANCH   5   6
HETATM    6  C   UNL     1     -10.047   8.469  67.292  1.00  0.00    -0.251 C  
HETATM    7  H   UNL     1     -11.744   7.658  66.652  1.00  0.00     0.000 HD 
HETATM    8  O   UNL     1     -10.889   7.354  66.937  1.00  0.00    -0.357 OA 
BRANCH   6   9
HETATM    9  C   UNL     1     -10.113   9.506  66.177  1.00  0.00    -0.326 C  
HETATM   10  C   UNL     1     -10.616  10.824  66.731  1.00  0.00    -0.250 C  
HETATM   11  O   UNL     1     -11.589  10.730  67.523  1.00  0.00    -0.510 OA 
HETATM   12  O   UNL     1      -9.902  11.817  66.432  1.00  0.00    -0.204 OA 
ENDBRANCH   6   9
ENDBRANCH   5   6
ENDBRANCH   2   5
TORSDOF 3
ENDMDL
MODEL      256
REMARK 921   NORMALIZED FREE ENERGY PREDICTED BY IDOCK:   -1.33 KCAL/MOL
REMARK 922        TOTAL FREE ENERGY PREDICTED BY IDOCK:   -1.92 KCAL/MOL
REMARK 923 INTER-LIGAND FREE ENERGY PREDICTED BY IDOCK:   -1.69 KCAL/MOL
REMARK 924 INTRA-LIGAND FREE ENERGY PREDICTED BY IDOCK:   -0.24 KCAL/MOL
REMARK 927      BINDING AFFINITY PREDICTED BY RF-SCORE:    0.00 PKD
ROOT
HETATM    1  C   UNL     1      -8.803   4.429  68.863  1.00  0.00    -0.098 C  
HETATM    2  N   UNL     1      -8.734   5.785  68.178  1.00  0.00    -0.108 N  
HETATM    3  C   UNL     1      -9.236   5.603  66.750  1.00  0.00    -0.128 C  
HETATM    4  C   UNL     1      -7.304   6.277  68.145  1.00  0.00    -0.089 C  
ENDROOT
BRANCH   2   5
HETATM    5  C   UNL     1      -9.679   6.823  68.853  1.00  0.00    -0.137 C  
BRANCH   5   6
HETATM    6  C   UNL     1     -10.370   6.444  70.192  1.00  0.00    -0.198 C  
HETATM    7  H   UNL     1     -12.153   6.687  71.032  1.00  0.00     0.000 HD 
HETATM    8  O   UNL     1     -11.731   6.919  70.213  1.00  0.00    -0.330 OA 
BRANCH   6   9
HETATM    9  C   UNL     1      -9.693   6.844  71.497  1.00  0.00    -0.164 C  
HETATM   10  C   UNL     1      -9.311   5.603  72.279  1.00  0.00    -0.145 C  
HETATM   11  O   UNL     1     -10.191   4.705  72.310  1.00  0.00    -0.183 OA 
HETATM   12  O   UNL     1      -8.115   5.586  72.673  1.00  0.00    -0.105 OA 
ENDBRANCH   6   9
ENDBRANCH   5   6
ENDBRANCH   2   5
TORSDOF 3
ENDMDL
MODEL      257
REMARK 921   NORMALIZED FREE ENERGY PREDICTED BY IDOCK:   -1.30 KCAL/MOL
REMARK 922        TOTAL FREE ENERGY PREDICTED BY IDOCK:   -1.89 KCAL/MOL
REMARK 923 INTER-LIGAND FREE ENERGY PREDICTED BY IDOCK:   -1.66 KCAL/MOL
REMARK 924 INTRA-LIGAND FREE ENERGY PREDICTED BY IDOCK:   -0.22 KCAL/MOL
REMARK 927      BINDING AFFINITY PREDICTED BY RF-SCORE:    0.00 PKD
ROOT
HETATM    1  C   UNL     1     -10.469   9.709  66.665  1.00  0.00    -0.163 C  
HETATM    2  N   UNL     1     -10.403  11.053  65.957  1.00  0.00    -0.251 N  
HETATM    3  C   UNL     1     -11.349  12.001  66.685  1.00  0.00    -0.340 C  
HETATM    4  C   UNL     1     -10.852  10.905  64.520  1.00  0.00    -0.075 C  
ENDROOT
BRANCH   2   5
HETATM    5  C   UNL     1      -8.983  11.686  66.048  1.00  0.00    -0.147 C  
BRANCH   5   6
HETATM    6  C   UNL     1      -7.888  10.950  66.871  1.00  0.00    -0.135 C  
HETATM    7  H   UNL     1      -7.203  10.975  68.735  1.00  0.00     0.000 HD 
HETATM    8  O   UNL     1      -7.872  11.425  68.232  1.00  0.00    -0.117 OA 
BRANCH   6   9
HETATM    9  C   UNL     1      -6.461  10.945  66.338  1.00  0.00    -0.130 C  
HETATM   10  C   UNL     1      -6.389  10.116  65.071  1.00  0.00    -0.123 C  
HETATM   11  O   UNL     1      -7.019   9.028  65.112  1.00  0.00    -0.078 OA 
HETATM   12  O   UNL     1      -5.825  10.695  64.105  1.00  0.00    -0.107 OA 
ENDBRANCH   6   9
ENDBRANCH   5   6
ENDBRANCH   2   5
TORSDOF 3
ENDMDL
MODEL      258
REMARK 921   NORMALIZED FREE ENERGY PREDICTED BY IDOCK:   -1.26 KCAL/MOL
REMARK 922        TOTAL FREE ENERGY PREDICTED BY IDOCK:   -1.85 KCAL/MOL
REMARK 923 INTER-LIGAND FREE ENERGY PREDICTED BY IDOCK:   -1.59 KCAL/MOL
REMARK 924 INTRA-LIGAND FREE ENERGY PREDICTED BY IDOCK:   -0.26 KCAL/MOL
REMARK 927      BINDING AFFINITY PREDICTED BY RF-SCORE:    0.00 PKD
ROOT
HETATM    1  C   UNL     1      -9.987   9.322  66.531  1.00  0.00    -0.274 C  
HETATM    2  N   UNL     1      -9.342  10.451  65.742  1.00  0.00    -0.175 N  
HETATM    3  C   UNL     1      -9.273  11.668  66.657  1.00  0.00    -0.191 C  
HETATM    4  C   UNL     1     -10.186  10.785  64.532  1.00  0.00    -0.359 C  
ENDROOT
BRANCH   2   5
HETATM    5  C   UNL     1      -7.877  10.113  65.340  1.00  0.00    -0.142 C  
BRANCH   5   6
HETATM    6  C   UNL     1      -6.960   9.407  66.378  1.00  0.00    -0.084 C  
HETATM    7  H   UNL     1      -5.271   9.810  67.342  1.00  0.00     0.000 HD 
HETATM    8  O   UNL     1      -5.831  10.241  66.707  1.00  0.00    -0.049 OA 
BRANCH   6   9
HETATM    9  C   UNL     1      -6.457   8.004  66.066  1.00  0.00    -0.046 C  
HETATM   10  C   UNL     1      -7.200   6.991  66.914  1.00  0.00    -0.077 C  
HETATM   11  O   UNL     1      -7.355   7.320  68.118  1.00  0.00    -0.094 OA 
HETATM   12  O   UNL     1      -7.681   6.025  66.264  1.00  0.00    -0.098 OA 
ENDBRANCH   6   9
ENDBRANCH   5   6
ENDBRANCH   2   5
TORSDOF 3
ENDMDL
MODEL      259
REMARK 921   NORMALIZED FREE ENERGY PREDICTED BY IDOCK:   -1.23 KCAL/MOL
REMARK 922        TOTAL FREE ENERGY PREDICTED BY IDOCK:   -1.81 KCAL/MOL
REMARK 923 INTER-LIGAND FREE ENERGY PREDICTED BY IDOCK:   -1.42 KCAL/MOL
REMARK 924 INTRA-LIGAND FREE ENERGY PREDICTED BY IDOCK:   -0.39 KCAL/MOL
REMARK 927      BINDING AFFINITY PREDICTED BY RF-SCORE:    0.00 PKD
ROOT
HETATM    1  C   UNL     1      -9.612   9.266  70.825  1.00  0.00    -0.275 C  
HETATM    2  N   UNL     1      -8.595   8.867  69.766  1.00  0.00    -0.128 N  
HETATM    3  C   UNL     1      -7.208   9.120  70.345  1.00  0.00    -0.084 C  
HETATM    4  C   UNL     1      -8.779   9.714  68.526  1.00  0.00    -0.120 C  
ENDROOT
BRANCH   2   5
HETATM    5  C   UNL     1      -8.670   7.348  69.435  1.00  0.00    -0.137 C  
BRANCH   5   6
HETATM    6  C   UNL     1      -7.829   6.355  70.286  1.00  0.00    -0.103 C  
HETATM    7  H   UNL     1      -6.438   4.975  69.964  1.00  0.00     0.000 HD 
HETATM    8  O   UNL     1      -6.953   5.581  69.443  1.00  0.00    -0.058 OA 
BRANCH   6   9
HETATM    9  C   UNL     1      -8.560   5.410  71.230  1.00  0.00    -0.128 C  
HETATM   10  C   UNL     1      -8.834   6.109  72.547  1.00  0.00    -0.124 C  
HETATM   11  O   UNL     1      -7.873   6.784  72.998  1.00  0.00    -0.097 OA 
HETATM   12  O   UNL     1     -10.029   6.030  72.937  1.00  0.00    -0.170 OA 
ENDBRANCH   6   9
ENDBRANCH   5   6
ENDBRANCH   2   5
TORSDOF 3
ENDMDL
MODEL      260
REMARK 921   NORMALIZED FREE ENERGY PREDICTED BY IDOCK:   -1.15 KCAL/MOL
REMARK 922        TOTAL FREE ENERGY PREDICTED BY IDOCK:   -1.71 KCAL/MOL
REMARK 923 INTER-LIGAND FREE ENERGY PREDICTED BY IDOCK:   -2.05 KCAL/MOL
REMARK 924 INTRA-LIGAND FREE ENERGY PREDICTED BY IDOCK:    0.34 KCAL/MOL
REMARK 927      BINDING AFFINITY PREDICTED BY RF-SCORE:    0.00 PKD
ROOT
HETATM    1  C   UNL     1     -12.557  13.095  65.569  1.00  0.00    -0.408 C  
HETATM    2  N   UNL     1     -11.240  13.852  65.499  1.00  0.00    -0.303 N  
HETATM    3  C   UNL     1     -11.293  14.751  64.269  1.00  0.00    -0.082 C  
HETATM    4  C   UNL     1     -10.090  12.879  65.356  1.00  0.00    -0.251 C  
ENDROOT
BRANCH   2   5
HETATM    5  C   UNL     1     -11.044  14.788  66.728  1.00  0.00    -0.338 C  
BRANCH   5   6
HETATM    6  C   UNL     1     -11.690  14.387  68.083  1.00  0.00    -0.342 C  
HETATM    7  H   UNL     1     -12.995  15.165  69.363  1.00  0.00     0.000 HD 
HETATM    8  O   UNL     1     -12.600  15.410  68.534  1.00  0.00     0.300 OA 
BRANCH   6   9
HETATM    9  C   UNL     1     -10.774  14.005  69.238  1.00  0.00    -0.144 C  
HETATM   10  C   UNL     1     -10.384  15.245  70.017  1.00  0.00    -0.221 C  
HETATM   11  O   UNL     1     -10.078  16.240  69.310  1.00  0.00    -0.243 OA 
HETATM   12  O   UNL     1     -10.555  15.151  71.261  1.00  0.00    -0.020 OA 
ENDBRANCH   6   9
ENDBRANCH   5   6
ENDBRANCH   2   5
TORSDOF 3
ENDMDL
MODEL      261
REMARK 921   NORMALIZED FREE ENERGY PREDICTED BY IDOCK:   -1.14 KCAL/MOL
REMARK 922        TOTAL FREE ENERGY PREDICTED BY IDOCK:   -1.70 KCAL/MOL
REMARK 923 INTER-LIGAND FREE ENERGY PREDICTED BY IDOCK:   -1.50 KCAL/MOL
REMARK 924 INTRA-LIGAND FREE ENERGY PREDICTED BY IDOCK:   -0.20 KCAL/MOL
REMARK 927      BINDING AFFINITY PREDICTED BY RF-SCORE:    0.00 PKD
ROOT
HETATM    1  C   UNL     1      -7.656  12.302  68.419  1.00  0.00    -0.128 C  
HETATM    2  N   UNL     1      -6.537  11.473  69.031  1.00  0.00    -0.080 N  
HETATM    3  C   UNL     1      -5.814  12.355  70.043  1.00  0.00    -0.151 C  
HETATM    4  C   UNL     1      -5.561  11.045  67.957  1.00  0.00    -0.042 C  
ENDROOT
BRANCH   2   5
HETATM    5  C   UNL     1      -7.088  10.250  69.821  1.00  0.00    -0.140 C  
BRANCH   5   6
HETATM    6  C   UNL     1      -8.457   9.645  69.401  1.00  0.00    -0.156 C  
HETATM    7  H   UNL     1     -10.270   9.454  70.191  1.00  0.00     0.000 HD 
HETATM    8  O   UNL     1      -9.433   9.824  70.447  1.00  0.00    -0.247 OA 
BRANCH   6   9
HETATM    9  C   UNL     1      -8.498   8.194  68.938  1.00  0.00    -0.130 C  
HETATM   10  C   UNL     1      -8.923   8.131  67.484  1.00  0.00    -0.137 C  
HETATM   11  O   UNL     1      -9.881   8.887  67.179  1.00  0.00    -0.175 OA 
HETATM   12  O   UNL     1      -8.169   7.436  66.753  1.00  0.00    -0.116 OA 
ENDBRANCH   6   9
ENDBRANCH   5   6
ENDBRANCH   2   5
TORSDOF 3
ENDMDL
MODEL      262
REMARK 921   NORMALIZED FREE ENERGY PREDICTED BY IDOCK:   -1.14 KCAL/MOL
REMARK 922        TOTAL FREE ENERGY PREDICTED BY IDOCK:   -1.70 KCAL/MOL
REMARK 923 INTER-LIGAND FREE ENERGY PREDICTED BY IDOCK:   -1.36 KCAL/MOL
REMARK 924 INTRA-LIGAND FREE ENERGY PREDICTED BY IDOCK:   -0.34 KCAL/MOL
REMARK 927      BINDING AFFINITY PREDICTED BY RF-SCORE:    0.00 PKD
ROOT
HETATM    1  C   UNL     1      -9.674   9.170  68.036  1.00  0.00    -0.154 C  
HETATM    2  N   UNL     1      -9.451   7.733  67.589  1.00  0.00    -0.142 N  
HETATM    3  C   UNL     1      -8.950   7.774  66.150  1.00  0.00    -0.163 C  
HETATM    4  C   UNL     1     -10.753   6.965  67.642  1.00  0.00    -0.274 C  
ENDROOT
BRANCH   2   5
HETATM    5  C   UNL     1      -8.341   7.032  68.427  1.00  0.00    -0.124 C  
BRANCH   5   6
HETATM    6  C   UNL     1      -8.479   5.514  68.729  1.00  0.00    -0.101 C  
HETATM    7  H   UNL     1      -8.879   4.371  70.303  1.00  0.00     0.000 HD 
HETATM    8  O   UNL     1      -8.795   5.300  70.119  1.00  0.00    -0.120 OA 
BRANCH   6   9
HETATM    9  C   UNL     1      -7.331   4.590  68.341  1.00  0.00    -0.065 C  
HETATM   10  C   UNL     1      -7.330   4.374  66.841  1.00  0.00    -0.080 C  
HETATM   11  O   UNL     1      -8.463   4.170  66.334  1.00  0.00    -0.108 OA 
HETATM   12  O   UNL     1      -6.214   4.568  66.290  1.00  0.00    -0.030 OA 
ENDBRANCH   6   9
ENDBRANCH   5   6
ENDBRANCH   2   5
TORSDOF 3
ENDMDL
MODEL      263
REMARK 921   NORMALIZED FREE ENERGY PREDICTED BY IDOCK:   -1.13 KCAL/MOL
REMARK 922        TOTAL FREE ENERGY PREDICTED BY IDOCK:   -1.70 KCAL/MOL
REMARK 923 INTER-LIGAND FREE ENERGY PREDICTED BY IDOCK:   -2.03 KCAL/MOL
REMARK 924 INTRA-LIGAND FREE ENERGY PREDICTED BY IDOCK:    0.34 KCAL/MOL
REMARK 927      BINDING AFFINITY PREDICTED BY RF-SCORE:    0.00 PKD
ROOT
HETATM    1  C   UNL     1     -10.736   9.327  71.233  1.00  0.00    -0.352 C  
HETATM    2  N   UNL     1      -9.902   8.986  70.008  1.00  0.00    -0.176 N  
HETATM    3  C   UNL     1      -8.526   9.613  70.201  1.00  0.00    -0.204 C  
HETATM    4  C   UNL     1     -10.544   9.564  68.766  1.00  0.00    -0.214 C  
ENDROOT
BRANCH   2   5
HETATM    5  C   UNL     1      -9.677   7.451  69.871  1.00  0.00    -0.171 C  
BRANCH   5   6
HETATM    6  C   UNL     1      -8.893   6.708  70.988  1.00  0.00    -0.142 C  
HETATM    7  H   UNL     1      -7.285   5.548  71.116  1.00  0.00     0.000 HD 
HETATM    8  O   UNL     1      -7.765   6.002  70.432  1.00  0.00    -0.092 OA 
BRANCH   6   9
HETATM    9  C   UNL     1      -9.658   5.762  71.905  1.00  0.00    -0.172 C  
HETATM   10  C   UNL     1      -9.946   4.464  71.179  1.00  0.00    -0.173 C  
HETATM   11  O   UNL     1     -10.338   4.597  69.991  1.00  0.00    -0.205 OA 
HETATM   12  O   UNL     1      -9.620   3.429  71.818  1.00  0.00    -0.133 OA 
ENDBRANCH   6   9
ENDBRANCH   5   6
ENDBRANCH   2   5
TORSDOF 3
ENDMDL
MODEL      264
REMARK 921   NORMALIZED FREE ENERGY PREDICTED BY IDOCK:   -1.13 KCAL/MOL
REMARK 922        TOTAL FREE ENERGY PREDICTED BY IDOCK:   -1.69 KCAL/MOL
REMARK 923 INTER-LIGAND FREE ENERGY PREDICTED BY IDOCK:   -1.48 KCAL/MOL
REMARK 924 INTRA-LIGAND FREE ENERGY PREDICTED BY IDOCK:   -0.21 KCAL/MOL
REMARK 927      BINDING AFFINITY PREDICTED BY RF-SCORE:    0.00 PKD
ROOT
HETATM    1  C   UNL     1      -8.708   7.218  69.397  1.00  0.00    -0.137 C  
HETATM    2  N   UNL     1      -9.305   8.004  70.555  1.00  0.00    -0.154 N  
HETATM    3  C   UNL     1     -10.123   7.031  71.396  1.00  0.00    -0.189 C  
HETATM    4  C   UNL     1     -10.213   9.093  70.029  1.00  0.00    -0.204 C  
ENDROOT
BRANCH   2   5
HETATM    5  C   UNL     1      -8.203   8.583  71.491  1.00  0.00    -0.155 C  
BRANCH   5   6
HETATM    6  C   UNL     1      -6.711   8.375  71.106  1.00  0.00    -0.052 C  
HETATM    7  H   UNL     1      -5.278   7.053  71.487  1.00  0.00     0.000 HD 
HETATM    8  O   UNL     1      -6.190   7.180  71.722  1.00  0.00    -0.037 OA 
BRANCH   6   9
HETATM    9  C   UNL     1      -5.733   9.517  71.351  1.00  0.00    -0.074 C  
HETATM   10  C   UNL     1      -5.920  10.588  70.294  1.00  0.00    -0.104 C  
HETATM   11  O   UNL     1      -6.059  10.157  69.121  1.00  0.00    -0.040 OA 
HETATM   12  O   UNL     1      -6.050  11.753  70.755  1.00  0.00    -0.337 OA 
ENDBRANCH   6   9
ENDBRANCH   5   6
ENDBRANCH   2   5
TORSDOF 3
ENDMDL
MODEL      265
REMARK 921   NORMALIZED FREE ENERGY PREDICTED BY IDOCK:   -1.12 KCAL/MOL
REMARK 922        TOTAL FREE ENERGY PREDICTED BY IDOCK:   -1.68 KCAL/MOL
REMARK 923 INTER-LIGAND FREE ENERGY PREDICTED BY IDOCK:   -2.49 KCAL/MOL
REMARK 924 INTRA-LIGAND FREE ENERGY PREDICTED BY IDOCK:    0.81 KCAL/MOL
REMARK 927      BINDING AFFINITY PREDICTED BY RF-SCORE:    0.00 PKD
ROOT
HETATM    1  C   UNL     1     -11.914  14.636  71.056  1.00  0.00    -0.339 C  
HETATM    2  N   UNL     1     -11.246  14.787  69.698  1.00  0.00    -0.266 N  
HETATM    3  C   UNL     1     -12.148  15.668  68.840  1.00  0.00    -0.161 C  
HETATM    4  C   UNL     1     -11.099  13.433  69.039  1.00  0.00    -0.249 C  
ENDROOT
BRANCH   2   5
HETATM    5  C   UNL     1      -9.877  15.521  69.804  1.00  0.00    -0.262 C  
BRANCH   5   6
HETATM    6  C   UNL     1      -9.357  16.316  68.574  1.00  0.00    -0.213 C  
HETATM    7  H   UNL     1      -9.976  17.834  67.451  1.00  0.00     0.000 HD 
HETATM    8  O   UNL     1     -10.294  17.347  68.204  1.00  0.00    -0.327 OA 
BRANCH   6   9
HETATM    9  C   UNL     1      -8.965  15.540  67.322  1.00  0.00    -0.216 C  
HETATM   10  C   UNL     1      -7.562  14.988  67.479  1.00  0.00    -0.192 C  
HETATM   11  O   UNL     1      -6.729  15.790  67.975  1.00  0.00    -0.114 OA 
HETATM   12  O   UNL     1      -7.457  13.760  67.222  1.00  0.00    -0.150 OA 
ENDBRANCH   6   9
ENDBRANCH   5   6
ENDBRANCH   2   5
TORSDOF 3
ENDMDL
MODEL      266
REMARK 921   NORMALIZED FREE ENERGY PREDICTED BY IDOCK:   -1.12 KCAL/MOL
REMARK 922        TOTAL FREE ENERGY PREDICTED BY IDOCK:   -1.67 KCAL/MOL
REMARK 923 INTER-LIGAND FREE ENERGY PREDICTED BY IDOCK:   -1.98 KCAL/MOL
REMARK 924 INTRA-LIGAND FREE ENERGY PREDICTED BY IDOCK:    0.31 KCAL/MOL
REMARK 927      BINDING AFFINITY PREDICTED BY RF-SCORE:    0.00 PKD
ROOT
HETATM    1  C   UNL     1     -11.825  11.946  69.257  1.00  0.00    -0.318 C  
HETATM    2  N   UNL     1     -10.948  12.178  68.036  1.00  0.00    -0.216 N  
HETATM    3  C   UNL     1      -9.944  13.269  68.393  1.00  0.00    -0.226 C  
HETATM    4  C   UNL     1     -11.794  12.641  66.870  1.00  0.00    -0.355 C  
ENDROOT
BRANCH   2   5
HETATM    5  C   UNL     1     -10.118  10.912  67.670  1.00  0.00    -0.179 C  
BRANCH   5   6
HETATM    6  C   UNL     1      -8.654  11.093  67.180  1.00  0.00    -0.139 C  
HETATM    7  H   UNL     1      -7.693  11.126  65.442  1.00  0.00     0.000 HD 
HETATM    8  O   UNL     1      -8.588  11.015  65.742  1.00  0.00    -0.180 OA 
BRANCH   6   9
HETATM    9  C   UNL     1      -7.575  10.193  67.768  1.00  0.00    -0.090 C  
HETATM   10  C   UNL     1      -7.580   8.854  67.057  1.00  0.00    -0.094 C  
HETATM   11  O   UNL     1      -8.721   8.368  66.850  1.00  0.00    -0.125 OA 
HETATM   12  O   UNL     1      -6.448   8.481  66.649  1.00  0.00    -0.058 OA 
ENDBRANCH   6   9
ENDBRANCH   5   6
ENDBRANCH   2   5
TORSDOF 3
ENDMDL
MODEL      267
REMARK 921   NORMALIZED FREE ENERGY PREDICTED BY IDOCK:   -1.09 KCAL/MOL
REMARK 922        TOTAL FREE ENERGY PREDICTED BY IDOCK:   -1.65 KCAL/MOL
REMARK 923 INTER-LIGAND FREE ENERGY PREDICTED BY IDOCK:   -1.97 KCAL/MOL
REMARK 924 INTRA-LIGAND FREE ENERGY PREDICTED BY IDOCK:    0.32 KCAL/MOL
REMARK 927      BINDING AFFINITY PREDICTED BY RF-SCORE:    0.00 PKD
ROOT
HETATM    1  C   UNL     1      -8.798   8.804  70.395  1.00  0.00    -0.168 C  
HETATM    2  N   UNL     1      -9.816   9.115  69.308  1.00  0.00    -0.170 N  
HETATM    3  C   UNL     1     -10.837  10.079  69.900  1.00  0.00    -0.285 C  
HETATM    4  C   UNL     1     -10.519   7.846  68.878  1.00  0.00    -0.190 C  
ENDROOT
BRANCH   2   5
HETATM    5  C   UNL     1      -9.164   9.844  68.096  1.00  0.00    -0.128 C  
BRANCH   5   6
HETATM    6  C   UNL     1      -8.755  11.335  68.253  1.00  0.00    -0.158 C  
HETATM    7  H   UNL     1      -8.965  13.020  67.224  1.00  0.00     0.000 HD 
HETATM    8  O   UNL     1      -9.215  12.108  67.127  1.00  0.00    -0.182 OA 
BRANCH   6   9
HETATM    9  C   UNL     1      -7.288  11.662  68.504  1.00  0.00    -0.102 C  
HETATM   10  C   UNL     1      -6.542  11.717  67.185  1.00  0.00    -0.143 C  
HETATM   11  O   UNL     1      -6.823  10.794  66.378  1.00  0.00    -0.119 OA 
HETATM   12  O   UNL     1      -5.849  12.756  67.025  1.00  0.00    -0.324 OA 
ENDBRANCH   6   9
ENDBRANCH   5   6
ENDBRANCH   2   5
TORSDOF 3
ENDMDL
MODEL      268
REMARK 921   NORMALIZED FREE ENERGY PREDICTED BY IDOCK:   -1.08 KCAL/MOL
REMARK 922        TOTAL FREE ENERGY PREDICTED BY IDOCK:   -1.63 KCAL/MOL
REMARK 923 INTER-LIGAND FREE ENERGY PREDICTED BY IDOCK:   -1.62 KCAL/MOL
REMARK 924 INTRA-LIGAND FREE ENERGY PREDICTED BY IDOCK:   -0.00 KCAL/MOL
REMARK 927      BINDING AFFINITY PREDICTED BY RF-SCORE:    0.00 PKD
ROOT
HETATM    1  C   UNL     1     -11.489  10.929  68.396  1.00  0.00    -0.304 C  
HETATM    2  N   UNL     1     -10.309  11.848  68.118  1.00  0.00    -0.193 N  
HETATM    3  C   UNL     1     -10.701  13.248  68.575  1.00  0.00    -0.262 C  
HETATM    4  C   UNL     1     -10.010  11.873  66.635  1.00  0.00    -0.199 C  
ENDROOT
BRANCH   2   5
HETATM    5  C   UNL     1      -9.054  11.444  68.946  1.00  0.00    -0.011 C  
BRANCH   5   6
HETATM    6  C   UNL     1      -8.298  10.140  68.569  1.00  0.00    -0.116 C  
HETATM    7  H   UNL     1      -7.959   8.363  69.390  1.00  0.00     0.000 HD 
HETATM    8  O   UNL     1      -8.421   9.161  69.621  1.00  0.00    -0.118 OA 
BRANCH   6   9
HETATM    9  C   UNL     1      -6.832  10.241  68.165  1.00  0.00    -0.066 C  
HETATM   10  C   UNL     1      -6.728  10.681  66.719  1.00  0.00    -0.103 C  
HETATM   11  O   UNL     1      -7.530  10.114  65.933  1.00  0.00    -0.112 OA 
HETATM   12  O   UNL     1      -5.949  11.653  66.528  1.00  0.00    -0.141 OA 
ENDBRANCH   6   9
ENDBRANCH   5   6
ENDBRANCH   2   5
TORSDOF 3
ENDMDL
MODEL      269
REMARK 921   NORMALIZED FREE ENERGY PREDICTED BY IDOCK:   -1.05 KCAL/MOL
REMARK 922        TOTAL FREE ENERGY PREDICTED BY IDOCK:   -1.60 KCAL/MOL
REMARK 923 INTER-LIGAND FREE ENERGY PREDICTED BY IDOCK:   -1.94 KCAL/MOL
REMARK 924 INTRA-LIGAND FREE ENERGY PREDICTED BY IDOCK:    0.34 KCAL/MOL
REMARK 927      BINDING AFFINITY PREDICTED BY RF-SCORE:    0.00 PKD
ROOT
HETATM    1  C   UNL     1      -8.757  10.580  65.527  1.00  0.00    -0.185 C  
HETATM    2  N   UNL     1      -8.716   9.421  66.512  1.00  0.00    -0.133 N  
HETATM    3  C   UNL     1      -7.523   8.548  66.142  1.00  0.00    -0.089 C  
HETATM    4  C   UNL     1      -9.985   8.604  66.404  1.00  0.00    -0.260 C  
ENDROOT
BRANCH   2   5
HETATM    5  C   UNL     1      -8.475   9.910  67.970  1.00  0.00    -0.117 C  
BRANCH   5   6
HETATM    6  C   UNL     1      -8.958   9.017  69.147  1.00  0.00    -0.140 C  
HETATM    7  H   UNL     1     -10.147   9.207  70.727  1.00  0.00     0.000 HD 
HETATM    8  O   UNL     1      -9.851   9.753  70.008  1.00  0.00    -0.227 OA 
BRANCH   6   9
HETATM    9  C   UNL     1      -7.911   8.323  70.009  1.00  0.00    -0.104 C  
HETATM   10  C   UNL     1      -7.262   9.329  70.939  1.00  0.00    -0.102 C  
HETATM   11  O   UNL     1      -6.968  10.430  70.406  1.00  0.00    -0.253 OA 
HETATM   12  O   UNL     1      -7.234   8.975  72.147  1.00  0.00    -0.329 OA 
ENDBRANCH   6   9
ENDBRANCH   5   6
ENDBRANCH   2   5
TORSDOF 3
ENDMDL
MODEL      270
REMARK 921   NORMALIZED FREE ENERGY PREDICTED BY IDOCK:   -1.04 KCAL/MOL
REMARK 922        TOTAL FREE ENERGY PREDICTED BY IDOCK:   -1.58 KCAL/MOL
REMARK 923 INTER-LIGAND FREE ENERGY PREDICTED BY IDOCK:   -2.17 KCAL/MOL
REMARK 924 INTRA-LIGAND FREE ENERGY PREDICTED BY IDOCK:    0.58 KCAL/MOL
REMARK 927      BINDING AFFINITY PREDICTED BY RF-SCORE:    0.00 PKD
ROOT
HETATM    1  C   UNL     1      -9.731   5.393  69.246  1.00  0.00    -0.164 C  
HETATM    2  N   UNL     1      -9.946   6.754  69.890  1.00  0.00    -0.171 N  
HETATM    3  C   UNL     1     -11.437   6.897  70.173  1.00  0.00    -0.303 C  
HETATM    4  C   UNL     1      -9.511   7.850  68.943  1.00  0.00    -0.150 C  
ENDROOT
BRANCH   2   5
HETATM    5  C   UNL     1      -9.219   6.865  71.263  1.00  0.00    -0.157 C  
BRANCH   5   6
HETATM    6  C   UNL     1      -8.863   5.560  72.028  1.00  0.00    -0.135 C  
HETATM    7  H   UNL     1      -7.587   4.052  71.821  1.00  0.00     0.000 HD 
HETATM    8  O   UNL     1      -7.805   4.850  71.353  1.00  0.00    -0.097 OA 
BRANCH   6   9
HETATM    9  C   UNL     1      -9.983   4.578  72.348  1.00  0.00    -0.229 C  
HETATM   10  C   UNL     1     -10.946   5.203  73.337  1.00  0.00    -0.320 C  
HETATM   11  O   UNL     1     -10.403   5.825  74.286  1.00  0.00    -0.266 OA 
HETATM   12  O   UNL     1     -12.157   5.132  72.997  1.00  0.00    -0.176 OA 
ENDBRANCH   6   9
ENDBRANCH   5   6
ENDBRANCH   2   5
TORSDOF 3
ENDMDL
MODEL      271
REMARK 921   NORMALIZED FREE ENERGY PREDICTED BY IDOCK:   -1.04 KCAL/MOL
REMARK 922        TOTAL FREE ENERGY PREDICTED BY IDOCK:   -1.58 KCAL/MOL
REMARK 923 INTER-LIGAND FREE ENERGY PREDICTED BY IDOCK:   -1.30 KCAL/MOL
REMARK 924 INTRA-LIGAND FREE ENERGY PREDICTED BY IDOCK:   -0.28 KCAL/MOL
REMARK 927      BINDING AFFINITY PREDICTED BY RF-SCORE:    0.00 PKD
ROOT
HETATM    1  C   UNL     1     -10.092   9.198  71.023  1.00  0.00    -0.303 C  
HETATM    2  N   UNL     1      -9.201   9.025  69.803  1.00  0.00    -0.160 N  
HETATM    3  C   UNL     1      -7.797   9.471  70.193  1.00  0.00    -0.160 C  
HETATM    4  C   UNL     1      -9.702   9.892  68.669  1.00  0.00    -0.157 C  
ENDROOT
BRANCH   2   5
HETATM    5  C   UNL     1      -9.091   7.532  69.373  1.00  0.00    -0.142 C  
BRANCH   5   6
HETATM    6  C   UNL     1      -7.724   7.002  68.859  1.00  0.00    -0.110 C  
HETATM    7  H   UNL     1      -6.843   6.705  67.103  1.00  0.00     0.000 HD 
HETATM    8  O   UNL     1      -7.679   7.029  67.418  1.00  0.00    -0.106 OA 
BRANCH   6   9
HETATM    9  C   UNL     1      -7.250   5.635  69.336  1.00  0.00    -0.066 C  
HETATM   10  C   UNL     1      -6.484   5.782  70.636  1.00  0.00    -0.032 C  
HETATM   11  O   UNL     1      -5.673   6.743  70.667  1.00  0.00    -0.023 OA 
HETATM   12  O   UNL     1      -6.865   5.007  71.553  1.00  0.00    -0.044 OA 
ENDBRANCH   6   9
ENDBRANCH   5   6
ENDBRANCH   2   5
TORSDOF 3
ENDMDL
MODEL      272
REMARK 921   NORMALIZED FREE ENERGY PREDICTED BY IDOCK:   -1.04 KCAL/MOL
REMARK 922        TOTAL FREE ENERGY PREDICTED BY IDOCK:   -1.58 KCAL/MOL
REMARK 923 INTER-LIGAND FREE ENERGY PREDICTED BY IDOCK:   -2.91 KCAL/MOL
REMARK 924 INTRA-LIGAND FREE ENERGY PREDICTED BY IDOCK:    1.34 KCAL/MOL
REMARK 927      BINDING AFFINITY PREDICTED BY RF-SCORE:    0.00 PKD
ROOT
HETATM    1  C   UNL     1      -5.710  17.043  69.987  1.00  0.00    -0.227 C  
HETATM    2  N   UNL     1      -6.326  16.229  68.859  1.00  0.00    -0.133 N  
HETATM    3  C   UNL     1      -7.256  15.201  69.491  1.00  0.00    -0.204 C  
HETATM    4  C   UNL     1      -5.241  15.512  68.086  1.00  0.00    -0.119 C  
ENDROOT
BRANCH   2   5
HETATM    5  C   UNL     1      -7.205  17.110  67.923  1.00  0.00    -0.170 C  
BRANCH   5   6
HETATM    6  C   UNL     1      -7.494  18.580  68.335  1.00  0.00    -0.296 C  
HETATM    7  H   UNL     1      -6.752  19.910  69.610  1.00  0.00     0.000 HD 
HETATM    8  O   UNL     1      -6.575  19.010  69.358  1.00  0.00    -0.298 OA 
BRANCH   6   9
HETATM    9  C   UNL     1      -8.909  18.949  68.763  1.00  0.00    -0.331 C  
HETATM   10  C   UNL     1      -9.569  19.788  67.686  1.00  0.00    -0.355 C  
HETATM   11  O   UNL     1      -8.838  20.684  67.191  1.00  0.00    -0.321 OA 
HETATM   12  O   UNL     1     -10.710  19.383  67.340  1.00  0.00    -0.460 OA 
ENDBRANCH   6   9
ENDBRANCH   5   6
ENDBRANCH   2   5
TORSDOF 3
ENDMDL
MODEL      273
REMARK 921   NORMALIZED FREE ENERGY PREDICTED BY IDOCK:   -1.02 KCAL/MOL
REMARK 922        TOTAL FREE ENERGY PREDICTED BY IDOCK:   -1.57 KCAL/MOL
REMARK 923 INTER-LIGAND FREE ENERGY PREDICTED BY IDOCK:   -1.34 KCAL/MOL
REMARK 924 INTRA-LIGAND FREE ENERGY PREDICTED BY IDOCK:   -0.23 KCAL/MOL
REMARK 927      BINDING AFFINITY PREDICTED BY RF-SCORE:    0.00 PKD
ROOT
HETATM    1  C   UNL     1      -6.164   4.806  64.783  1.00  0.00    -0.033 C  
HETATM    2  N   UNL     1      -7.344   4.205  65.533  1.00  0.00    -0.075 N  
HETATM    3  C   UNL     1      -7.184   2.689  65.499  1.00  0.00    -0.066 C  
HETATM    4  C   UNL     1      -8.639   4.585  64.850  1.00  0.00    -0.135 C  
ENDROOT
BRANCH   2   5
HETATM    5  C   UNL     1      -7.347   4.619  67.034  1.00  0.00    -0.081 C  
BRANCH   5   6
HETATM    6  C   UNL     1      -7.795   6.059  67.411  1.00  0.00    -0.102 C  
HETATM    7  H   UNL     1      -6.946   7.715  68.105  1.00  0.00     0.000 HD 
HETATM    8  O   UNL     1      -6.672   6.834  67.875  1.00  0.00    -0.062 OA 
BRANCH   6   9
HETATM    9  C   UNL     1      -8.945   6.226  68.396  1.00  0.00    -0.116 C  
HETATM   10  C   UNL     1     -10.109   6.917  67.715  1.00  0.00    -0.161 C  
HETATM   11  O   UNL     1      -9.793   7.895  66.988  1.00  0.00    -0.183 OA 
HETATM   12  O   UNL     1     -11.215   6.333  67.859  1.00  0.00    -0.323 OA 
ENDBRANCH   6   9
ENDBRANCH   5   6
ENDBRANCH   2   5
TORSDOF 3
ENDMDL
MODEL      274
REMARK 921   NORMALIZED FREE ENERGY PREDICTED BY IDOCK:   -0.96 KCAL/MOL
REMARK 922        TOTAL FREE ENERGY PREDICTED BY IDOCK:   -1.49 KCAL/MOL
REMARK 923 INTER-LIGAND FREE ENERGY PREDICTED BY IDOCK:   -1.10 KCAL/MOL
REMARK 924 INTRA-LIGAND FREE ENERGY PREDICTED BY IDOCK:   -0.39 KCAL/MOL
REMARK 927      BINDING AFFINITY PREDICTED BY RF-SCORE:    0.00 PKD
ROOT
HETATM    1  C   UNL     1      -7.196   5.135  64.820  1.00  0.00    -0.062 C  
HETATM    2  N   UNL     1      -8.498   4.991  65.593  1.00  0.00    -0.123 N  
HETATM    3  C   UNL     1      -8.204   4.159  66.836  1.00  0.00    -0.101 C  
HETATM    4  C   UNL     1      -9.526   4.274  64.745  1.00  0.00    -0.167 C  
ENDROOT
BRANCH   2   5
HETATM    5  C   UNL     1      -9.030   6.366  66.093  1.00  0.00    -0.150 C  
BRANCH   5   6
HETATM    6  C   UNL     1      -8.669   6.829  67.532  1.00  0.00    -0.119 C  
HETATM    7  H   UNL     1      -9.638   7.247  69.215  1.00  0.00     0.000 HD 
HETATM    8  O   UNL     1      -9.859   6.964  68.334  1.00  0.00    -0.139 OA 
BRANCH   6   9
HETATM    9  C   UNL     1      -7.821   8.083  67.699  1.00  0.00    -0.122 C  
HETATM   10  C   UNL     1      -6.369   7.764  67.407  1.00  0.00    -0.055 C  
HETATM   11  O   UNL     1      -5.952   6.687  67.905  1.00  0.00    -0.021 OA 
HETATM   12  O   UNL     1      -5.819   8.551  66.591  1.00  0.00    -0.046 OA 
ENDBRANCH   6   9
ENDBRANCH   5   6
ENDBRANCH   2   5
TORSDOF 3
ENDMDL
MODEL      275
REMARK 921   NORMALIZED FREE ENERGY PREDICTED BY IDOCK:   -0.90 KCAL/MOL
REMARK 922        TOTAL FREE ENERGY PREDICTED BY IDOCK:   -1.42 KCAL/MOL
REMARK 923 INTER-LIGAND FREE ENERGY PREDICTED BY IDOCK:   -2.82 KCAL/MOL
REMARK 924 INTRA-LIGAND FREE ENERGY PREDICTED BY IDOCK:    1.39 KCAL/MOL
REMARK 927      BINDING AFFINITY PREDICTED BY RF-SCORE:    0.00 PKD
ROOT
HETATM    1  C   UNL     1      -8.975  15.077  68.257  1.00  0.00    -0.174 C  
HETATM    2  N   UNL     1     -10.279  15.047  67.474  1.00  0.00    -0.233 N  
HETATM    3  C   UNL     1     -10.460  16.419  66.834  1.00  0.00    -0.289 C  
HETATM    4  C   UNL     1     -11.438  14.775  68.407  1.00  0.00    -0.314 C  
ENDROOT
BRANCH   2   5
HETATM    5  C   UNL     1     -10.230  14.016  66.308  1.00  0.00    -0.296 C  
BRANCH   5   6
HETATM    6  C   UNL     1     -11.082  12.720  66.421  1.00  0.00    -0.285 C  
HETATM    7  H   UNL     1     -12.643  12.090  67.475  1.00  0.00     0.000 HD 
HETATM    8  O   UNL     1     -12.122  12.882  67.406  1.00  0.00    -0.333 OA 
BRANCH   6   9
HETATM    9  C   UNL     1     -10.365  11.401  66.679  1.00  0.00    -0.272 C  
HETATM   10  C   UNL     1      -9.406  11.107  65.542  1.00  0.00    -0.223 C  
HETATM   11  O   UNL     1      -9.864  11.328  64.391  1.00  0.00    -0.239 OA 
HETATM   12  O   UNL     1      -8.238  10.817  65.912  1.00  0.00    -0.157 OA 
ENDBRANCH   6   9
ENDBRANCH   5   6
ENDBRANCH   2   5
TORSDOF 3
ENDMDL
MODEL      276
REMARK 921   NORMALIZED FREE ENERGY PREDICTED BY IDOCK:   -0.90 KCAL/MOL
REMARK 922        TOTAL FREE ENERGY PREDICTED BY IDOCK:   -1.42 KCAL/MOL
REMARK 923 INTER-LIGAND FREE ENERGY PREDICTED BY IDOCK:   -1.18 KCAL/MOL
REMARK 924 INTRA-LIGAND FREE ENERGY PREDICTED BY IDOCK:   -0.24 KCAL/MOL
REMARK 927      BINDING AFFINITY PREDICTED BY RF-SCORE:    0.00 PKD
ROOT
HETATM    1  C   UNL     1      -8.198   2.307  70.194  1.00  0.00    -0.041 C  
HETATM    2  N   UNL     1      -8.875   2.793  71.467  1.00  0.00    -0.073 N  
HETATM    3  C   UNL     1      -7.779   3.084  72.486  1.00  0.00    -0.058 C  
HETATM    4  C   UNL     1      -9.789   1.717  72.011  1.00  0.00    -0.134 C  
ENDROOT
BRANCH   2   5
HETATM    5  C   UNL     1      -9.640   4.130  71.241  1.00  0.00    -0.172 C  
BRANCH   5   6
HETATM    6  C   UNL     1      -8.824   5.415  70.929  1.00  0.00    -0.138 C  
HETATM    7  H   UNL     1      -8.311   7.083  71.878  1.00  0.00     0.000 HD 
HETATM    8  O   UNL     1      -8.811   6.297  72.069  1.00  0.00    -0.138 OA 
BRANCH   6   9
HETATM    9  C   UNL     1      -9.189   6.223  69.690  1.00  0.00    -0.144 C  
HETATM   10  C   UNL     1      -8.400   5.720  68.498  1.00  0.00    -0.107 C  
HETATM   11  O   UNL     1      -7.185   5.486  68.726  1.00  0.00    -0.067 OA 
HETATM   12  O   UNL     1      -9.100   5.472  67.480  1.00  0.00    -0.109 OA 
ENDBRANCH   6   9
ENDBRANCH   5   6
ENDBRANCH   2   5
TORSDOF 3
ENDMDL
MODEL      277
REMARK 921   NORMALIZED FREE ENERGY PREDICTED BY IDOCK:   -0.85 KCAL/MOL
REMARK 922        TOTAL FREE ENERGY PREDICTED BY IDOCK:   -1.36 KCAL/MOL
REMARK 923 INTER-LIGAND FREE ENERGY PREDICTED BY IDOCK:   -1.19 KCAL/MOL
REMARK 924 INTRA-LIGAND FREE ENERGY PREDICTED BY IDOCK:   -0.17 KCAL/MOL
REMARK 927      BINDING AFFINITY PREDICTED BY RF-SCORE:    0.00 PKD
ROOT
HETATM    1  C   UNL     1      -7.351   7.955  70.422  1.00  0.00    -0.068 C  
HETATM    2  N   UNL     1      -7.295   8.963  69.284  1.00  0.00    -0.069 N  
HETATM    3  C   UNL     1      -5.836   9.363  69.096  1.00  0.00    -0.035 C  
HETATM    4  C   UNL     1      -8.106  10.190  69.639  1.00  0.00    -0.168 C  
ENDROOT
BRANCH   2   5
HETATM    5  C   UNL     1      -7.764   8.341  67.936  1.00  0.00    -0.103 C  
BRANCH   5   6
HETATM    6  C   UNL     1      -7.551   6.819  67.701  1.00  0.00    -0.106 C  
HETATM    7  H   UNL     1      -6.063   5.622  67.154  1.00  0.00     0.000 HD 
HETATM    8  O   UNL     1      -6.193   6.553  67.297  1.00  0.00    -0.033 OA 
BRANCH   6   9
HETATM    9  C   UNL     1      -8.495   6.093  66.751  1.00  0.00    -0.111 C  
HETATM   10  C   UNL     1      -9.606   5.428  67.540  1.00  0.00    -0.126 C  
HETATM   11  O   UNL     1      -9.233   4.836  68.585  1.00  0.00    -0.111 OA 
HETATM   12  O   UNL     1     -10.764   5.678  67.114  1.00  0.00    -0.264 OA 
ENDBRANCH   6   9
ENDBRANCH   5   6
ENDBRANCH   2   5
TORSDOF 3
ENDMDL
MODEL      278
REMARK 921   NORMALIZED FREE ENERGY PREDICTED BY IDOCK:   -0.84 KCAL/MOL
REMARK 922        TOTAL FREE ENERGY PREDICTED BY IDOCK:   -1.34 KCAL/MOL
REMARK 923 INTER-LIGAND FREE ENERGY PREDICTED BY IDOCK:   -1.95 KCAL/MOL
REMARK 924 INTRA-LIGAND FREE ENERGY PREDICTED BY IDOCK:    0.61 KCAL/MOL
REMARK 927      BINDING AFFINITY PREDICTED BY RF-SCORE:    0.00 PKD
ROOT
HETATM    1  C   UNL     1      -7.428   6.533  68.245  1.00  0.00    -0.095 C  
HETATM    2  N   UNL     1      -7.707   8.027  68.298  1.00  0.00    -0.115 N  
HETATM    3  C   UNL     1      -7.703   8.545  66.864  1.00  0.00    -0.091 C  
HETATM    4  C   UNL     1      -6.622   8.729  69.084  1.00  0.00    -0.047 C  
ENDROOT
BRANCH   2   5
HETATM    5  C   UNL     1      -9.119   8.332  68.878  1.00  0.00    -0.147 C  
BRANCH   5   6
HETATM    6  C   UNL     1      -9.351   8.166  70.406  1.00  0.00    -0.158 C  
HETATM    7  H   UNL     1      -9.331   6.686  71.731  1.00  0.00     0.000 HD 
HETATM    8  O   UNL     1      -9.189   6.787  70.797  1.00  0.00    -0.157 OA 
BRANCH   6   9
HETATM    9  C   UNL     1     -10.649   8.694  71.005  1.00  0.00    -0.278 C  
HETATM   10  C   UNL     1     -11.676   7.581  71.066  1.00  0.00    -0.292 C  
HETATM   11  O   UNL     1     -11.738   6.859  70.037  1.00  0.00    -0.286 OA 
HETATM   12  O   UNL     1     -12.227   7.446  72.191  1.00  0.00    -0.285 OA 
ENDBRANCH   6   9
ENDBRANCH   5   6
ENDBRANCH   2   5
TORSDOF 3
ENDMDL
MODEL      279
REMARK 921   NORMALIZED FREE ENERGY PREDICTED BY IDOCK:   -0.83 KCAL/MOL
REMARK 922        TOTAL FREE ENERGY PREDICTED BY IDOCK:   -1.33 KCAL/MOL
REMARK 923 INTER-LIGAND FREE ENERGY PREDICTED BY IDOCK:   -1.81 KCAL/MOL
REMARK 924 INTRA-LIGAND FREE ENERGY PREDICTED BY IDOCK:    0.47 KCAL/MOL
REMARK 927      BINDING AFFINITY PREDICTED BY RF-SCORE:    0.00 PKD
ROOT
HETATM    1  C   UNL     1      -9.576   7.891  69.316  1.00  0.00    -0.157 C  
HETATM    2  N   UNL     1      -8.309   8.577  68.829  1.00  0.00    -0.121 N  
HETATM    3  C   UNL     1      -8.701   9.506  67.686  1.00  0.00    -0.122 C  
HETATM    4  C   UNL     1      -7.325   7.546  68.318  1.00  0.00    -0.096 C  
ENDROOT
BRANCH   2   5
HETATM    5  C   UNL     1      -7.674   9.472  69.933  1.00  0.00    -0.129 C  
BRANCH   5   6
HETATM    6  C   UNL     1      -7.199   8.806  71.254  1.00  0.00    -0.095 C  
HETATM    7  H   UNL     1      -5.546   7.943  71.939  1.00  0.00     0.000 HD 
HETATM    8  O   UNL     1      -5.837   8.350  71.131  1.00  0.00    -0.033 OA 
BRANCH   6   9
HETATM    9  C   UNL     1      -8.040   7.680  71.842  1.00  0.00    -0.112 C  
HETATM   10  C   UNL     1      -8.666   8.133  73.146  1.00  0.00    -0.240 C  
HETATM   11  O   UNL     1      -7.896   8.770  73.911  1.00  0.00    -0.411 OA 
HETATM   12  O   UNL     1      -9.906   7.931  73.223  1.00  0.00    -0.293 OA 
ENDBRANCH   6   9
ENDBRANCH   5   6
ENDBRANCH   2   5
TORSDOF 3
ENDMDL
MODEL      280
REMARK 921   NORMALIZED FREE ENERGY PREDICTED BY IDOCK:   -0.82 KCAL/MOL
REMARK 922        TOTAL FREE ENERGY PREDICTED BY IDOCK:   -1.33 KCAL/MOL
REMARK 923 INTER-LIGAND FREE ENERGY PREDICTED BY IDOCK:   -1.09 KCAL/MOL
REMARK 924 INTRA-LIGAND FREE ENERGY PREDICTED BY IDOCK:   -0.24 KCAL/MOL
REMARK 927      BINDING AFFINITY PREDICTED BY RF-SCORE:    0.00 PKD
ROOT
HETATM    1  C   UNL     1      -7.645   3.787  68.302  1.00  0.00    -0.061 C  
HETATM    2  N   UNL     1      -7.705   3.242  69.721  1.00  0.00    -0.044 N  
HETATM    3  C   UNL     1      -6.565   2.242  69.876  1.00  0.00    -0.029 C  
HETATM    4  C   UNL     1      -9.023   2.536  69.950  1.00  0.00    -0.098 C  
ENDROOT
BRANCH   2   5
HETATM    5  C   UNL     1      -7.465   4.358  70.780  1.00  0.00    -0.052 C  
BRANCH   5   6
HETATM    6  C   UNL     1      -8.620   5.347  71.099  1.00  0.00    -0.125 C  
HETATM    7  H   UNL     1      -9.258   7.106  70.434  1.00  0.00     0.000 HD 
HETATM    8  O   UNL     1      -8.551   6.502  70.239  1.00  0.00    -0.133 OA 
BRANCH   6   9
HETATM    9  C   UNL     1      -8.795   5.819  72.537  1.00  0.00    -0.130 C  
HETATM   10  C   UNL     1      -9.643   4.823  73.305  1.00  0.00    -0.129 C  
HETATM   11  O   UNL     1     -10.652   4.397  72.685  1.00  0.00    -0.190 OA 
HETATM   12  O   UNL     1      -9.145   4.455  74.401  1.00  0.00    -0.103 OA 
ENDBRANCH   6   9
ENDBRANCH   5   6
ENDBRANCH   2   5
TORSDOF 3
ENDMDL
MODEL      281
REMARK 921   NORMALIZED FREE ENERGY PREDICTED BY IDOCK:   -0.79 KCAL/MOL
REMARK 922        TOTAL FREE ENERGY PREDICTED BY IDOCK:   -1.29 KCAL/MOL
REMARK 923 INTER-LIGAND FREE ENERGY PREDICTED BY IDOCK:   -1.77 KCAL/MOL
REMARK 924 INTRA-LIGAND FREE ENERGY PREDICTED BY IDOCK:    0.48 KCAL/MOL
REMARK 927      BINDING AFFINITY PREDICTED BY RF-SCORE:    0.00 PKD
ROOT
HETATM    1  C   UNL     1     -10.124   7.890  69.940  1.00  0.00    -0.197 C  
HETATM    2  N   UNL     1      -9.266   6.743  70.453  1.00  0.00    -0.156 N  
HETATM    3  C   UNL     1     -10.169   5.825  71.269  1.00  0.00    -0.215 C  
HETATM    4  C   UNL     1      -8.165   7.278  71.342  1.00  0.00    -0.106 C  
ENDROOT
BRANCH   2   5
HETATM    5  C   UNL     1      -8.692   5.884  69.288  1.00  0.00    -0.119 C  
BRANCH   5   6
HETATM    6  C   UNL     1      -8.320   6.588  67.953  1.00  0.00    -0.115 C  
HETATM    7  H   UNL     1      -7.515   8.314  67.391  1.00  0.00     0.000 HD 
HETATM    8  O   UNL     1      -7.743   7.884  68.208  1.00  0.00    -0.115 OA 
BRANCH   6   9
HETATM    9  C   UNL     1      -9.397   6.733  66.885  1.00  0.00    -0.176 C  
HETATM   10  C   UNL     1      -9.562   5.422  66.142  1.00  0.00    -0.153 C  
HETATM   11  O   UNL     1      -8.486   4.847  65.836  1.00  0.00    -0.115 OA 
HETATM   12  O   UNL     1     -10.753   5.022  66.055  1.00  0.00    -0.298 OA 
ENDBRANCH   6   9
ENDBRANCH   5   6
ENDBRANCH   2   5
TORSDOF 3
ENDMDL
MODEL      282
REMARK 921   NORMALIZED FREE ENERGY PREDICTED BY IDOCK:   -0.74 KCAL/MOL
REMARK 922        TOTAL FREE ENERGY PREDICTED BY IDOCK:   -1.23 KCAL/MOL
REMARK 923 INTER-LIGAND FREE ENERGY PREDICTED BY IDOCK:   -1.80 KCAL/MOL
REMARK 924 INTRA-LIGAND FREE ENERGY PREDICTED BY IDOCK:    0.57 KCAL/MOL
REMARK 927      BINDING AFFINITY PREDICTED BY RF-SCORE:    0.00 PKD
ROOT
HETATM    1  C   UNL     1     -10.772   7.810  69.790  1.00  0.00    -0.236 C  
HETATM    2  N   UNL     1     -10.273   7.443  71.179  1.00  0.00    -0.194 N  
HETATM    3  C   UNL     1     -11.124   6.283  71.680  1.00  0.00    -0.274 C  
HETATM    4  C   UNL     1     -10.435   8.621  72.115  1.00  0.00    -0.340 C  
ENDROOT
BRANCH   2   5
HETATM    5  C   UNL     1      -8.801   6.937  71.151  1.00  0.00    -0.142 C  
BRANCH   5   6
HETATM    6  C   UNL     1      -7.999   7.045  69.824  1.00  0.00    -0.124 C  
HETATM    7  H   UNL     1      -7.262   8.493  68.680  1.00  0.00     0.000 HD 
HETATM    8  O   UNL     1      -7.753   8.426  69.492  1.00  0.00    -0.091 OA 
BRANCH   6   9
HETATM    9  C   UNL     1      -8.539   6.334  68.590  1.00  0.00    -0.121 C  
HETATM   10  C   UNL     1      -8.367   4.836  68.744  1.00  0.00    -0.082 C  
HETATM   11  O   UNL     1      -7.254   4.475  69.207  1.00  0.00    -0.051 OA 
HETATM   12  O   UNL     1      -9.411   4.169  68.518  1.00  0.00    -0.146 OA 
ENDBRANCH   6   9
ENDBRANCH   5   6
ENDBRANCH   2   5
TORSDOF 3
ENDMDL
MODEL      283
REMARK 921   NORMALIZED FREE ENERGY PREDICTED BY IDOCK:   -0.74 KCAL/MOL
REMARK 922        TOTAL FREE ENERGY PREDICTED BY IDOCK:   -1.23 KCAL/MOL
REMARK 923 INTER-LIGAND FREE ENERGY PREDICTED BY IDOCK:   -1.72 KCAL/MOL
REMARK 924 INTRA-LIGAND FREE ENERGY PREDICTED BY IDOCK:    0.50 KCAL/MOL
REMARK 927      BINDING AFFINITY PREDICTED BY RF-SCORE:    0.00 PKD
ROOT
HETATM    1  C   UNL     1     -11.489  10.929  68.396  1.00  0.00    -0.304 C  
HETATM    2  N   UNL     1     -10.309  11.848  68.118  1.00  0.00    -0.193 N  
HETATM    3  C   UNL     1     -10.701  13.248  68.575  1.00  0.00    -0.262 C  
HETATM    4  C   UNL     1     -10.010  11.873  66.635  1.00  0.00    -0.199 C  
ENDROOT
BRANCH   2   5
HETATM    5  C   UNL     1      -9.054  11.444  68.946  1.00  0.00    -0.011 C  
BRANCH   5   6
HETATM    6  C   UNL     1      -8.298  10.140  68.569  1.00  0.00    -0.116 C  
HETATM    7  H   UNL     1      -7.365   9.403  66.977  1.00  0.00     0.000 HD 
HETATM    8  O   UNL     1      -7.828  10.201  67.208  1.00  0.00    -0.102 OA 
BRANCH   6   9
HETATM    9  C   UNL     1      -9.002   8.806  68.784  1.00  0.00    -0.138 C  
HETATM   10  C   UNL     1      -8.905   8.402  70.242  1.00  0.00    -0.142 C  
HETATM   11  O   UNL     1      -7.775   8.577  70.766  1.00  0.00    -0.071 OA 
HETATM   12  O   UNL     1     -10.005   8.080  70.764  1.00  0.00    -0.186 OA 
ENDBRANCH   6   9
ENDBRANCH   5   6
ENDBRANCH   2   5
TORSDOF 3
ENDMDL
MODEL      284
REMARK 921   NORMALIZED FREE ENERGY PREDICTED BY IDOCK:   -0.71 KCAL/MOL
REMARK 922        TOTAL FREE ENERGY PREDICTED BY IDOCK:   -1.20 KCAL/MOL
REMARK 923 INTER-LIGAND FREE ENERGY PREDICTED BY IDOCK:   -1.94 KCAL/MOL
REMARK 924 INTRA-LIGAND FREE ENERGY PREDICTED BY IDOCK:    0.74 KCAL/MOL
REMARK 927      BINDING AFFINITY PREDICTED BY RF-SCORE:    0.00 PKD
ROOT
HETATM    1  C   UNL     1      -9.803   9.429  66.749  1.00  0.00    -0.218 C  
HETATM    2  N   UNL     1      -9.567  10.708  65.960  1.00  0.00    -0.189 N  
HETATM    3  C   UNL     1     -10.392  11.809  66.616  1.00  0.00    -0.218 C  
HETATM    4  C   UNL     1     -10.025  10.527  64.530  1.00  0.00    -0.345 C  
ENDROOT
BRANCH   2   5
HETATM    5  C   UNL     1      -8.080  11.165  66.029  1.00  0.00    -0.064 C  
BRANCH   5   6
HETATM    6  C   UNL     1      -7.488  11.577  67.406  1.00  0.00    -0.127 C  
HETATM    7  H   UNL     1      -7.652  10.992  69.297  1.00  0.00     0.000 HD 
HETATM    8  O   UNL     1      -8.014  10.740  68.455  1.00  0.00    -0.114 OA 
BRANCH   6   9
HETATM    9  C   UNL     1      -7.604  13.033  67.838  1.00  0.00    -0.144 C  
HETATM   10  C   UNL     1      -6.229  13.671  67.869  1.00  0.00    -0.155 C  
HETATM   11  O   UNL     1      -5.327  12.961  68.384  1.00  0.00    -0.059 OA 
HETATM   12  O   UNL     1      -6.151  14.765  67.250  1.00  0.00    -0.306 OA 
ENDBRANCH   6   9
ENDBRANCH   5   6
ENDBRANCH   2   5
TORSDOF 3
ENDMDL
MODEL      285
REMARK 921   NORMALIZED FREE ENERGY PREDICTED BY IDOCK:   -0.70 KCAL/MOL
REMARK 922        TOTAL FREE ENERGY PREDICTED BY IDOCK:   -1.19 KCAL/MOL
REMARK 923 INTER-LIGAND FREE ENERGY PREDICTED BY IDOCK:   -1.77 KCAL/MOL
REMARK 924 INTRA-LIGAND FREE ENERGY PREDICTED BY IDOCK:    0.58 KCAL/MOL
REMARK 927      BINDING AFFINITY PREDICTED BY RF-SCORE:    0.00 PKD
ROOT
HETATM    1  C   UNL     1      -9.898   6.894  69.211  1.00  0.00    -0.157 C  
HETATM    2  N   UNL     1      -8.775   7.908  69.368  1.00  0.00    -0.137 N  
HETATM    3  C   UNL     1      -9.099   9.093  68.467  1.00  0.00    -0.132 C  
HETATM    4  C   UNL     1      -7.461   7.296  68.935  1.00  0.00    -0.101 C  
ENDROOT
BRANCH   2   5
HETATM    5  C   UNL     1      -8.694   8.462  70.821  1.00  0.00    -0.150 C  
BRANCH   5   6
HETATM    6  C   UNL     1      -9.248   7.592  71.985  1.00  0.00    -0.132 C  
HETATM    7  H   UNL     1     -10.990   7.319  72.899  1.00  0.00     0.000 HD 
HETATM    8  O   UNL     1     -10.651   7.851  72.187  1.00  0.00    -0.221 OA 
BRANCH   6   9
HETATM    9  C   UNL     1      -8.540   7.648  73.333  1.00  0.00    -0.238 C  
HETATM   10  C   UNL     1      -7.101   8.082  73.139  1.00  0.00    -0.103 C  
HETATM   11  O   UNL     1      -6.508   7.537  72.172  1.00  0.00    -0.049 OA 
HETATM   12  O   UNL     1      -6.740   9.029  73.887  1.00  0.00    -0.347 OA 
ENDBRANCH   6   9
ENDBRANCH   5   6
ENDBRANCH   2   5
TORSDOF 3
ENDMDL
MODEL      286
REMARK 921   NORMALIZED FREE ENERGY PREDICTED BY IDOCK:   -0.70 KCAL/MOL
REMARK 922        TOTAL FREE ENERGY PREDICTED BY IDOCK:   -1.18 KCAL/MOL
REMARK 923 INTER-LIGAND FREE ENERGY PREDICTED BY IDOCK:   -2.16 KCAL/MOL
REMARK 924 INTRA-LIGAND FREE ENERGY PREDICTED BY IDOCK:    0.97 KCAL/MOL
REMARK 927      BINDING AFFINITY PREDICTED BY RF-SCORE:    0.00 PKD
ROOT
HETATM    1  C   UNL     1     -11.748  11.528  68.924  1.00  0.00    -0.339 C  
HETATM    2  N   UNL     1     -10.804  11.057  67.829  1.00  0.00    -0.229 N  
HETATM    3  C   UNL     1      -9.396  11.492  68.219  1.00  0.00    -0.190 C  
HETATM    4  C   UNL     1     -11.178  11.698  66.511  1.00  0.00    -0.294 C  
ENDROOT
BRANCH   2   5
HETATM    5  C   UNL     1     -10.775   9.504  67.719  1.00  0.00    -0.242 C  
BRANCH   5   6
HETATM    6  C   UNL     1     -10.758   8.662  69.026  1.00  0.00    -0.101 C  
HETATM    7  H   UNL     1      -9.905   8.769  70.817  1.00  0.00     0.000 HD 
HETATM    8  O   UNL     1      -9.916   9.283  70.018  1.00  0.00    -0.185 OA 
BRANCH   6   9
HETATM    9  C   UNL     1     -10.396   7.185  68.933  1.00  0.00    -0.202 C  
HETATM   10  C   UNL     1      -8.888   7.026  68.926  1.00  0.00    -0.130 C  
HETATM   11  O   UNL     1      -8.272   7.843  68.194  1.00  0.00    -0.121 OA 
HETATM   12  O   UNL     1      -8.452   6.189  69.760  1.00  0.00    -0.124 OA 
ENDBRANCH   6   9
ENDBRANCH   5   6
ENDBRANCH   2   5
TORSDOF 3
ENDMDL
MODEL      287
REMARK 921   NORMALIZED FREE ENERGY PREDICTED BY IDOCK:   -0.69 KCAL/MOL
REMARK 922        TOTAL FREE ENERGY PREDICTED BY IDOCK:   -1.18 KCAL/MOL
REMARK 923 INTER-LIGAND FREE ENERGY PREDICTED BY IDOCK:   -0.98 KCAL/MOL
REMARK 924 INTRA-LIGAND FREE ENERGY PREDICTED BY IDOCK:   -0.20 KCAL/MOL
REMARK 927      BINDING AFFINITY PREDICTED BY RF-SCORE:    0.00 PKD
ROOT
HETATM    1  C   UNL     1      -7.279   8.808  68.491  1.00  0.00    -0.074 C  
HETATM    2  N   UNL     1      -8.280   7.719  68.846  1.00  0.00    -0.126 N  
HETATM    3  C   UNL     1      -9.487   7.892  67.932  1.00  0.00    -0.145 C  
HETATM    4  C   UNL     1      -8.719   7.869  70.286  1.00  0.00    -0.138 C  
ENDROOT
BRANCH   2   5
HETATM    5  C   UNL     1      -7.711   6.297  68.568  1.00  0.00    -0.101 C  
BRANCH   5   6
HETATM    6  C   UNL     1      -7.198   5.450  69.766  1.00  0.00    -0.064 C  
HETATM    7  H   UNL     1      -5.450   5.027  70.609  1.00  0.00     0.000 HD 
HETATM    8  O   UNL     1      -5.764   5.545  69.877  1.00  0.00    -0.014 OA 
BRANCH   6   9
HETATM    9  C   UNL     1      -7.598   3.982  69.840  1.00  0.00    -0.052 C  
HETATM   10  C   UNL     1      -8.286   3.703  71.162  1.00  0.00    -0.067 C  
HETATM   11  O   UNL     1      -7.738   4.228  72.165  1.00  0.00    -0.076 OA 
HETATM   12  O   UNL     1      -9.387   3.101  71.056  1.00  0.00    -0.118 OA 
ENDBRANCH   6   9
ENDBRANCH   5   6
ENDBRANCH   2   5
TORSDOF 3
ENDMDL
MODEL      288
REMARK 921   NORMALIZED FREE ENERGY PREDICTED BY IDOCK:   -0.69 KCAL/MOL
REMARK 922        TOTAL FREE ENERGY PREDICTED BY IDOCK:   -1.18 KCAL/MOL
REMARK 923 INTER-LIGAND FREE ENERGY PREDICTED BY IDOCK:   -1.09 KCAL/MOL
REMARK 924 INTRA-LIGAND FREE ENERGY PREDICTED BY IDOCK:   -0.08 KCAL/MOL
REMARK 927      BINDING AFFINITY PREDICTED BY RF-SCORE:    0.00 PKD
ROOT
HETATM    1  C   UNL     1      -7.279   8.808  68.491  1.00  0.00    -0.074 C  
HETATM    2  N   UNL     1      -8.267   7.707  68.842  1.00  0.00    -0.127 N  
HETATM    3  C   UNL     1      -9.483   7.878  67.938  1.00  0.00    -0.145 C  
HETATM    4  C   UNL     1      -8.698   7.838  70.286  1.00  0.00    -0.143 C  
ENDROOT
BRANCH   2   5
HETATM    5  C   UNL     1      -7.687   6.293  68.547  1.00  0.00    -0.101 C  
BRANCH   5   6
HETATM    6  C   UNL     1      -8.116   5.567  67.241  1.00  0.00    -0.101 C  
HETATM    7  H   UNL     1      -9.430   4.175  66.711  1.00  0.00     0.000 HD 
HETATM    8  O   UNL     1      -9.168   4.619  67.510  1.00  0.00    -0.119 OA 
BRANCH   6   9
HETATM    9  C   UNL     1      -7.042   4.881  66.406  1.00  0.00    -0.072 C  
HETATM   10  C   UNL     1      -7.068   5.422  64.990  1.00  0.00    -0.065 C  
HETATM   11  O   UNL     1      -8.217   5.559  64.496  1.00  0.00    -0.123 OA 
HETATM   12  O   UNL     1      -5.945   5.791  64.556  1.00  0.00    -0.024 OA 
ENDBRANCH   6   9
ENDBRANCH   5   6
ENDBRANCH   2   5
TORSDOF 3
ENDMDL
MODEL      289
REMARK 921   NORMALIZED FREE ENERGY PREDICTED BY IDOCK:   -0.66 KCAL/MOL
REMARK 922        TOTAL FREE ENERGY PREDICTED BY IDOCK:   -1.14 KCAL/MOL
REMARK 923 INTER-LIGAND FREE ENERGY PREDICTED BY IDOCK:   -1.87 KCAL/MOL
REMARK 924 INTRA-LIGAND FREE ENERGY PREDICTED BY IDOCK:    0.73 KCAL/MOL
REMARK 927      BINDING AFFINITY PREDICTED BY RF-SCORE:    0.00 PKD
ROOT
HETATM    1  C   UNL     1     -10.194   8.544  69.386  1.00  0.00    -0.211 C  
HETATM    2  N   UNL     1     -10.241   7.035  69.568  1.00  0.00    -0.193 N  
HETATM    3  C   UNL     1      -9.650   6.403  68.314  1.00  0.00    -0.123 C  
HETATM    4  C   UNL     1     -11.674   6.577  69.729  1.00  0.00    -0.226 C  
ENDROOT
BRANCH   2   5
HETATM    5  C   UNL     1      -9.357   6.568  70.762  1.00  0.00    -0.158 C  
BRANCH   5   6
HETATM    6  C   UNL     1      -9.764   5.284  71.537  1.00  0.00    -0.162 C  
HETATM    7  H   UNL     1     -10.670   3.563  71.132  1.00  0.00     0.000 HD 
HETATM    8  O   UNL     1     -10.421   4.349  70.658  1.00  0.00    -0.004 OA 
BRANCH   6   9
HETATM    9  C   UNL     1     -10.598   5.435  72.802  1.00  0.00    -0.273 C  
HETATM   10  C   UNL     1      -9.766   6.082  73.892  1.00  0.00    -0.180 C  
HETATM   11  O   UNL     1      -8.593   5.641  73.995  1.00  0.00    -0.117 OA 
HETATM   12  O   UNL     1     -10.319   7.066  74.450  1.00  0.00    -0.221 OA 
ENDBRANCH   6   9
ENDBRANCH   5   6
ENDBRANCH   2   5
TORSDOF 3
ENDMDL
MODEL      290
REMARK 921   NORMALIZED FREE ENERGY PREDICTED BY IDOCK:   -0.63 KCAL/MOL
REMARK 922        TOTAL FREE ENERGY PREDICTED BY IDOCK:   -1.11 KCAL/MOL
REMARK 923 INTER-LIGAND FREE ENERGY PREDICTED BY IDOCK:   -1.04 KCAL/MOL
REMARK 924 INTRA-LIGAND FREE ENERGY PREDICTED BY IDOCK:   -0.06 KCAL/MOL
REMARK 927      BINDING AFFINITY PREDICTED BY RF-SCORE:    0.00 PKD
ROOT
HETATM    1  C   UNL     1      -6.810   2.607  69.788  1.00  0.00    -0.034 C  
HETATM    2  N   UNL     1      -7.880   3.209  70.686  1.00  0.00    -0.043 N  
HETATM    3  C   UNL     1      -7.176   4.094  71.708  1.00  0.00    -0.054 C  
HETATM    4  C   UNL     1      -8.628   2.111  71.409  1.00  0.00    -0.062 C  
ENDROOT
BRANCH   2   5
HETATM    5  C   UNL     1      -8.850   4.132  69.891  1.00  0.00    -0.082 C  
BRANCH   5   6
HETATM    6  C   UNL     1      -9.247   5.504  70.505  1.00  0.00    -0.148 C  
HETATM    7  H   UNL     1     -10.919   6.430  71.046  1.00  0.00     0.000 HD 
HETATM    8  O   UNL     1     -10.677   5.591  70.670  1.00  0.00    -0.269 OA 
BRANCH   6   9
HETATM    9  C   UNL     1      -8.757   6.774  69.820  1.00  0.00    -0.141 C  
HETATM   10  C   UNL     1      -7.577   7.345  70.582  1.00  0.00    -0.086 C  
HETATM   11  O   UNL     1      -7.706   7.348  71.833  1.00  0.00    -0.083 OA 
HETATM   12  O   UNL     1      -6.576   7.608  69.865  1.00  0.00    -0.040 OA 
ENDBRANCH   6   9
ENDBRANCH   5   6
ENDBRANCH   2   5
TORSDOF 3
ENDMDL
MODEL      291
REMARK 921   NORMALIZED FREE ENERGY PREDICTED BY IDOCK:   -0.61 KCAL/MOL
REMARK 922        TOTAL FREE ENERGY PREDICTED BY IDOCK:   -1.08 KCAL/MOL
REMARK 923 INTER-LIGAND FREE ENERGY PREDICTED BY IDOCK:   -0.85 KCAL/MOL
REMARK 924 INTRA-LIGAND FREE ENERGY PREDICTED BY IDOCK:   -0.22 KCAL/MOL
REMARK 927      BINDING AFFINITY PREDICTED BY RF-SCORE:    0.00 PKD
ROOT
HETATM    1  C   UNL     1      -6.285   4.836  64.792  1.00  0.00    -0.033 C  
HETATM    2  N   UNL     1      -7.564   4.310  65.427  1.00  0.00    -0.084 N  
HETATM    3  C   UNL     1      -7.432   2.795  65.534  1.00  0.00    -0.072 C  
HETATM    4  C   UNL     1      -8.752   4.646  64.553  1.00  0.00    -0.151 C  
ENDROOT
BRANCH   2   5
HETATM    5  C   UNL     1      -7.753   4.844  66.877  1.00  0.00    -0.092 C  
BRANCH   5   6
HETATM    6  C   UNL     1      -6.870   6.029  67.358  1.00  0.00    -0.063 C  
HETATM    7  H   UNL     1      -5.443   6.330  68.706  1.00  0.00     0.000 HD 
HETATM    8  O   UNL     1      -5.983   5.605  68.412  1.00  0.00    -0.015 OA 
BRANCH   6   9
HETATM    9  C   UNL     1      -7.559   7.319  67.788  1.00  0.00    -0.110 C  
HETATM   10  C   UNL     1      -7.228   8.428  66.809  1.00  0.00    -0.078 C  
HETATM   11  O   UNL     1      -6.022   8.480  66.454  1.00  0.00    -0.047 OA 
HETATM   12  O   UNL     1      -8.231   9.056  66.380  1.00  0.00    -0.108 OA 
ENDBRANCH   6   9
ENDBRANCH   5   6
ENDBRANCH   2   5
TORSDOF 3
ENDMDL
MODEL      292
REMARK 921   NORMALIZED FREE ENERGY PREDICTED BY IDOCK:   -0.57 KCAL/MOL
REMARK 922        TOTAL FREE ENERGY PREDICTED BY IDOCK:   -1.04 KCAL/MOL
REMARK 923 INTER-LIGAND FREE ENERGY PREDICTED BY IDOCK:   -1.89 KCAL/MOL
REMARK 924 INTRA-LIGAND FREE ENERGY PREDICTED BY IDOCK:    0.85 KCAL/MOL
REMARK 927      BINDING AFFINITY PREDICTED BY RF-SCORE:    0.00 PKD
ROOT
HETATM    1  C   UNL     1      -8.151  11.841  66.439  1.00  0.00     0.032 C  
HETATM    2  N   UNL     1      -8.248  12.658  67.719  1.00  0.00    -0.157 N  
HETATM    3  C   UNL     1      -8.756  14.044  67.339  1.00  0.00    -0.207 C  
HETATM    4  C   UNL     1      -6.883  12.785  68.358  1.00  0.00    -0.091 C  
ENDROOT
BRANCH   2   5
HETATM    5  C   UNL     1      -9.289  12.058  68.710  1.00  0.00     0.054 C  
BRANCH   5   6
HETATM    6  C   UNL     1     -10.551  11.356  68.135  1.00  0.00    -0.189 C  
HETATM    7  H   UNL     1     -11.507  11.273  66.396  1.00  0.00     0.000 HD 
HETATM    8  O   UNL     1     -10.736  11.703  66.748  1.00  0.00    -0.237 OA 
BRANCH   6   9
HETATM    9  C   UNL     1     -11.876  11.535  68.865  1.00  0.00    -0.406 C  
HETATM   10  C   UNL     1     -11.969  10.547  70.011  1.00  0.00    -0.288 C  
HETATM   11  O   UNL     1     -11.587   9.380  69.737  1.00  0.00    -0.054 OA 
HETATM   12  O   UNL     1     -12.284  11.063  71.115  1.00  0.00    -0.346 OA 
ENDBRANCH   6   9
ENDBRANCH   5   6
ENDBRANCH   2   5
TORSDOF 3
ENDMDL
MODEL      293
REMARK 921   NORMALIZED FREE ENERGY PREDICTED BY IDOCK:   -0.54 KCAL/MOL
REMARK 922        TOTAL FREE ENERGY PREDICTED BY IDOCK:   -1.00 KCAL/MOL
REMARK 923 INTER-LIGAND FREE ENERGY PREDICTED BY IDOCK:   -1.39 KCAL/MOL
REMARK 924 INTRA-LIGAND FREE ENERGY PREDICTED BY IDOCK:    0.39 KCAL/MOL
REMARK 927      BINDING AFFINITY PREDICTED BY RF-SCORE:    0.00 PKD
ROOT
HETATM    1  C   UNL     1      -7.574   3.724  68.223  1.00  0.00    -0.061 C  
HETATM    2  N   UNL     1      -7.959   2.885  69.432  1.00  0.00    -0.045 N  
HETATM    3  C   UNL     1      -6.860   1.851  69.640  1.00  0.00    -0.033 C  
HETATM    4  C   UNL     1      -9.270   2.176  69.174  1.00  0.00    -0.132 C  
ENDROOT
BRANCH   2   5
HETATM    5  C   UNL     1      -8.020   3.739  70.733  1.00  0.00    -0.054 C  
BRANCH   5   6
HETATM    6  C   UNL     1      -9.375   4.379  71.145  1.00  0.00    -0.148 C  
HETATM    7  H   UNL     1     -11.041   3.803  72.059  1.00  0.00     0.000 HD 
HETATM    8  O   UNL     1     -10.213   3.411  71.807  1.00  0.00    -0.116 OA 
BRANCH   6   9
HETATM    9  C   UNL     1     -10.197   5.087  70.075  1.00  0.00    -0.339 C  
HETATM   10  C   UNL     1      -9.720   6.518  69.924  1.00  0.00    -0.164 C  
HETATM   11  O   UNL     1      -9.497   7.119  71.007  1.00  0.00    -0.159 OA 
HETATM   12  O   UNL     1      -9.480   6.862  68.737  1.00  0.00    -0.137 OA 
ENDBRANCH   6   9
ENDBRANCH   5   6
ENDBRANCH   2   5
TORSDOF 3
ENDMDL
MODEL      294
REMARK 921   NORMALIZED FREE ENERGY PREDICTED BY IDOCK:   -0.41 KCAL/MOL
REMARK 922        TOTAL FREE ENERGY PREDICTED BY IDOCK:   -0.85 KCAL/MOL
REMARK 923 INTER-LIGAND FREE ENERGY PREDICTED BY IDOCK:   -1.40 KCAL/MOL
REMARK 924 INTRA-LIGAND FREE ENERGY PREDICTED BY IDOCK:    0.55 KCAL/MOL
REMARK 927      BINDING AFFINITY PREDICTED BY RF-SCORE:    0.00 PKD
ROOT
HETATM    1  C   UNL     1      -7.657  12.278  68.357  1.00  0.00    -0.128 C  
HETATM    2  N   UNL     1      -6.450  11.602  68.989  1.00  0.00    -0.074 N  
HETATM    3  C   UNL     1      -5.929  12.527  70.084  1.00  0.00    -0.142 C  
HETATM    4  C   UNL     1      -5.368  11.399  67.952  1.00  0.00    -0.044 C  
ENDROOT
BRANCH   2   5
HETATM    5  C   UNL     1      -6.835  10.262  69.683  1.00  0.00    -0.094 C  
BRANCH   5   6
HETATM    6  C   UNL     1      -7.820   9.303  68.960  1.00  0.00    -0.082 C  
HETATM    7  H   UNL     1      -7.834   8.201  67.307  1.00  0.00     0.000 HD 
HETATM    8  O   UNL     1      -7.231   8.789  67.749  1.00  0.00    -0.082 OA 
BRANCH   6   9
HETATM    9  C   UNL     1      -9.223   9.806  68.645  1.00  0.00    -0.137 C  
HETATM   10  C   UNL     1     -10.250   8.935  69.342  1.00  0.00    -0.209 C  
HETATM   11  O   UNL     1     -10.026   7.698  69.278  1.00  0.00    -0.173 OA 
HETATM   12  O   UNL     1     -11.107   9.575  70.006  1.00  0.00    -0.236 OA 
ENDBRANCH   6   9
ENDBRANCH   5   6
ENDBRANCH   2   5
TORSDOF 3
ENDMDL
MODEL      295
REMARK 921   NORMALIZED FREE ENERGY PREDICTED BY IDOCK:   -0.35 KCAL/MOL
REMARK 922        TOTAL FREE ENERGY PREDICTED BY IDOCK:   -0.77 KCAL/MOL
REMARK 923 INTER-LIGAND FREE ENERGY PREDICTED BY IDOCK:   -1.31 KCAL/MOL
REMARK 924 INTRA-LIGAND FREE ENERGY PREDICTED BY IDOCK:    0.54 KCAL/MOL
REMARK 927      BINDING AFFINITY PREDICTED BY RF-SCORE:    0.00 PKD
ROOT
HETATM    1  C   UNL     1      -7.539   5.044  64.944  1.00  0.00    -0.078 C  
HETATM    2  N   UNL     1      -8.719   4.576  65.782  1.00  0.00    -0.119 N  
HETATM    3  C   UNL     1      -8.163   3.731  66.923  1.00  0.00    -0.096 C  
HETATM    4  C   UNL     1      -9.648   3.728  64.942  1.00  0.00    -0.177 C  
ENDROOT
BRANCH   2   5
HETATM    5  C   UNL     1      -9.473   5.770  66.438  1.00  0.00    -0.156 C  
BRANCH   5   6
HETATM    6  C   UNL     1      -8.690   7.081  66.726  1.00  0.00    -0.123 C  
HETATM    7  H   UNL     1      -7.808   8.513  65.669  1.00  0.00     0.000 HD 
HETATM    8  O   UNL     1      -8.286   7.711  65.493  1.00  0.00    -0.129 OA 
BRANCH   6   9
HETATM    9  C   UNL     1      -7.487   7.018  67.659  1.00  0.00    -0.098 C  
HETATM   10  C   UNL     1      -7.955   7.017  69.100  1.00  0.00    -0.119 C  
HETATM   11  O   UNL     1      -8.875   7.835  69.360  1.00  0.00    -0.138 OA 
HETATM   12  O   UNL     1      -7.456   6.101  69.806  1.00  0.00    -0.077 OA 
ENDBRANCH   6   9
ENDBRANCH   5   6
ENDBRANCH   2   5
TORSDOF 3
ENDMDL
MODEL      296
REMARK 921   NORMALIZED FREE ENERGY PREDICTED BY IDOCK:   -0.18 KCAL/MOL
REMARK 922        TOTAL FREE ENERGY PREDICTED BY IDOCK:   -0.57 KCAL/MOL
REMARK 923 INTER-LIGAND FREE ENERGY PREDICTED BY IDOCK:   -1.32 KCAL/MOL
REMARK 924 INTRA-LIGAND FREE ENERGY PREDICTED BY IDOCK:    0.75 KCAL/MOL
REMARK 927      BINDING AFFINITY PREDICTED BY RF-SCORE:    0.00 PKD
ROOT
HETATM    1  C   UNL     1      -6.260   8.345  69.066  1.00  0.00    -0.043 C  
HETATM    2  N   UNL     1      -7.410   7.356  69.179  1.00  0.00    -0.087 N  
HETATM    3  C   UNL     1      -8.697   8.113  68.872  1.00  0.00    -0.137 C  
HETATM    4  C   UNL     1      -7.481   6.801  70.585  1.00  0.00    -0.083 C  
ENDROOT
BRANCH   2   5
HETATM    5  C   UNL     1      -7.300   6.217  68.122  1.00  0.00    -0.089 C  
BRANCH   5   6
HETATM    6  C   UNL     1      -7.715   6.518  66.654  1.00  0.00    -0.099 C  
HETATM    7  H   UNL     1      -7.448   7.978  65.335  1.00  0.00     0.000 HD 
HETATM    8  O   UNL     1      -7.195   7.795  66.232  1.00  0.00    -0.072 OA 
BRANCH   6   9
HETATM    9  C   UNL     1      -9.192   6.446  66.289  1.00  0.00    -0.162 C  
HETATM   10  C   UNL     1      -9.517   5.075  65.730  1.00  0.00    -0.157 C  
HETATM   11  O   UNL     1      -8.673   4.621  64.914  1.00  0.00    -0.133 OA 
HETATM   12  O   UNL     1     -10.513   4.520  66.264  1.00  0.00    -0.259 OA 
ENDBRANCH   6   9
ENDBRANCH   5   6
ENDBRANCH   2   5
TORSDOF 3
ENDMDL
MODEL      297
REMARK 921   NORMALIZED FREE ENERGY PREDICTED BY IDOCK:   -0.16 KCAL/MOL
REMARK 922        TOTAL FREE ENERGY PREDICTED BY IDOCK:   -0.55 KCAL/MOL
REMARK 923 INTER-LIGAND FREE ENERGY PREDICTED BY IDOCK:   -1.45 KCAL/MOL
REMARK 924 INTRA-LIGAND FREE ENERGY PREDICTED BY IDOCK:    0.90 KCAL/MOL
REMARK 927      BINDING AFFINITY PREDICTED BY RF-SCORE:    0.00 PKD
ROOT
HETATM    1  C   UNL     1      -8.121   2.342  70.249  1.00  0.00    -0.041 C  
HETATM    2  N   UNL     1      -8.232   2.901  71.660  1.00  0.00    -0.057 N  
HETATM    3  C   UNL     1      -6.872   2.734  72.327  1.00  0.00    -0.026 C  
HETATM    4  C   UNL     1      -9.270   2.128  72.443  1.00  0.00    -0.077 C  
ENDROOT
BRANCH   2   5
HETATM    5  C   UNL     1      -8.542   4.427  71.655  1.00  0.00    -0.113 C  
BRANCH   5   6
HETATM    6  C   UNL     1      -9.563   4.979  70.621  1.00  0.00    -0.184 C  
HETATM    7  H   UNL     1     -10.214   4.487  68.810  1.00  0.00     0.000 HD 
HETATM    8  O   UNL     1      -9.590   4.150  69.442  1.00  0.00    -0.178 OA 
BRANCH   6   9
HETATM    9  C   UNL     1      -9.444   6.436  70.191  1.00  0.00    -0.170 C  
HETATM   10  C   UNL     1     -10.208   7.320  71.156  1.00  0.00    -0.190 C  
HETATM   11  O   UNL     1     -11.338   6.883  71.494  1.00  0.00    -0.247 OA 
HETATM   12  O   UNL     1      -9.548   8.299  71.595  1.00  0.00    -0.165 OA 
ENDBRANCH   6   9
ENDBRANCH   5   6
ENDBRANCH   2   5
TORSDOF 3
ENDMDL
MODEL      298
REMARK 921   NORMALIZED FREE ENERGY PREDICTED BY IDOCK:   -0.15 KCAL/MOL
REMARK 922        TOTAL FREE ENERGY PREDICTED BY IDOCK:   -0.54 KCAL/MOL
REMARK 923 INTER-LIGAND FREE ENERGY PREDICTED BY IDOCK:   -0.89 KCAL/MOL
REMARK 924 INTRA-LIGAND FREE ENERGY PREDICTED BY IDOCK:    0.35 KCAL/MOL
REMARK 927      BINDING AFFINITY PREDICTED BY RF-SCORE:    0.00 PKD
ROOT
HETATM    1  C   UNL     1      -6.600   2.450  69.832  1.00  0.00    -0.033 C  
HETATM    2  N   UNL     1      -6.979   2.864  71.246  1.00  0.00    -0.032 N  
HETATM    3  C   UNL     1      -5.687   3.156  72.000  1.00  0.00    -0.008 C  
HETATM    4  C   UNL     1      -7.715   1.737  71.936  1.00  0.00    -0.041 C  
ENDROOT
BRANCH   2   5
HETATM    5  C   UNL     1      -7.810   4.181  71.260  1.00  0.00    -0.071 C  
BRANCH   5   6
HETATM    6  C   UNL     1      -7.261   5.420  70.498  1.00  0.00    -0.066 C  
HETATM    7  H   UNL     1      -6.877   7.326  70.901  1.00  0.00     0.000 HD 
HETATM    8  O   UNL     1      -7.213   6.569  71.367  1.00  0.00    -0.076 OA 
BRANCH   6   9
HETATM    9  C   UNL     1      -7.931   5.823  69.191  1.00  0.00    -0.097 C  
HETATM   10  C   UNL     1      -9.204   6.592  69.482  1.00  0.00    -0.143 C  
HETATM   11  O   UNL     1      -9.917   6.109  70.399  1.00  0.00    -0.174 OA 
HETATM   12  O   UNL     1      -9.303   7.684  68.863  1.00  0.00    -0.146 OA 
ENDBRANCH   6   9
ENDBRANCH   5   6
ENDBRANCH   2   5
TORSDOF 3
ENDMDL
MODEL      299
REMARK 921   NORMALIZED FREE ENERGY PREDICTED BY IDOCK:   -0.04 KCAL/MOL
REMARK 922        TOTAL FREE ENERGY PREDICTED BY IDOCK:   -0.41 KCAL/MOL
REMARK 923 INTER-LIGAND FREE ENERGY PREDICTED BY IDOCK:   -0.32 KCAL/MOL
REMARK 924 INTRA-LIGAND FREE ENERGY PREDICTED BY IDOCK:   -0.09 KCAL/MOL
REMARK 927      BINDING AFFINITY PREDICTED BY RF-SCORE:    0.00 PKD
ROOT
HETATM    1  C   UNL     1      -6.087  13.773  71.568  1.00  0.00     0.272 C  
HETATM    2  N   UNL     1      -5.948  13.576  70.066  1.00  0.00    -0.136 N  
HETATM    3  C   UNL     1      -5.195  12.270  69.843  1.00  0.00    -0.083 C  
HETATM    4  C   UNL     1      -5.156  14.717  69.465  1.00  0.00    -0.087 C  
ENDROOT
BRANCH   2   5
HETATM    5  C   UNL     1      -7.333  13.417  69.373  1.00  0.00     0.288 C  
BRANCH   5   6
HETATM    6  C   UNL     1      -8.205  14.683  69.145  1.00  0.00    -0.068 C  
HETATM    7  H   UNL     1      -9.707  15.602  70.063  1.00  0.00     0.000 HD 
HETATM    8  O   UNL     1      -9.174  14.828  70.202  1.00  0.00     0.399 OA 
BRANCH   6   9
HETATM    9  C   UNL     1      -8.914  14.844  67.806  1.00  0.00    -0.177 C  
HETATM   10  C   UNL     1      -8.739  16.262  67.300  1.00  0.00    -0.182 C  
HETATM   11  O   UNL     1      -8.889  17.158  68.171  1.00  0.00    -0.223 OA 
HETATM   12  O   UNL     1      -8.333  16.341  66.111  1.00  0.00    -0.320 OA 
ENDBRANCH   6   9
ENDBRANCH   5   6
ENDBRANCH   2   5
TORSDOF 3
ENDMDL
MODEL      300
REMARK 921   NORMALIZED FREE ENERGY PREDICTED BY IDOCK:    0.02 KCAL/MOL
REMARK 922        TOTAL FREE ENERGY PREDICTED BY IDOCK:   -0.34 KCAL/MOL
REMARK 923 INTER-LIGAND FREE ENERGY PREDICTED BY IDOCK:   -1.05 KCAL/MOL
REMARK 924 INTRA-LIGAND FREE ENERGY PREDICTED BY IDOCK:    0.71 KCAL/MOL
REMARK 927      BINDING AFFINITY PREDICTED BY RF-SCORE:    0.00 PKD
ROOT
HETATM    1  C   UNL     1      -9.571   5.276  68.170  1.00  0.00    -0.129 C  
HETATM    2  N   UNL     1      -9.440   6.314  69.274  1.00  0.00    -0.135 N  
HETATM    3  C   UNL     1     -10.446   5.956  70.361  1.00  0.00    -0.259 C  
HETATM    4  C   UNL     1      -9.759   7.690  68.732  1.00  0.00    -0.153 C  
ENDROOT
BRANCH   2   5
HETATM    5  C   UNL     1      -8.032   6.276  69.939  1.00  0.00    -0.115 C  
BRANCH   5   6
HETATM    6  C   UNL     1      -6.946   5.342  69.336  1.00  0.00    -0.059 C  
HETATM    7  H   UNL     1      -6.190   4.954  67.541  1.00  0.00     0.000 HD 
HETATM    8  O   UNL     1      -6.855   5.525  67.909  1.00  0.00    -0.060 OA 
BRANCH   6   9
HETATM    9  C   UNL     1      -7.026   3.850  69.634  1.00  0.00    -0.042 C  
HETATM   10  C   UNL     1      -6.970   3.622  71.132  1.00  0.00    -0.032 C  
HETATM   11  O   UNL     1      -6.112   4.312  71.742  1.00  0.00    -0.016 OA 
HETATM   12  O   UNL     1      -7.883   2.877  71.576  1.00  0.00    -0.050 OA 
ENDBRANCH   6   9
ENDBRANCH   5   6
ENDBRANCH   2   5
TORSDOF 3
ENDMDL
MODEL      301
REMARK 921   NORMALIZED FREE ENERGY PREDICTED BY IDOCK:    0.08 KCAL/MOL
REMARK 922        TOTAL FREE ENERGY PREDICTED BY IDOCK:   -0.27 KCAL/MOL
REMARK 923 INTER-LIGAND FREE ENERGY PREDICTED BY IDOCK:   -1.02 KCAL/MOL
REMARK 924 INTRA-LIGAND FREE ENERGY PREDICTED BY IDOCK:    0.76 KCAL/MOL
REMARK 927      BINDING AFFINITY PREDICTED BY RF-SCORE:    0.00 PKD
ROOT
HETATM    1  C   UNL     1      -6.158   8.155  69.029  1.00  0.00    -0.039 C  
HETATM    2  N   UNL     1      -7.199   7.049  69.106  1.00  0.00    -0.087 N  
HETATM    3  C   UNL     1      -8.571   7.712  69.117  1.00  0.00    -0.139 C  
HETATM    4  C   UNL     1      -7.018   6.254  70.380  1.00  0.00    -0.063 C  
ENDROOT
BRANCH   2   5
HETATM    5  C   UNL     1      -7.159   6.129  67.850  1.00  0.00    -0.078 C  
BRANCH   5   6
HETATM    6  C   UNL     1      -8.477   5.456  67.374  1.00  0.00    -0.106 C  
HETATM    7  H   UNL     1     -10.242   6.040  66.677  1.00  0.00     0.000 HD 
HETATM    8  O   UNL     1      -9.437   6.452  66.968  1.00  0.00    -0.130 OA 
BRANCH   6   9
HETATM    9  C   UNL     1      -9.163   4.467  68.307  1.00  0.00    -0.182 C  
HETATM   10  C   UNL     1      -8.409   3.152  68.306  1.00  0.00    -0.078 C  
HETATM   11  O   UNL     1      -8.042   2.752  67.170  1.00  0.00    -0.074 OA 
HETATM   12  O   UNL     1      -8.134   2.712  69.453  1.00  0.00    -0.048 OA 
ENDBRANCH   6   9
ENDBRANCH   5   6
ENDBRANCH   2   5
TORSDOF 3
ENDMDL
MODEL      302
REMARK 921   NORMALIZED FREE ENERGY PREDICTED BY IDOCK:    0.11 KCAL/MOL
REMARK 922        TOTAL FREE ENERGY PREDICTED BY IDOCK:   -0.23 KCAL/MOL
REMARK 923 INTER-LIGAND FREE ENERGY PREDICTED BY IDOCK:   -0.65 KCAL/MOL
REMARK 924 INTRA-LIGAND FREE ENERGY PREDICTED BY IDOCK:    0.42 KCAL/MOL
REMARK 927      BINDING AFFINITY PREDICTED BY RF-SCORE:    0.00 PKD
ROOT
HETATM    1  C   UNL     1      -6.631   2.463  69.838  1.00  0.00    -0.033 C  
HETATM    2  N   UNL     1      -7.015   2.814  71.267  1.00  0.00    -0.032 N  
HETATM    3  C   UNL     1      -5.742   3.231  71.994  1.00  0.00    -0.008 C  
HETATM    4  C   UNL     1      -7.609   1.605  71.956  1.00  0.00    -0.040 C  
ENDROOT
BRANCH   2   5
HETATM    5  C   UNL     1      -7.981   4.034  71.324  1.00  0.00    -0.071 C  
BRANCH   5   6
HETATM    6  C   UNL     1      -7.607   5.243  72.226  1.00  0.00    -0.096 C  
HETATM    7  H   UNL     1      -8.434   6.258  73.719  1.00  0.00     0.000 HD 
HETATM    8  O   UNL     1      -8.663   5.519  73.167  1.00  0.00    -0.121 OA 
BRANCH   6   9
HETATM    9  C   UNL     1      -7.195   6.548  71.556  1.00  0.00    -0.082 C  
HETATM   10  C   UNL     1      -6.527   7.456  72.569  1.00  0.00    -0.051 C  
HETATM   11  O   UNL     1      -7.096   7.509  73.690  1.00  0.00    -0.081 OA 
HETATM   12  O   UNL     1      -5.419   7.923  72.195  1.00  0.00    -0.035 OA 
ENDBRANCH   6   9
ENDBRANCH   5   6
ENDBRANCH   2   5
TORSDOF 3
ENDMDL
MODEL      303
REMARK 921   NORMALIZED FREE ENERGY PREDICTED BY IDOCK:    0.13 KCAL/MOL
REMARK 922        TOTAL FREE ENERGY PREDICTED BY IDOCK:   -0.21 KCAL/MOL
REMARK 923 INTER-LIGAND FREE ENERGY PREDICTED BY IDOCK:   -0.11 KCAL/MOL
REMARK 924 INTRA-LIGAND FREE ENERGY PREDICTED BY IDOCK:   -0.11 KCAL/MOL
REMARK 927      BINDING AFFINITY PREDICTED BY RF-SCORE:    0.00 PKD
ROOT
HETATM    1  C   UNL     1      -6.105  13.727  71.607  1.00  0.00     0.372 C  
HETATM    2  N   UNL     1      -5.973  13.381  70.132  1.00  0.00    -0.144 N  
HETATM    3  C   UNL     1      -5.139  12.109  70.033  1.00  0.00    -0.082 C  
HETATM    4  C   UNL     1      -5.264  14.499  69.400  1.00  0.00    -0.086 C  
ENDROOT
BRANCH   2   5
HETATM    5  C   UNL     1      -7.353  13.061  69.486  1.00  0.00     0.479 C  
BRANCH   5   6
HETATM    6  C   UNL     1      -7.409  12.055  68.303  1.00  0.00    -0.095 C  
HETATM    7  H   UNL     1      -7.070  12.086  66.346  1.00  0.00     0.000 HD 
HETATM    8  O   UNL     1      -7.036  12.702  67.070  1.00  0.00    -0.076 OA 
BRANCH   6   9
HETATM    9  C   UNL     1      -8.698  11.275  68.075  1.00  0.00    -0.144 C  
HETATM   10  C   UNL     1      -8.379   9.810  67.851  1.00  0.00    -0.114 C  
HETATM   11  O   UNL     1      -7.401   9.591  67.091  1.00  0.00    -0.087 OA 
HETATM   12  O   UNL     1      -9.048   9.019  68.567  1.00  0.00    -0.133 OA 
ENDBRANCH   6   9
ENDBRANCH   5   6
ENDBRANCH   2   5
TORSDOF 3
ENDMDL
MODEL      304
REMARK 921   NORMALIZED FREE ENERGY PREDICTED BY IDOCK:    0.48 KCAL/MOL
REMARK 922        TOTAL FREE ENERGY PREDICTED BY IDOCK:    0.20 KCAL/MOL
REMARK 923 INTER-LIGAND FREE ENERGY PREDICTED BY IDOCK:   -0.67 KCAL/MOL
REMARK 924 INTRA-LIGAND FREE ENERGY PREDICTED BY IDOCK:    0.86 KCAL/MOL
REMARK 927      BINDING AFFINITY PREDICTED BY RF-SCORE:    0.00 PKD
ROOT
HETATM    1  C   UNL     1      -8.010   2.264  70.156  1.00  0.00    -0.042 C  
HETATM    2  N   UNL     1      -8.350   3.128  71.361  1.00  0.00    -0.063 N  
HETATM    3  C   UNL     1      -7.338   2.806  72.454  1.00  0.00    -0.046 C  
HETATM    4  C   UNL     1      -9.741   2.801  71.857  1.00  0.00    -0.151 C  
ENDROOT
BRANCH   2   5
HETATM    5  C   UNL     1      -8.199   4.645  71.046  1.00  0.00    -0.091 C  
BRANCH   5   6
HETATM    6  C   UNL     1      -6.818   5.176  70.569  1.00  0.00    -0.044 C  
HETATM    7  H   UNL     1      -5.317   4.525  69.443  1.00  0.00     0.000 HD 
HETATM    8  O   UNL     1      -6.161   4.201  69.735  1.00  0.00    -0.021 OA 
BRANCH   6   9
HETATM    9  C   UNL     1      -5.828   5.668  71.617  1.00  0.00    -0.025 C  
HETATM   10  C   UNL     1      -6.498   6.689  72.516  1.00  0.00    -0.058 C  
HETATM   11  O   UNL     1      -7.210   7.536  71.918  1.00  0.00    -0.062 OA 
HETATM   12  O   UNL     1      -6.360   6.464  73.748  1.00  0.00    -0.064 OA 
ENDBRANCH   6   9
ENDBRANCH   5   6
ENDBRANCH   2   5
TORSDOF 3
ENDMDL
MODEL      305
REMARK 921   NORMALIZED FREE ENERGY PREDICTED BY IDOCK:    0.76 KCAL/MOL
REMARK 922        TOTAL FREE ENERGY PREDICTED BY IDOCK:    0.53 KCAL/MOL
REMARK 923 INTER-LIGAND FREE ENERGY PREDICTED BY IDOCK:   -1.11 KCAL/MOL
REMARK 924 INTRA-LIGAND FREE ENERGY PREDICTED BY IDOCK:    1.64 KCAL/MOL
REMARK 927      BINDING AFFINITY PREDICTED BY RF-SCORE:    0.00 PKD
ROOT
HETATM    1  C   UNL     1      -9.037  11.566  67.213  1.00  0.00    -0.164 C  
HETATM    2  N   UNL     1      -9.736  12.502  68.188  1.00  0.00    -0.218 N  
HETATM    3  C   UNL     1     -11.013  12.992  67.515  1.00  0.00    -0.259 C  
HETATM    4  C   UNL     1      -8.847  13.687  68.495  1.00  0.00    -0.099 C  
ENDROOT
BRANCH   2   5
HETATM    5  C   UNL     1     -10.172  11.763  69.487  1.00  0.00     0.498 C  
BRANCH   5   6
HETATM    6  C   UNL     1     -11.424  10.843  69.440  1.00  0.00    -0.302 C  
HETATM    7  H   UNL     1     -13.140  10.767  68.443  1.00  0.00     0.000 HD 
HETATM    8  O   UNL     1     -12.375  11.330  68.472  1.00  0.00    -0.543 OA 
BRANCH   6   9
HETATM    9  C   UNL     1     -12.158  10.550  70.742  1.00  0.00    -0.470 C  
HETATM   10  C   UNL     1     -12.910  11.785  71.197  1.00  0.00    -0.267 C  
HETATM   11  O   UNL     1     -12.269  12.863  71.098  1.00  0.00    -0.256 OA 
HETATM   12  O   UNL     1     -14.120  11.580  71.479  1.00  0.00     0.971 OA 
ENDBRANCH   6   9
ENDBRANCH   5   6
ENDBRANCH   2   5
TORSDOF 3
ENDMDL
MODEL      306
REMARK 921   NORMALIZED FREE ENERGY PREDICTED BY IDOCK:    3.01 KCAL/MOL
REMARK 922        TOTAL FREE ENERGY PREDICTED BY IDOCK:    3.18 KCAL/MOL
REMARK 923 INTER-LIGAND FREE ENERGY PREDICTED BY IDOCK:    3.08 KCAL/MOL
REMARK 924 INTRA-LIGAND FREE ENERGY PREDICTED BY IDOCK:    0.09 KCAL/MOL
REMARK 927      BINDING AFFINITY PREDICTED BY RF-SCORE:    0.00 PKD
ROOT
HETATM    1  C   UNL     1      -5.506  16.280  71.572  1.00  0.00     0.329 C  
HETATM    2  N   UNL     1      -6.287  15.073  71.076  1.00  0.00     0.215 N  
HETATM    3  C   UNL     1      -7.429  14.832  72.056  1.00  0.00     3.864 C  
HETATM    4  C   UNL     1      -5.392  13.854  71.044  1.00  0.00    -0.162 C  
ENDROOT
BRANCH   2   5
HETATM    5  C   UNL     1      -6.940  15.338  69.687  1.00  0.00    -0.188 C  
BRANCH   5   6
HETATM    6  C   UNL     1      -7.153  14.139  68.721  1.00  0.00    -0.107 C  
HETATM    7  H   UNL     1      -6.258  13.385  67.116  1.00  0.00     0.000 HD 
HETATM    8  O   UNL     1      -6.129  14.118  67.707  1.00  0.00    -0.177 OA 
BRANCH   6   9
HETATM    9  C   UNL     1      -8.510  13.982  68.048  1.00  0.00    -0.171 C  
HETATM   10  C   UNL     1      -8.829  12.510  67.871  1.00  0.00    -0.185 C  
HETATM   11  O   UNL     1      -7.870  11.806  67.462  1.00  0.00    -0.131 OA 
HETATM   12  O   UNL     1      -9.967  12.173  68.291  1.00  0.00    -0.203 OA 
ENDBRANCH   6   9
ENDBRANCH   5   6
ENDBRANCH   2   5
TORSDOF 3
ENDMDL
