MODEL        1
REMARK 921   NORMALIZED FREE ENERGY PREDICTED BY IDOCK:   -6.23 KCAL/MOL
REMARK 922        TOTAL FREE ENERGY PREDICTED BY IDOCK:   -7.14 KCAL/MOL
REMARK 923 INTER-LIGAND FREE ENERGY PREDICTED BY IDOCK:   -6.95 KCAL/MOL
REMARK 924 INTRA-LIGAND FREE ENERGY PREDICTED BY IDOCK:   -0.19 KCAL/MOL
REMARK 927      BINDING AFFINITY PREDICTED BY RF-SCORE:    0.00 PKD
ROOT
HETATM    1  N   UNL     1     -10.744  17.103  69.347  1.00  0.00    -0.366 NA 
HETATM    2  H2  UNL     1     -10.337  17.398  68.459  1.00  0.00     0.000 HD 
HETATM    3  H1  UNL     1     -11.232  17.879  69.794  1.00  0.00     0.000 HD 
HETATM    4  CA  UNL     1     -11.589  15.881  69.157  1.00  0.00    -0.379 C  
HETATM    5  C   UNL     1     -12.182  15.469  70.516  1.00  0.00    -0.404 C  
HETATM    6  OXT UNL     1     -12.849  14.466  70.720  1.00  0.00    -0.341 OA 
HETATM    7  O   UNL     1     -11.889  16.379  71.481  1.00  0.00    -0.427 OA 
ENDROOT
BRANCH   4   8
HETATM    8  C   UNL     1     -10.852  14.707  68.481  1.00  0.00    -0.256 C  
BRANCH   8   9
HETATM    9  C   UNL     1     -11.236  14.474  67.035  1.00  0.00    -0.342 A  
HETATM   10  C   UNL     1     -11.152  15.525  66.106  1.00  0.00    -0.177 A  
HETATM   11  C   UNL     1     -11.584  15.328  64.799  1.00  0.00    -0.322 A  
HETATM   12  O   UNL     1     -11.534  16.326  63.866  1.00  0.00    -1.484 OA 
HETATM   13  C   UNL     1     -12.094  14.096  64.407  1.00  0.00    -0.463 A  
HETATM   14  H   UNL     1     -11.829  16.192  62.973  1.00  0.00     0.000 HD 
HETATM   15  O   UNL     1     -12.544  13.919  63.130  1.00  0.00    -1.057 OA 
HETATM   16  C   UNL     1     -12.161  13.038  65.301  1.00  0.00    -0.513 A  
HETATM   17  C   UNL     1     -11.723  13.224  66.614  1.00  0.00    -0.425 A  
HETATM   18  H   UNL     1     -12.893  13.076  62.863  1.00  0.00     0.000 HD 
ENDBRANCH   8   9
ENDBRANCH   4   8
TORSDOF 2
ENDMDL
MODEL        2
REMARK 921   NORMALIZED FREE ENERGY PREDICTED BY IDOCK:   -6.17 KCAL/MOL
REMARK 922        TOTAL FREE ENERGY PREDICTED BY IDOCK:   -7.08 KCAL/MOL
REMARK 923 INTER-LIGAND FREE ENERGY PREDICTED BY IDOCK:   -6.85 KCAL/MOL
REMARK 924 INTRA-LIGAND FREE ENERGY PREDICTED BY IDOCK:   -0.23 KCAL/MOL
REMARK 927      BINDING AFFINITY PREDICTED BY RF-SCORE:    0.00 PKD
ROOT
HETATM    1  N   UNL     1     -11.913  16.091  70.156  1.00  0.00    -0.375 NA 
HETATM    2  H2  UNL     1     -11.783  16.867  69.507  1.00  0.00     0.000 HD 
HETATM    3  H1  UNL     1     -12.701  16.274  70.778  1.00  0.00     0.000 HD 
HETATM    4  CA  UNL     1     -12.011  14.794  69.414  1.00  0.00    -0.303 C  
HETATM    5  C   UNL     1     -12.207  13.653  70.427  1.00  0.00    -0.363 C  
HETATM    6  OXT UNL     1     -12.240  12.464  70.153  1.00  0.00    -0.296 OA 
HETATM    7  O   UNL     1     -12.364  14.132  71.689  1.00  0.00    -0.325 OA 
ENDROOT
BRANCH   4   8
HETATM    8  C   UNL     1     -10.821  14.519  68.474  1.00  0.00    -0.256 C  
BRANCH   8   9
HETATM    9  C   UNL     1     -11.196  14.352  67.017  1.00  0.00    -0.336 A  
HETATM   10  C   UNL     1     -11.084  15.440  66.132  1.00  0.00    -0.230 A  
HETATM   11  C   UNL     1     -11.509  15.305  64.815  1.00  0.00    -0.363 A  
HETATM   12  O   UNL     1     -11.432  16.339  63.924  1.00  0.00    -1.484 OA 
HETATM   13  C   UNL     1     -12.038  14.099  64.368  1.00  0.00    -0.463 A  
HETATM   14  H   UNL     1     -11.722  16.247  63.025  1.00  0.00     0.000 HD 
HETATM   15  O   UNL     1     -12.481  13.984  63.081  1.00  0.00    -1.137 OA 
HETATM   16  C   UNL     1     -12.133  13.008  65.217  1.00  0.00    -0.484 A  
HETATM   17  C   UNL     1     -11.703  13.131  66.540  1.00  0.00    -0.433 A  
HETATM   18  H   UNL     1     -12.843  13.160  62.777  1.00  0.00     0.000 HD 
ENDBRANCH   8   9
ENDBRANCH   4   8
TORSDOF 2
ENDMDL
MODEL        3
REMARK 921   NORMALIZED FREE ENERGY PREDICTED BY IDOCK:   -6.12 KCAL/MOL
REMARK 922        TOTAL FREE ENERGY PREDICTED BY IDOCK:   -7.02 KCAL/MOL
REMARK 923 INTER-LIGAND FREE ENERGY PREDICTED BY IDOCK:   -6.78 KCAL/MOL
REMARK 924 INTRA-LIGAND FREE ENERGY PREDICTED BY IDOCK:   -0.25 KCAL/MOL
REMARK 927      BINDING AFFINITY PREDICTED BY RF-SCORE:    0.00 PKD
ROOT
HETATM    1  N   UNL     1     -12.013  10.720  68.581  1.00  0.00    -0.756 NA 
HETATM    2  H2  UNL     1     -12.629  11.455  68.927  1.00  0.00     0.000 HD 
HETATM    3  H1  UNL     1     -12.530   9.851  68.447  1.00  0.00     0.000 HD 
HETATM    4  CA  UNL     1     -11.276  11.183  67.362  1.00  0.00    -0.294 C  
HETATM    5  C   UNL     1     -10.358  10.048  66.872  1.00  0.00    -0.234 C  
HETATM    6  OXT UNL     1      -9.563  10.132  65.950  1.00  0.00    -0.187 OA 
HETATM    7  O   UNL     1     -10.554   8.909  67.587  1.00  0.00    -0.258 OA 
ENDROOT
BRANCH   4   8
HETATM    8  C   UNL     1     -10.494  12.496  67.563  1.00  0.00    -0.231 C  
BRANCH   8   9
HETATM    9  C   UNL     1     -10.842  13.592  66.578  1.00  0.00    -0.283 A  
HETATM   10  C   UNL     1     -11.564  13.286  65.410  1.00  0.00    -0.346 A  
HETATM   11  C   UNL     1     -11.809  14.280  64.470  1.00  0.00    -0.442 A  
HETATM   12  O   UNL     1     -12.493  14.025  63.314  1.00  0.00    -1.139 OA 
HETATM   13  C   UNL     1     -11.349  15.575  64.681  1.00  0.00    -0.357 A  
HETATM   14  H   UNL     1     -12.661  14.704  62.671  1.00  0.00     0.000 HD 
HETATM   15  O   UNL     1     -11.568  16.539  63.739  1.00  0.00    -1.617 OA 
HETATM   16  C   UNL     1     -10.659  15.903  65.838  1.00  0.00    -0.348 A  
HETATM   17  C   UNL     1     -10.413  14.914  66.791  1.00  0.00    -0.284 A  
HETATM   18  H   UNL     1     -11.253  17.424  63.883  1.00  0.00     0.000 HD 
ENDBRANCH   8   9
ENDBRANCH   4   8
TORSDOF 2
ENDMDL
MODEL        4
REMARK 921   NORMALIZED FREE ENERGY PREDICTED BY IDOCK:   -6.09 KCAL/MOL
REMARK 922        TOTAL FREE ENERGY PREDICTED BY IDOCK:   -6.99 KCAL/MOL
REMARK 923 INTER-LIGAND FREE ENERGY PREDICTED BY IDOCK:   -6.77 KCAL/MOL
REMARK 924 INTRA-LIGAND FREE ENERGY PREDICTED BY IDOCK:   -0.22 KCAL/MOL
REMARK 927      BINDING AFFINITY PREDICTED BY RF-SCORE:    0.00 PKD
ROOT
HETATM    1  N   UNL     1     -12.526  14.324  63.491  1.00  0.00    -1.102 NA 
HETATM    2  H2  UNL     1     -12.935  13.403  63.339  1.00  0.00     0.000 HD 
HETATM    3  H1  UNL     1     -13.256  15.034  63.560  1.00  0.00     0.000 HD 
HETATM    4  CA  UNL     1     -11.590  14.297  64.661  1.00  0.00    -0.408 C  
HETATM    5  C   UNL     1     -10.996  15.703  64.856  1.00  0.00    -0.431 C  
HETATM    6  OXT UNL     1     -10.136  15.998  65.671  1.00  0.00    -0.339 OA 
HETATM    7  O   UNL     1     -11.564  16.604  64.012  1.00  0.00    -1.197 OA 
ENDROOT
BRANCH   4   8
HETATM    8  C   UNL     1     -10.487  13.225  64.557  1.00  0.00    -0.434 C  
BRANCH   8   9
HETATM    9  C   UNL     1     -10.643  12.068  65.521  1.00  0.00    -0.313 A  
HETATM   10  C   UNL     1     -11.451  12.207  66.663  1.00  0.00    -0.426 A  
HETATM   11  C   UNL     1     -11.525  11.171  67.587  1.00  0.00    -0.250 A  
HETATM   12  O   UNL     1     -12.285  11.268  68.719  1.00  0.00    -0.532 OA 
HETATM   13  C   UNL     1     -10.808   9.997  67.383  1.00  0.00    -0.249 A  
HETATM   14  H   UNL     1     -12.336  10.560  69.350  1.00  0.00     0.000 HD 
HETATM   15  O   UNL     1     -10.861   8.996  68.310  1.00  0.00    -0.425 OA 
HETATM   16  C   UNL     1     -10.027   9.830  66.250  1.00  0.00    -0.331 A  
HETATM   17  C   UNL     1      -9.951  10.862  65.313  1.00  0.00    -0.330 A  
HETATM   18  H   UNL     1     -10.371   8.194  68.171  1.00  0.00     0.000 HD 
ENDBRANCH   8   9
ENDBRANCH   4   8
TORSDOF 2
ENDMDL
MODEL        5
REMARK 921   NORMALIZED FREE ENERGY PREDICTED BY IDOCK:   -6.00 KCAL/MOL
REMARK 922        TOTAL FREE ENERGY PREDICTED BY IDOCK:   -6.89 KCAL/MOL
REMARK 923 INTER-LIGAND FREE ENERGY PREDICTED BY IDOCK:   -6.72 KCAL/MOL
REMARK 924 INTRA-LIGAND FREE ENERGY PREDICTED BY IDOCK:   -0.17 KCAL/MOL
REMARK 927      BINDING AFFINITY PREDICTED BY RF-SCORE:    0.00 PKD
ROOT
HETATM    1  N   UNL     1     -11.443  16.398  63.887  1.00  0.00    -1.618 NA 
HETATM    2  H2  UNL     1     -10.911  17.266  63.847  1.00  0.00     0.000 HD 
HETATM    3  H1  UNL     1     -11.585  16.020  62.949  1.00  0.00     0.000 HD 
HETATM    4  CA  UNL     1     -10.808  15.434  64.842  1.00  0.00    -0.425 C  
HETATM    5  C   UNL     1     -11.641  14.140  64.873  1.00  0.00    -0.379 C  
HETATM    6  OXT UNL     1     -11.440  13.189  65.611  1.00  0.00    -0.309 OA 
HETATM    7  O   UNL     1     -12.637  14.170  63.949  1.00  0.00    -0.752 OA 
ENDROOT
BRANCH   4   8
HETATM    8  C   UNL     1     -10.594  16.004  66.258  1.00  0.00    -0.288 C  
BRANCH   8   9
HETATM    9  C   UNL     1      -9.713  17.234  66.314  1.00  0.00    -0.282 A  
HETATM   10  C   UNL     1     -10.285  18.502  66.519  1.00  0.00    -0.440 A  
HETATM   11  C   UNL     1      -9.480  19.635  66.486  1.00  0.00    -0.384 A  
HETATM   12  O   UNL     1      -9.995  20.889  66.666  1.00  0.00    -0.527 OA 
HETATM   13  C   UNL     1      -8.114  19.520  66.257  1.00  0.00    -0.334 A  
HETATM   14  H   UNL     1      -9.446  21.663  66.643  1.00  0.00     0.000 HD 
HETATM   15  O   UNL     1      -7.336  20.640  66.196  1.00  0.00    -0.470 OA 
HETATM   16  C   UNL     1      -7.527  18.277  66.078  1.00  0.00    -0.255 A  
HETATM   17  C   UNL     1      -8.324  17.132  66.116  1.00  0.00    -0.258 A  
HETATM   18  H   UNL     1      -6.402  20.561  66.039  1.00  0.00     0.000 HD 
ENDBRANCH   8   9
ENDBRANCH   4   8
TORSDOF 2
ENDMDL
MODEL        6
REMARK 921   NORMALIZED FREE ENERGY PREDICTED BY IDOCK:   -5.94 KCAL/MOL
REMARK 922        TOTAL FREE ENERGY PREDICTED BY IDOCK:   -6.83 KCAL/MOL
REMARK 923 INTER-LIGAND FREE ENERGY PREDICTED BY IDOCK:   -6.62 KCAL/MOL
REMARK 924 INTRA-LIGAND FREE ENERGY PREDICTED BY IDOCK:   -0.21 KCAL/MOL
REMARK 927      BINDING AFFINITY PREDICTED BY RF-SCORE:    0.00 PKD
ROOT
HETATM    1  N   UNL     1      -9.073  11.558  68.833  1.00  0.00    -0.392 NA 
HETATM    2  H2  UNL     1      -8.422  12.079  68.247  1.00  0.00     0.000 HD 
HETATM    3  H1  UNL     1      -8.859  11.699  69.820  1.00  0.00     0.000 HD 
HETATM    4  CA  UNL     1     -10.488  11.883  68.464  1.00  0.00    -0.224 C  
HETATM    5  C   UNL     1     -11.437  11.077  69.369  1.00  0.00    -0.294 C  
HETATM    6  OXT UNL     1     -12.654  11.051  69.270  1.00  0.00    -0.361 OA 
HETATM    7  O   UNL     1     -10.752  10.398  70.325  1.00  0.00    -0.282 OA 
ENDROOT
BRANCH   4   8
HETATM    8  C   UNL     1     -10.812  11.669  66.972  1.00  0.00    -0.311 C  
BRANCH   8   9
HETATM    9  C   UNL     1     -11.067  12.944  66.196  1.00  0.00    -0.314 A  
HETATM   10  C   UNL     1     -11.727  12.894  64.956  1.00  0.00    -0.381 A  
HETATM   11  C   UNL     1     -11.885  14.057  64.210  1.00  0.00    -0.410 A  
HETATM   12  O   UNL     1     -12.507  14.052  62.993  1.00  0.00    -1.101 OA 
HETATM   13  C   UNL     1     -11.399  15.268  64.687  1.00  0.00    -0.358 A  
HETATM   14  H   UNL     1     -12.616  14.846  62.483  1.00  0.00     0.000 HD 
HETATM   15  O   UNL     1     -11.531  16.401  63.935  1.00  0.00    -1.569 OA 
HETATM   16  C   UNL     1     -10.768  15.344  65.920  1.00  0.00    -0.343 A  
HETATM   17  C   UNL     1     -10.611  14.183  66.679  1.00  0.00    -0.278 A  
HETATM   18  H   UNL     1     -11.198  17.228  64.262  1.00  0.00     0.000 HD 
ENDBRANCH   8   9
ENDBRANCH   4   8
TORSDOF 2
ENDMDL
MODEL        7
REMARK 921   NORMALIZED FREE ENERGY PREDICTED BY IDOCK:   -5.92 KCAL/MOL
REMARK 922        TOTAL FREE ENERGY PREDICTED BY IDOCK:   -6.80 KCAL/MOL
REMARK 923 INTER-LIGAND FREE ENERGY PREDICTED BY IDOCK:   -6.57 KCAL/MOL
REMARK 924 INTRA-LIGAND FREE ENERGY PREDICTED BY IDOCK:   -0.23 KCAL/MOL
REMARK 927      BINDING AFFINITY PREDICTED BY RF-SCORE:    0.00 PKD
ROOT
HETATM    1  N   UNL     1     -12.405  14.447  63.419  1.00  0.00    -1.088 NA 
HETATM    2  H2  UNL     1     -12.789  13.525  63.214  1.00  0.00     0.000 HD 
HETATM    3  H1  UNL     1     -13.151  15.143  63.469  1.00  0.00     0.000 HD 
HETATM    4  CA  UNL     1     -11.537  14.396  64.639  1.00  0.00    -0.409 C  
HETATM    5  C   UNL     1     -10.980  15.804  64.913  1.00  0.00    -0.427 C  
HETATM    6  OXT UNL     1     -10.173  16.086  65.785  1.00  0.00    -0.333 OA 
HETATM    7  O   UNL     1     -11.515  16.723  64.067  1.00  0.00    -1.198 OA 
ENDROOT
BRANCH   4   8
HETATM    8  C   UNL     1     -10.412  13.346  64.564  1.00  0.00    -0.431 C  
BRANCH   8   9
HETATM    9  C   UNL     1     -10.536  12.220  65.568  1.00  0.00    -0.304 A  
HETATM   10  C   UNL     1     -10.109  10.924  65.230  1.00  0.00    -0.340 A  
HETATM   11  C   UNL     1     -10.302   9.877  66.124  1.00  0.00    -0.153 A  
HETATM   12  O   UNL     1      -9.915   8.599  65.831  1.00  0.00    -0.469 OA 
HETATM   13  C   UNL     1     -10.910  10.107  67.353  1.00  0.00    -0.261 A  
HETATM   14  H   UNL     1     -10.046   7.884  66.442  1.00  0.00     0.000 HD 
HETATM   15  O   UNL     1     -11.124   9.069  68.214  1.00  0.00    -0.475 OA 
HETATM   16  C   UNL     1     -11.316  11.382  67.716  1.00  0.00    -0.354 A  
HETATM   17  C   UNL     1     -11.120  12.441  66.828  1.00  0.00    -0.333 A  
HETATM   18  H   UNL     1     -11.540   9.226  69.053  1.00  0.00     0.000 HD 
ENDBRANCH   8   9
ENDBRANCH   4   8
TORSDOF 2
ENDMDL
MODEL        8
REMARK 921   NORMALIZED FREE ENERGY PREDICTED BY IDOCK:   -5.83 KCAL/MOL
REMARK 922        TOTAL FREE ENERGY PREDICTED BY IDOCK:   -6.69 KCAL/MOL
REMARK 923 INTER-LIGAND FREE ENERGY PREDICTED BY IDOCK:   -6.49 KCAL/MOL
REMARK 924 INTRA-LIGAND FREE ENERGY PREDICTED BY IDOCK:   -0.20 KCAL/MOL
REMARK 927      BINDING AFFINITY PREDICTED BY RF-SCORE:    0.00 PKD
ROOT
HETATM    1  N   UNL     1     -11.799  13.819  70.606  1.00  0.00    -0.509 NA 
HETATM    2  H2  UNL     1     -11.644  14.812  70.436  1.00  0.00     0.000 HD 
HETATM    3  H1  UNL     1     -12.594  13.682  71.231  1.00  0.00     0.000 HD 
HETATM    4  CA  UNL     1     -11.908  13.074  69.311  1.00  0.00    -0.316 C  
HETATM    5  C   UNL     1     -12.141  11.582  69.612  1.00  0.00    -0.296 C  
HETATM    6  OXT UNL     1     -12.190  10.694  68.776  1.00  0.00    -0.381 OA 
HETATM    7  O   UNL     1     -12.310  11.365  70.942  1.00  0.00    -0.379 OA 
ENDROOT
BRANCH   4   8
HETATM    8  C   UNL     1     -10.707  13.280  68.366  1.00  0.00    -0.273 C  
BRANCH   8   9
HETATM    9  C   UNL     1     -10.993  14.165  67.172  1.00  0.00    -0.304 A  
HETATM   10  C   UNL     1     -11.685  13.649  66.062  1.00  0.00    -0.383 A  
HETATM   11  C   UNL     1     -11.872  14.442  64.935  1.00  0.00    -0.417 A  
HETATM   12  O   UNL     1     -12.526  13.977  63.829  1.00  0.00    -0.832 OA 
HETATM   13  C   UNL     1     -11.382  15.742  64.903  1.00  0.00    -0.280 A  
HETATM   14  H   UNL     1     -12.654  14.518  63.059  1.00  0.00     0.000 HD 
HETATM   15  O   UNL     1     -11.542  16.504  63.781  1.00  0.00    -1.617 OA 
HETATM   16  C   UNL     1     -10.719  16.279  65.996  1.00  0.00    -0.217 A  
HETATM   17  C   UNL     1     -10.533  15.493  67.136  1.00  0.00    -0.286 A  
HETATM   18  H   UNL     1     -11.207  17.393  63.759  1.00  0.00     0.000 HD 
ENDBRANCH   8   9
ENDBRANCH   4   8
TORSDOF 2
ENDMDL
MODEL        9
REMARK 921   NORMALIZED FREE ENERGY PREDICTED BY IDOCK:   -5.82 KCAL/MOL
REMARK 922        TOTAL FREE ENERGY PREDICTED BY IDOCK:   -6.69 KCAL/MOL
REMARK 923 INTER-LIGAND FREE ENERGY PREDICTED BY IDOCK:   -6.46 KCAL/MOL
REMARK 924 INTRA-LIGAND FREE ENERGY PREDICTED BY IDOCK:   -0.23 KCAL/MOL
REMARK 927      BINDING AFFINITY PREDICTED BY RF-SCORE:    0.00 PKD
ROOT
HETATM    1  N   UNL     1     -10.636  14.314  69.521  1.00  0.00    -0.439 NA 
HETATM    2  H2  UNL     1     -10.365  14.435  70.497  1.00  0.00     0.000 HD 
HETATM    3  H1  UNL     1      -9.861  14.555  68.902  1.00  0.00     0.000 HD 
HETATM    4  CA  UNL     1     -11.193  12.942  69.295  1.00  0.00    -0.190 C  
HETATM    5  C   UNL     1     -11.588  12.802  67.814  1.00  0.00    -0.353 C  
HETATM    6  OXT UNL     1     -12.148  11.836  67.322  1.00  0.00    -0.595 OA 
HETATM    7  O   UNL     1     -11.216  13.894  67.096  1.00  0.00    -0.296 OA 
ENDROOT
BRANCH   4   8
HETATM    8  C   UNL     1     -12.363  12.578  70.230  1.00  0.00    -0.265 C  
BRANCH   8   9
HETATM    9  C   UNL     1     -12.289  11.184  70.816  1.00  0.00    -0.504 A  
HETATM   10  C   UNL     1     -13.266  10.750  71.729  1.00  0.00    -0.523 A  
HETATM   11  C   UNL     1     -13.147   9.501  72.326  1.00  0.00    -0.408 A  
HETATM   12  O   UNL     1     -14.065   9.044  73.230  1.00  0.00    -1.218 OA 
HETATM   13  C   UNL     1     -12.070   8.676  72.020  1.00  0.00    -0.375 A  
HETATM   14  H   UNL     1     -13.984   8.190  73.638  1.00  0.00     0.000 HD 
HETATM   15  O   UNL     1     -11.944   7.462  72.633  1.00  0.00    -0.512 OA 
HETATM   16  C   UNL     1     -11.110   9.074  71.102  1.00  0.00    -0.371 A  
HETATM   17  C   UNL     1     -11.224  10.325  70.492  1.00  0.00    -0.408 A  
HETATM   18  H   UNL     1     -11.207   6.900  72.424  1.00  0.00     0.000 HD 
ENDBRANCH   8   9
ENDBRANCH   4   8
TORSDOF 2
ENDMDL
MODEL       10
REMARK 921   NORMALIZED FREE ENERGY PREDICTED BY IDOCK:   -5.80 KCAL/MOL
REMARK 922        TOTAL FREE ENERGY PREDICTED BY IDOCK:   -6.66 KCAL/MOL
REMARK 923 INTER-LIGAND FREE ENERGY PREDICTED BY IDOCK:   -6.53 KCAL/MOL
REMARK 924 INTRA-LIGAND FREE ENERGY PREDICTED BY IDOCK:   -0.13 KCAL/MOL
REMARK 927      BINDING AFFINITY PREDICTED BY RF-SCORE:    0.00 PKD
ROOT
HETATM    1  N   UNL     1     -11.477  16.471  64.065  1.00  0.00    -1.581 NA 
HETATM    2  H2  UNL     1     -10.993  17.344  64.275  1.00  0.00     0.000 HD 
HETATM    3  H1  UNL     1     -11.410  16.255  63.070  1.00  0.00     0.000 HD 
HETATM    4  CA  UNL     1     -10.995  15.372  64.960  1.00  0.00    -0.436 C  
HETATM    5  C   UNL     1     -11.748  14.076  64.611  1.00  0.00    -0.405 C  
HETATM    6  OXT UNL     1     -11.648  13.018  65.211  1.00  0.00    -0.308 OA 
HETATM    7  O   UNL     1     -12.542  14.243  63.520  1.00  0.00    -0.814 OA 
ENDROOT
BRANCH   4   8
HETATM    8  C   UNL     1     -11.096  15.698  66.464  1.00  0.00    -0.135 C  
BRANCH   8   9
HETATM    9  C   UNL     1     -10.178  16.809  66.929  1.00  0.00    -0.290 A  
HETATM   10  C   UNL     1     -10.599  17.696  67.935  1.00  0.00    -0.390 A  
HETATM   11  C   UNL     1      -9.787  18.763  68.299  1.00  0.00    -0.373 A  
HETATM   12  O   UNL     1     -10.162  19.658  69.262  1.00  0.00    -0.629 OA 
HETATM   13  C   UNL     1      -8.558  18.954  67.677  1.00  0.00    -0.280 A  
HETATM   14  H   UNL     1      -9.607  20.388  69.511  1.00  0.00     0.000 HD 
HETATM   15  O   UNL     1      -7.779  20.022  68.019  1.00  0.00    -0.299 OA 
HETATM   16  C   UNL     1      -8.113  18.076  66.701  1.00  0.00    -0.285 A  
HETATM   17  C   UNL     1      -8.919  16.997  66.333  1.00  0.00    -0.308 A  
HETATM   18  H   UNL     1      -6.940  20.153  67.593  1.00  0.00     0.000 HD 
ENDBRANCH   8   9
ENDBRANCH   4   8
TORSDOF 2
ENDMDL
MODEL       11
REMARK 921   NORMALIZED FREE ENERGY PREDICTED BY IDOCK:   -5.70 KCAL/MOL
REMARK 922        TOTAL FREE ENERGY PREDICTED BY IDOCK:   -6.56 KCAL/MOL
REMARK 923 INTER-LIGAND FREE ENERGY PREDICTED BY IDOCK:   -6.65 KCAL/MOL
REMARK 924 INTRA-LIGAND FREE ENERGY PREDICTED BY IDOCK:    0.09 KCAL/MOL
REMARK 927      BINDING AFFINITY PREDICTED BY RF-SCORE:    0.00 PKD
ROOT
HETATM    1  N   UNL     1      -9.395  17.317  67.507  1.00  0.00    -0.234 NA 
HETATM    2  H2  UNL     1      -8.874  16.803  68.217  1.00  0.00     0.000 HD 
HETATM    3  H1  UNL     1      -8.841  18.094  67.148  1.00  0.00     0.000 HD 
HETATM    4  CA  UNL     1      -9.898  16.385  66.447  1.00  0.00    -0.294 C  
HETATM    5  C   UNL     1     -10.677  17.198  65.398  1.00  0.00    -0.088 C  
HETATM    6  OXT UNL     1     -11.284  16.727  64.449  1.00  0.00    -1.112 OA 
HETATM    7  O   UNL     1     -10.594  18.532  65.642  1.00  0.00    -0.616 OA 
ENDROOT
BRANCH   4   8
HETATM    8  C   UNL     1     -10.735  15.211  66.990  1.00  0.00    -0.307 C  
BRANCH   8   9
HETATM    9  C   UNL     1     -11.072  14.151  65.962  1.00  0.00    -0.314 A  
HETATM   10  C   UNL     1     -10.062  13.620  65.141  1.00  0.00    -0.298 A  
HETATM   11  C   UNL     1     -10.390  12.710  64.143  1.00  0.00    -0.387 A  
HETATM   12  O   UNL     1      -9.443  12.179  63.313  1.00  0.00    -0.664 OA 
HETATM   13  C   UNL     1     -11.712  12.318  63.958  1.00  0.00    -0.425 A  
HETATM   14  H   UNL     1      -9.667  11.557  62.631  1.00  0.00     0.000 HD 
HETATM   15  O   UNL     1     -12.031  11.446  62.956  1.00  0.00    -0.918 OA 
HETATM   16  C   UNL     1     -12.719  12.810  64.774  1.00  0.00    -0.469 A  
HETATM   17  C   UNL     1     -12.398  13.720  65.783  1.00  0.00    -0.523 A  
HETATM   18  H   UNL     1     -12.934  11.179  62.829  1.00  0.00     0.000 HD 
ENDBRANCH   8   9
ENDBRANCH   4   8
TORSDOF 2
ENDMDL
MODEL       12
REMARK 921   NORMALIZED FREE ENERGY PREDICTED BY IDOCK:   -5.70 KCAL/MOL
REMARK 922        TOTAL FREE ENERGY PREDICTED BY IDOCK:   -6.55 KCAL/MOL
REMARK 923 INTER-LIGAND FREE ENERGY PREDICTED BY IDOCK:   -6.35 KCAL/MOL
REMARK 924 INTRA-LIGAND FREE ENERGY PREDICTED BY IDOCK:   -0.20 KCAL/MOL
REMARK 927      BINDING AFFINITY PREDICTED BY RF-SCORE:    0.00 PKD
ROOT
HETATM    1  N   UNL     1     -11.842  13.210  70.514  1.00  0.00    -0.535 NA 
HETATM    2  H2  UNL     1     -12.004  14.197  70.315  1.00  0.00     0.000 HD 
HETATM    3  H1  UNL     1     -12.574  12.841  71.121  1.00  0.00     0.000 HD 
HETATM    4  CA  UNL     1     -11.661  12.440  69.242  1.00  0.00    -0.329 C  
HETATM    5  C   UNL     1     -11.420  10.959  69.585  1.00  0.00    -0.305 C  
HETATM    6  OXT UNL     1     -11.154  10.082  68.778  1.00  0.00    -0.226 OA 
HETATM    7  O   UNL     1     -11.559  10.730  70.917  1.00  0.00    -0.306 OA 
ENDROOT
BRANCH   4   8
HETATM    8  C   UNL     1     -10.555  12.996  68.324  1.00  0.00    -0.260 C  
BRANCH   8   9
HETATM    9  C   UNL     1     -10.994  13.257  66.898  1.00  0.00    -0.298 A  
HETATM   10  C   UNL     1     -10.660  14.470  66.269  1.00  0.00    -0.304 A  
HETATM   11  C   UNL     1     -11.136  14.739  64.991  1.00  0.00    -0.405 A  
HETATM   12  O   UNL     1     -10.848  15.910  64.347  1.00  0.00    -0.843 OA 
HETATM   13  C   UNL     1     -11.935  13.813  64.331  1.00  0.00    -0.445 A  
HETATM   14  H   UNL     1     -11.173  16.094  63.474  1.00  0.00     0.000 HD 
HETATM   15  O   UNL     1     -12.424  14.097  63.088  1.00  0.00    -1.126 OA 
HETATM   16  C   UNL     1     -12.255  12.601  64.923  1.00  0.00    -0.531 A  
HETATM   17  C   UNL     1     -11.776  12.318  66.204  1.00  0.00    -0.440 A  
HETATM   18  H   UNL     1     -12.971  13.464  62.637  1.00  0.00     0.000 HD 
ENDBRANCH   8   9
ENDBRANCH   4   8
TORSDOF 2
ENDMDL
MODEL       13
REMARK 921   NORMALIZED FREE ENERGY PREDICTED BY IDOCK:   -5.66 KCAL/MOL
REMARK 922        TOTAL FREE ENERGY PREDICTED BY IDOCK:   -6.51 KCAL/MOL
REMARK 923 INTER-LIGAND FREE ENERGY PREDICTED BY IDOCK:   -6.53 KCAL/MOL
REMARK 924 INTRA-LIGAND FREE ENERGY PREDICTED BY IDOCK:    0.02 KCAL/MOL
REMARK 927      BINDING AFFINITY PREDICTED BY RF-SCORE:    0.00 PKD
ROOT
HETATM    1  N   UNL     1     -10.805  13.530  69.324  1.00  0.00    -0.433 NA 
HETATM    2  H2  UNL     1     -10.199  12.709  69.310  1.00  0.00     0.000 HD 
HETATM    3  H1  UNL     1     -11.340  13.566  70.192  1.00  0.00     0.000 HD 
HETATM    4  CA  UNL     1     -10.015  14.771  69.044  1.00  0.00    -0.218 C  
HETATM    5  C   UNL     1     -10.964  15.983  69.074  1.00  0.00    -0.296 C  
HETATM    6  OXT UNL     1     -10.650  17.131  68.803  1.00  0.00    -0.343 OA 
HETATM    7  O   UNL     1     -12.215  15.624  69.464  1.00  0.00    -0.337 OA 
ENDROOT
BRANCH   4   8
HETATM    8  C   UNL     1      -9.206  14.717  67.733  1.00  0.00    -0.194 C  
BRANCH   8   9
HETATM    9  C   UNL     1     -10.043  14.516  66.487  1.00  0.00    -0.280 A  
HETATM   10  C   UNL     1     -10.384  15.618  65.683  1.00  0.00    -0.408 A  
HETATM   11  C   UNL     1     -11.221  15.440  64.587  1.00  0.00    -0.364 A  
HETATM   12  O   UNL     1     -11.591  16.484  63.786  1.00  0.00    -1.617 OA 
HETATM   13  C   UNL     1     -11.716  14.177  64.280  1.00  0.00    -0.345 A  
HETATM   14  H   UNL     1     -12.162  16.363  63.037  1.00  0.00     0.000 HD 
HETATM   15  O   UNL     1     -12.562  14.015  63.219  1.00  0.00    -1.073 OA 
HETATM   16  C   UNL     1     -11.370  13.074  65.044  1.00  0.00    -0.325 A  
HETATM   17  C   UNL     1     -10.525  13.241  66.143  1.00  0.00    -0.296 A  
HETATM   18  H   UNL     1     -12.900  13.153  63.010  1.00  0.00     0.000 HD 
ENDBRANCH   8   9
ENDBRANCH   4   8
TORSDOF 2
ENDMDL
MODEL       14
REMARK 921   NORMALIZED FREE ENERGY PREDICTED BY IDOCK:   -5.59 KCAL/MOL
REMARK 922        TOTAL FREE ENERGY PREDICTED BY IDOCK:   -6.43 KCAL/MOL
REMARK 923 INTER-LIGAND FREE ENERGY PREDICTED BY IDOCK:   -6.20 KCAL/MOL
REMARK 924 INTRA-LIGAND FREE ENERGY PREDICTED BY IDOCK:   -0.23 KCAL/MOL
REMARK 927      BINDING AFFINITY PREDICTED BY RF-SCORE:    0.00 PKD
ROOT
HETATM    1  N   UNL     1     -12.590  14.140  63.813  1.00  0.00    -0.924 NA 
HETATM    2  H2  UNL     1     -13.054  13.243  63.952  1.00  0.00     0.000 HD 
HETATM    3  H1  UNL     1     -13.255  14.841  63.485  1.00  0.00     0.000 HD 
HETATM    4  CA  UNL     1     -11.841  14.542  65.046  1.00  0.00    -0.399 C  
HETATM    5  C   UNL     1     -11.157  15.897  64.795  1.00  0.00    -0.384 C  
HETATM    6  OXT UNL     1     -10.402  16.461  65.571  1.00  0.00    -0.472 OA 
HETATM    7  O   UNL     1     -11.512  16.416  63.591  1.00  0.00    -0.858 OA 
ENDROOT
BRANCH   4   8
HETATM    8  C   UNL     1     -10.836  13.483  65.542  1.00  0.00    -0.293 C  
BRANCH   8   9
HETATM    9  C   UNL     1     -11.105  12.969  66.941  1.00  0.00    -0.306 A  
HETATM   10  C   UNL     1     -11.089  11.587  67.198  1.00  0.00    -0.355 A  
HETATM   11  C   UNL     1     -11.418  11.117  68.465  1.00  0.00    -0.302 A  
HETATM   12  O   UNL     1     -11.429   9.781  68.756  1.00  0.00    -0.480 OA 
HETATM   13  C   UNL     1     -11.757  12.006  69.477  1.00  0.00    -0.342 A  
HETATM   14  H   UNL     1     -11.654   9.459  69.621  1.00  0.00     0.000 HD 
HETATM   15  O   UNL     1     -12.108  11.535  70.710  1.00  0.00    -0.364 OA 
HETATM   16  C   UNL     1     -11.753  13.374  69.251  1.00  0.00    -0.383 A  
HETATM   17  C   UNL     1     -11.418  13.857  67.985  1.00  0.00    -0.339 A  
HETATM   18  H   UNL     1     -12.340  12.144  71.402  1.00  0.00     0.000 HD 
ENDBRANCH   8   9
ENDBRANCH   4   8
TORSDOF 2
ENDMDL
MODEL       15
REMARK 921   NORMALIZED FREE ENERGY PREDICTED BY IDOCK:   -5.59 KCAL/MOL
REMARK 922        TOTAL FREE ENERGY PREDICTED BY IDOCK:   -6.43 KCAL/MOL
REMARK 923 INTER-LIGAND FREE ENERGY PREDICTED BY IDOCK:   -6.18 KCAL/MOL
REMARK 924 INTRA-LIGAND FREE ENERGY PREDICTED BY IDOCK:   -0.25 KCAL/MOL
REMARK 927      BINDING AFFINITY PREDICTED BY RF-SCORE:    0.00 PKD
ROOT
HETATM    1  N   UNL     1     -11.983  10.429  68.478  1.00  0.00    -0.759 NA 
HETATM    2  H2  UNL     1     -12.625  11.120  68.864  1.00  0.00     0.000 HD 
HETATM    3  H1  UNL     1     -12.470   9.552  68.292  1.00  0.00     0.000 HD 
HETATM    4  CA  UNL     1     -11.260  10.987  67.291  1.00  0.00    -0.258 C  
HETATM    5  C   UNL     1     -10.304   9.915  66.739  1.00  0.00    -0.217 C  
HETATM    6  OXT UNL     1      -9.510  10.080  65.826  1.00  0.00    -0.181 OA 
HETATM    7  O   UNL     1     -10.461   8.730  67.385  1.00  0.00    -0.261 OA 
ENDROOT
BRANCH   4   8
HETATM    8  C   UNL     1     -10.524  12.312  67.571  1.00  0.00    -0.230 C  
BRANCH   8   9
HETATM    9  C   UNL     1     -10.732  13.381  66.520  1.00  0.00    -0.287 A  
HETATM   10  C   UNL     1      -9.965  14.559  66.551  1.00  0.00    -0.290 A  
HETATM   11  C   UNL     1     -10.217  15.573  65.633  1.00  0.00    -0.376 A  
HETATM   12  O   UNL     1      -9.507  16.740  65.637  1.00  0.00    -0.523 OA 
HETATM   13  C   UNL     1     -11.220  15.424  64.682  1.00  0.00    -0.364 A  
HETATM   14  H   UNL     1      -9.679  17.433  65.009  1.00  0.00     0.000 HD 
HETATM   15  O   UNL     1     -11.482  16.435  63.803  1.00  0.00    -1.590 OA 
HETATM   16  C   UNL     1     -11.970  14.259  64.617  1.00  0.00    -0.468 A  
HETATM   17  C   UNL     1     -11.719  13.233  65.530  1.00  0.00    -0.376 A  
HETATM   18  H   UNL     1     -12.168  16.333  63.153  1.00  0.00     0.000 HD 
ENDBRANCH   8   9
ENDBRANCH   4   8
TORSDOF 2
ENDMDL
MODEL       16
REMARK 921   NORMALIZED FREE ENERGY PREDICTED BY IDOCK:   -5.58 KCAL/MOL
REMARK 922        TOTAL FREE ENERGY PREDICTED BY IDOCK:   -6.42 KCAL/MOL
REMARK 923 INTER-LIGAND FREE ENERGY PREDICTED BY IDOCK:   -6.18 KCAL/MOL
REMARK 924 INTRA-LIGAND FREE ENERGY PREDICTED BY IDOCK:   -0.24 KCAL/MOL
REMARK 927      BINDING AFFINITY PREDICTED BY RF-SCORE:    0.00 PKD
ROOT
HETATM    1  N   UNL     1      -8.359  18.057  65.986  1.00  0.00    -0.519 NA 
HETATM    2  H2  UNL     1      -7.940  17.737  65.113  1.00  0.00     0.000 HD 
HETATM    3  H1  UNL     1      -8.616  19.043  65.920  1.00  0.00     0.000 HD 
HETATM    4  CA  UNL     1      -9.488  17.159  66.388  1.00  0.00    -0.269 C  
HETATM    5  C   UNL     1     -10.091  17.676  67.706  1.00  0.00    -0.338 C  
HETATM    6  OXT UNL     1     -10.973  17.121  68.343  1.00  0.00    -0.337 OA 
HETATM    7  O   UNL     1      -9.532  18.857  68.078  1.00  0.00    -0.298 OA 
ENDROOT
BRANCH   4   8
HETATM    8  C   UNL     1      -9.100  15.671  66.487  1.00  0.00    -0.337 C  
BRANCH   8   9
HETATM    9  C   UNL     1     -10.150  14.712  65.967  1.00  0.00    -0.330 A  
HETATM   10  C   UNL     1     -10.847  15.007  64.782  1.00  0.00    -0.375 A  
HETATM   11  C   UNL     1     -11.868  14.165  64.353  1.00  0.00    -0.428 A  
HETATM   12  O   UNL     1     -12.581  14.420  63.216  1.00  0.00    -1.043 OA 
HETATM   13  C   UNL     1     -12.197  13.032  65.088  1.00  0.00    -0.459 A  
HETATM   14  H   UNL     1     -13.278  13.845  62.922  1.00  0.00     0.000 HD 
HETATM   15  O   UNL     1     -13.221  12.226  64.677  1.00  0.00    -0.763 OA 
HETATM   16  C   UNL     1     -11.505  12.709  66.245  1.00  0.00    -0.415 A  
HETATM   17  C   UNL     1     -10.474  13.544  66.680  1.00  0.00    -0.274 A  
HETATM   18  H   UNL     1     -13.446  11.452  65.179  1.00  0.00     0.000 HD 
ENDBRANCH   8   9
ENDBRANCH   4   8
TORSDOF 2
ENDMDL
MODEL       17
REMARK 921   NORMALIZED FREE ENERGY PREDICTED BY IDOCK:   -5.57 KCAL/MOL
REMARK 922        TOTAL FREE ENERGY PREDICTED BY IDOCK:   -6.41 KCAL/MOL
REMARK 923 INTER-LIGAND FREE ENERGY PREDICTED BY IDOCK:   -6.33 KCAL/MOL
REMARK 924 INTRA-LIGAND FREE ENERGY PREDICTED BY IDOCK:   -0.08 KCAL/MOL
REMARK 927      BINDING AFFINITY PREDICTED BY RF-SCORE:    0.00 PKD
ROOT
HETATM    1  N   UNL     1     -10.537  14.942  64.660  1.00  0.00    -0.585 NA 
HETATM    2  H2  UNL     1      -9.800  15.329  65.249  1.00  0.00     0.000 HD 
HETATM    3  H1  UNL     1     -10.156  14.636  63.764  1.00  0.00     0.000 HD 
HETATM    4  CA  UNL     1     -11.293  13.877  65.394  1.00  0.00    -0.309 C  
HETATM    5  C   UNL     1     -12.392  13.320  64.472  1.00  0.00    -0.368 C  
HETATM    6  OXT UNL     1     -13.236  12.500  64.797  1.00  0.00    -0.839 OA 
HETATM    7  O   UNL     1     -12.302  13.843  63.221  1.00  0.00    -0.749 OA 
ENDROOT
BRANCH   4   8
HETATM    8  C   UNL     1     -11.869  14.338  66.748  1.00  0.00    -0.449 C  
BRANCH   8   9
HETATM    9  C   UNL     1     -11.743  13.321  67.863  1.00  0.00    -0.395 A  
HETATM   10  C   UNL     1     -11.459  11.978  67.562  1.00  0.00    -0.403 A  
HETATM   11  C   UNL     1     -11.427  11.033  68.582  1.00  0.00    -0.308 A  
HETATM   12  O   UNL     1     -11.170   9.714  68.333  1.00  0.00    -0.487 OA 
HETATM   13  C   UNL     1     -11.668  11.413  69.897  1.00  0.00    -0.346 A  
HETATM   14  H   UNL     1     -11.147   9.069  69.030  1.00  0.00     0.000 HD 
HETATM   15  O   UNL     1     -11.664  10.475  70.890  1.00  0.00    -0.338 OA 
HETATM   16  C   UNL     1     -11.923  12.737  70.218  1.00  0.00    -0.358 A  
HETATM   17  C   UNL     1     -11.951  13.694  69.202  1.00  0.00    -0.394 A  
HETATM   18  H   UNL     1     -11.829  10.735  71.788  1.00  0.00     0.000 HD 
ENDBRANCH   8   9
ENDBRANCH   4   8
TORSDOF 2
ENDMDL
MODEL       18
REMARK 921   NORMALIZED FREE ENERGY PREDICTED BY IDOCK:   -5.56 KCAL/MOL
REMARK 922        TOTAL FREE ENERGY PREDICTED BY IDOCK:   -6.39 KCAL/MOL
REMARK 923 INTER-LIGAND FREE ENERGY PREDICTED BY IDOCK:   -6.15 KCAL/MOL
REMARK 924 INTRA-LIGAND FREE ENERGY PREDICTED BY IDOCK:   -0.24 KCAL/MOL
REMARK 927      BINDING AFFINITY PREDICTED BY RF-SCORE:    0.00 PKD
ROOT
HETATM    1  N   UNL     1     -12.324  10.600  68.744  1.00  0.00    -0.784 NA 
HETATM    2  H2  UNL     1     -13.276  10.727  68.401  1.00  0.00     0.000 HD 
HETATM    3  H1  UNL     1     -12.030   9.630  68.634  1.00  0.00     0.000 HD 
HETATM    4  CA  UNL     1     -11.400  11.593  68.109  1.00  0.00    -0.292 C  
HETATM    5  C   UNL     1      -9.978  11.369  68.653  1.00  0.00    -0.202 C  
HETATM    6  OXT UNL     1      -9.008  12.065  68.399  1.00  0.00    -0.183 OA 
HETATM    7  O   UNL     1      -9.919  10.270  69.450  1.00  0.00    -0.214 OA 
ENDROOT
BRANCH   4   8
HETATM    8  C   UNL     1     -11.845  13.060  68.276  1.00  0.00    -0.381 C  
BRANCH   8   9
HETATM    9  C   UNL     1     -11.732  13.897  67.019  1.00  0.00    -0.426 A  
HETATM   10  C   UNL     1     -10.904  15.033  67.002  1.00  0.00    -0.311 A  
HETATM   11  C   UNL     1     -10.867  15.844  65.873  1.00  0.00    -0.233 A  
HETATM   12  O   UNL     1     -10.088  16.966  65.817  1.00  0.00    -0.502 OA 
HETATM   13  C   UNL     1     -11.642  15.534  64.761  1.00  0.00    -0.256 A  
HETATM   14  H   UNL     1     -10.063  17.520  65.047  1.00  0.00     0.000 HD 
HETATM   15  O   UNL     1     -11.624  16.352  63.668  1.00  0.00    -1.514 OA 
HETATM   16  C   UNL     1     -12.445  14.404  64.748  1.00  0.00    -0.371 A  
HETATM   17  C   UNL     1     -12.483  13.579  65.874  1.00  0.00    -0.484 A  
HETATM   18  H   UNL     1     -12.154  16.140  62.908  1.00  0.00     0.000 HD 
ENDBRANCH   8   9
ENDBRANCH   4   8
TORSDOF 2
ENDMDL
MODEL       19
REMARK 921   NORMALIZED FREE ENERGY PREDICTED BY IDOCK:   -5.54 KCAL/MOL
REMARK 922        TOTAL FREE ENERGY PREDICTED BY IDOCK:   -6.37 KCAL/MOL
REMARK 923 INTER-LIGAND FREE ENERGY PREDICTED BY IDOCK:   -6.13 KCAL/MOL
REMARK 924 INTRA-LIGAND FREE ENERGY PREDICTED BY IDOCK:   -0.24 KCAL/MOL
REMARK 927      BINDING AFFINITY PREDICTED BY RF-SCORE:    0.00 PKD
ROOT
HETATM    1  N   UNL     1     -10.275  14.946  69.781  1.00  0.00    -0.436 NA 
HETATM    2  H2  UNL     1     -10.355  13.967  70.054  1.00  0.00     0.000 HD 
HETATM    3  H1  UNL     1      -9.399  15.343  70.123  1.00  0.00     0.000 HD 
HETATM    4  CA  UNL     1     -10.480  15.101  68.306  1.00  0.00    -0.241 C  
HETATM    5  C   UNL     1     -10.351  16.589  67.937  1.00  0.00    -0.294 C  
HETATM    6  OXT UNL     1     -10.546  17.061  66.828  1.00  0.00    -0.284 OA 
HETATM    7  O   UNL     1      -9.969  17.334  69.008  1.00  0.00    -0.298 OA 
ENDROOT
BRANCH   4   8
HETATM    8  C   UNL     1     -11.803  14.501  67.790  1.00  0.00    -0.390 C  
BRANCH   8   9
HETATM    9  C   UNL     1     -11.675  13.708  66.507  1.00  0.00    -0.414 A  
HETATM   10  C   UNL     1     -12.192  14.224  65.305  1.00  0.00    -0.414 A  
HETATM   11  C   UNL     1     -12.146  13.456  64.148  1.00  0.00    -0.433 A  
HETATM   12  O   UNL     1     -12.650  13.911  62.961  1.00  0.00    -1.030 OA 
HETATM   13  C   UNL     1     -11.587  12.183  64.172  1.00  0.00    -0.390 A  
HETATM   14  H   UNL     1     -12.618  13.386  62.170  1.00  0.00     0.000 HD 
HETATM   15  O   UNL     1     -11.572  11.422  63.037  1.00  0.00    -0.865 OA 
HETATM   16  C   UNL     1     -11.048  11.667  65.340  1.00  0.00    -0.299 A  
HETATM   17  C   UNL     1     -11.083  12.433  66.506  1.00  0.00    -0.346 A  
HETATM   18  H   UNL     1     -11.190  10.553  63.054  1.00  0.00     0.000 HD 
ENDBRANCH   8   9
ENDBRANCH   4   8
TORSDOF 2
ENDMDL
MODEL       20
REMARK 921   NORMALIZED FREE ENERGY PREDICTED BY IDOCK:   -5.51 KCAL/MOL
REMARK 922        TOTAL FREE ENERGY PREDICTED BY IDOCK:   -6.35 KCAL/MOL
REMARK 923 INTER-LIGAND FREE ENERGY PREDICTED BY IDOCK:   -6.27 KCAL/MOL
REMARK 924 INTRA-LIGAND FREE ENERGY PREDICTED BY IDOCK:   -0.08 KCAL/MOL
REMARK 927      BINDING AFFINITY PREDICTED BY RF-SCORE:    0.00 PKD
ROOT
HETATM    1  N   UNL     1     -12.466  12.526  65.399  1.00  0.00    -0.647 NA 
HETATM    2  H2  UNL     1     -12.481  12.047  66.299  1.00  0.00     0.000 HD 
HETATM    3  H1  UNL     1     -13.253  12.227  64.822  1.00  0.00     0.000 HD 
HETATM    4  CA  UNL     1     -12.380  14.008  65.592  1.00  0.00    -0.479 C  
HETATM    5  C   UNL     1     -12.361  14.691  64.212  1.00  0.00    -0.349 C  
HETATM    6  OXT UNL     1     -12.213  15.887  64.019  1.00  0.00    -0.719 OA 
HETATM    7  O   UNL     1     -12.551  13.791  63.212  1.00  0.00    -0.830 OA 
ENDROOT
BRANCH   4   8
HETATM    8  C   UNL     1     -11.191  14.459  66.464  1.00  0.00    -0.340 C  
BRANCH   8   9
HETATM    9  C   UNL     1     -11.474  14.474  67.951  1.00  0.00    -0.348 A  
HETATM   10  C   UNL     1     -11.372  15.675  68.675  1.00  0.00    -0.359 A  
HETATM   11  C   UNL     1     -11.551  15.668  70.054  1.00  0.00    -0.350 A  
HETATM   12  O   UNL     1     -11.447  16.809  70.800  1.00  0.00    -0.483 OA 
HETATM   13  C   UNL     1     -11.835  14.480  70.718  1.00  0.00    -0.304 A  
HETATM   14  H   UNL     1     -11.570  16.804  71.742  1.00  0.00     0.000 HD 
HETATM   15  O   UNL     1     -11.979  14.475  72.076  1.00  0.00    -0.283 OA 
HETATM   16  C   UNL     1     -11.965  13.290  70.019  1.00  0.00    -0.399 A  
HETATM   17  C   UNL     1     -11.794  13.288  68.634  1.00  0.00    -0.380 A  
HETATM   18  H   UNL     1     -12.173  13.663  72.530  1.00  0.00     0.000 HD 
ENDBRANCH   8   9
ENDBRANCH   4   8
TORSDOF 2
ENDMDL
MODEL       21
REMARK 921   NORMALIZED FREE ENERGY PREDICTED BY IDOCK:   -5.50 KCAL/MOL
REMARK 922        TOTAL FREE ENERGY PREDICTED BY IDOCK:   -6.33 KCAL/MOL
REMARK 923 INTER-LIGAND FREE ENERGY PREDICTED BY IDOCK:   -6.14 KCAL/MOL
REMARK 924 INTRA-LIGAND FREE ENERGY PREDICTED BY IDOCK:   -0.19 KCAL/MOL
REMARK 927      BINDING AFFINITY PREDICTED BY RF-SCORE:    0.00 PKD
ROOT
HETATM    1  N   UNL     1     -12.406  10.510  68.855  1.00  0.00    -0.735 NA 
HETATM    2  H2  UNL     1     -13.009  10.824  68.095  1.00  0.00     0.000 HD 
HETATM    3  H1  UNL     1     -12.678   9.576  69.165  1.00  0.00     0.000 HD 
HETATM    4  CA  UNL     1     -10.964  10.626  68.465  1.00  0.00    -0.248 C  
HETATM    5  C   UNL     1     -10.091  10.142  69.636  1.00  0.00    -0.234 C  
HETATM    6  OXT UNL     1      -8.871  10.187  69.672  1.00  0.00    -0.195 OA 
HETATM    7  O   UNL     1     -10.848   9.631  70.642  1.00  0.00    -0.270 OA 
ENDROOT
BRANCH   4   8
HETATM    8  C   UNL     1     -10.553  12.036  67.996  1.00  0.00    -0.233 C  
BRANCH   8   9
HETATM    9  C   UNL     1     -11.177  12.469  66.686  1.00  0.00    -0.357 A  
HETATM   10  C   UNL     1     -10.977  11.704  65.524  1.00  0.00    -0.327 A  
HETATM   11  C   UNL     1     -11.482  12.150  64.308  1.00  0.00    -0.367 A  
HETATM   12  O   UNL     1     -11.299  11.447  63.150  1.00  0.00    -0.829 OA 
HETATM   13  C   UNL     1     -12.189  13.345  64.238  1.00  0.00    -0.392 A  
HETATM   14  H   UNL     1     -11.645  11.751  62.320  1.00  0.00     0.000 HD 
HETATM   15  O   UNL     1     -12.657  13.792  63.035  1.00  0.00    -1.005 OA 
HETATM   16  C   UNL     1     -12.421  14.100  65.377  1.00  0.00    -0.488 A  
HETATM   17  C   UNL     1     -11.923  13.658  66.604  1.00  0.00    -0.458 A  
HETATM   18  H   UNL     1     -13.140  14.609  62.988  1.00  0.00     0.000 HD 
ENDBRANCH   8   9
ENDBRANCH   4   8
TORSDOF 2
ENDMDL
MODEL       22
REMARK 921   NORMALIZED FREE ENERGY PREDICTED BY IDOCK:   -5.50 KCAL/MOL
REMARK 922        TOTAL FREE ENERGY PREDICTED BY IDOCK:   -6.33 KCAL/MOL
REMARK 923 INTER-LIGAND FREE ENERGY PREDICTED BY IDOCK:   -6.10 KCAL/MOL
REMARK 924 INTRA-LIGAND FREE ENERGY PREDICTED BY IDOCK:   -0.23 KCAL/MOL
REMARK 927      BINDING AFFINITY PREDICTED BY RF-SCORE:    0.00 PKD
ROOT
HETATM    1  N   UNL     1      -9.833   9.363  67.334  1.00  0.00    -0.162 NA 
HETATM    2  H2  UNL     1      -9.578   8.582  67.939  1.00  0.00     0.000 HD 
HETATM    3  H1  UNL     1     -10.094   9.027  66.406  1.00  0.00     0.000 HD 
HETATM    4  CA  UNL     1     -10.875  10.216  67.988  1.00  0.00    -0.270 C  
HETATM    5  C   UNL     1     -11.231  11.380  67.046  1.00  0.00    -0.283 C  
HETATM    6  OXT UNL     1     -11.986  12.300  67.315  1.00  0.00    -0.546 OA 
HETATM    7  O   UNL     1     -10.610  11.252  65.844  1.00  0.00    -0.258 OA 
ENDROOT
BRANCH   4   8
HETATM    8  C   UNL     1     -10.481  10.723  69.390  1.00  0.00    -0.229 C  
BRANCH   8   9
HETATM    9  C   UNL     1     -11.412  10.285  70.501  1.00  0.00    -0.427 A  
HETATM   10  C   UNL     1     -11.223   9.041  71.129  1.00  0.00    -0.375 A  
HETATM   11  C   UNL     1     -12.130   8.608  72.090  1.00  0.00    -0.381 A  
HETATM   12  O   UNL     1     -11.993   7.400  72.715  1.00  0.00    -0.545 OA 
HETATM   13  C   UNL     1     -13.218   9.400  72.436  1.00  0.00    -0.403 A  
HETATM   14  H   UNL     1     -12.612   7.104  73.372  1.00  0.00     0.000 HD 
HETATM   15  O   UNL     1     -14.121   8.955  73.359  1.00  0.00    -1.256 OA 
HETATM   16  C   UNL     1     -13.408  10.641  71.847  1.00  0.00    -0.454 A  
HETATM   17  C   UNL     1     -12.500  11.088  70.886  1.00  0.00    -0.509 A  
HETATM   18  H   UNL     1     -14.865   9.497  73.594  1.00  0.00     0.000 HD 
ENDBRANCH   8   9
ENDBRANCH   4   8
TORSDOF 2
ENDMDL
MODEL       23
REMARK 921   NORMALIZED FREE ENERGY PREDICTED BY IDOCK:   -5.50 KCAL/MOL
REMARK 922        TOTAL FREE ENERGY PREDICTED BY IDOCK:   -6.32 KCAL/MOL
REMARK 923 INTER-LIGAND FREE ENERGY PREDICTED BY IDOCK:   -6.10 KCAL/MOL
REMARK 924 INTRA-LIGAND FREE ENERGY PREDICTED BY IDOCK:   -0.22 KCAL/MOL
REMARK 927      BINDING AFFINITY PREDICTED BY RF-SCORE:    0.00 PKD
ROOT
HETATM    1  N   UNL     1     -12.114  12.647  66.996  1.00  0.00    -0.486 NA 
HETATM    2  H2  UNL     1     -11.766  12.755  67.948  1.00  0.00     0.000 HD 
HETATM    3  H1  UNL     1     -13.040  12.218  67.000  1.00  0.00     0.000 HD 
HETATM    4  CA  UNL     1     -12.051  13.951  66.261  1.00  0.00    -0.451 C  
HETATM    5  C   UNL     1     -12.584  13.744  64.832  1.00  0.00    -0.341 C  
HETATM    6  OXT UNL     1     -12.589  14.590  63.952  1.00  0.00    -0.827 OA 
HETATM    7  O   UNL     1     -13.078  12.490  64.664  1.00  0.00    -0.845 OA 
ENDROOT
BRANCH   4   8
HETATM    8  C   UNL     1     -10.653  14.600  66.256  1.00  0.00    -0.306 C  
BRANCH   8   9
HETATM    9  C   UNL     1     -10.595  15.972  66.893  1.00  0.00    -0.300 A  
HETATM   10  C   UNL     1     -10.507  17.120  66.086  1.00  0.00    -0.277 A  
HETATM   11  C   UNL     1     -10.371  18.371  66.678  1.00  0.00    -0.396 A  
HETATM   12  O   UNL     1     -10.268  19.512  65.933  1.00  0.00    -0.444 OA 
HETATM   13  C   UNL     1     -10.326  18.491  68.062  1.00  0.00    -0.383 A  
HETATM   14  H   UNL     1     -10.175  20.367  66.337  1.00  0.00     0.000 HD 
HETATM   15  O   UNL     1     -10.162  19.720  68.635  1.00  0.00    -0.445 OA 
HETATM   16  C   UNL     1     -10.437  17.375  68.876  1.00  0.00    -0.312 A  
HETATM   17  C   UNL     1     -10.581  16.115  68.292  1.00  0.00    -0.288 A  
HETATM   18  H   UNL     1     -10.131  19.802  69.581  1.00  0.00     0.000 HD 
ENDBRANCH   8   9
ENDBRANCH   4   8
TORSDOF 2
ENDMDL
MODEL       24
REMARK 921   NORMALIZED FREE ENERGY PREDICTED BY IDOCK:   -5.48 KCAL/MOL
REMARK 922        TOTAL FREE ENERGY PREDICTED BY IDOCK:   -6.30 KCAL/MOL
REMARK 923 INTER-LIGAND FREE ENERGY PREDICTED BY IDOCK:   -6.09 KCAL/MOL
REMARK 924 INTRA-LIGAND FREE ENERGY PREDICTED BY IDOCK:   -0.22 KCAL/MOL
REMARK 927      BINDING AFFINITY PREDICTED BY RF-SCORE:    0.00 PKD
ROOT
HETATM    1  N   UNL     1     -11.970  12.144  66.621  1.00  0.00    -0.629 NA 
HETATM    2  H2  UNL     1     -11.531  12.106  67.541  1.00  0.00     0.000 HD 
HETATM    3  H1  UNL     1     -12.893  11.710  66.646  1.00  0.00     0.000 HD 
HETATM    4  CA  UNL     1     -11.970  13.547  66.096  1.00  0.00    -0.412 C  
HETATM    5  C   UNL     1     -12.639  13.561  64.711  1.00  0.00    -0.301 C  
HETATM    6  OXT UNL     1     -12.725  14.534  63.978  1.00  0.00    -0.759 OA 
HETATM    7  O   UNL     1     -13.154  12.343  64.396  1.00  0.00    -0.786 OA 
ENDROOT
BRANCH   4   8
HETATM    8  C   UNL     1     -10.576  14.203  66.059  1.00  0.00    -0.297 C  
BRANCH   8   9
HETATM    9  C   UNL     1     -10.452  15.462  66.890  1.00  0.00    -0.295 A  
HETATM   10  C   UNL     1     -10.893  15.471  68.225  1.00  0.00    -0.292 A  
HETATM   11  C   UNL     1     -10.853  16.652  68.958  1.00  0.00    -0.314 A  
HETATM   12  O   UNL     1     -11.285  16.710  70.254  1.00  0.00    -0.479 OA 
HETATM   13  C   UNL     1     -10.374  17.821  68.379  1.00  0.00    -0.376 A  
HETATM   14  H   UNL     1     -11.258  17.517  70.755  1.00  0.00     0.000 HD 
HETATM   15  O   UNL     1     -10.366  18.984  69.095  1.00  0.00    -0.524 OA 
HETATM   16  C   UNL     1      -9.910  17.828  67.072  1.00  0.00    -0.309 A  
HETATM   17  C   UNL     1      -9.940  16.646  66.330  1.00  0.00    -0.316 A  
HETATM   18  H   UNL     1     -10.040  19.783  68.698  1.00  0.00     0.000 HD 
ENDBRANCH   8   9
ENDBRANCH   4   8
TORSDOF 2
ENDMDL
MODEL       25
REMARK 921   NORMALIZED FREE ENERGY PREDICTED BY IDOCK:   -5.47 KCAL/MOL
REMARK 922        TOTAL FREE ENERGY PREDICTED BY IDOCK:   -6.30 KCAL/MOL
REMARK 923 INTER-LIGAND FREE ENERGY PREDICTED BY IDOCK:   -6.08 KCAL/MOL
REMARK 924 INTRA-LIGAND FREE ENERGY PREDICTED BY IDOCK:   -0.22 KCAL/MOL
REMARK 927      BINDING AFFINITY PREDICTED BY RF-SCORE:    0.00 PKD
ROOT
HETATM    1  N   UNL     1     -10.679  19.144  67.398  1.00  0.00    -0.483 NA 
HETATM    2  H2  UNL     1     -11.536  19.109  66.846  1.00  0.00     0.000 HD 
HETATM    3  H1  UNL     1     -10.850  19.596  68.297  1.00  0.00     0.000 HD 
HETATM    4  CA  UNL     1     -10.066  17.781  67.507  1.00  0.00    -0.340 C  
HETATM    5  C   UNL     1      -8.779  17.879  68.345  1.00  0.00    -0.293 C  
HETATM    6  OXT UNL     1      -8.001  16.961  68.550  1.00  0.00    -0.220 OA 
HETATM    7  O   UNL     1      -8.614  19.126  68.857  1.00  0.00    -0.348 OA 
ENDROOT
BRANCH   4   8
HETATM    8  C   UNL     1      -9.808  17.099  66.149  1.00  0.00    -0.280 C  
BRANCH   8   9
HETATM    9  C   UNL     1     -10.677  15.889  65.879  1.00  0.00    -0.303 A  
HETATM   10  C   UNL     1     -11.093  15.599  64.568  1.00  0.00    -0.303 A  
HETATM   11  C   UNL     1     -11.958  14.535  64.337  1.00  0.00    -0.449 A  
HETATM   12  O   UNL     1     -12.400  14.226  63.081  1.00  0.00    -1.096 OA 
HETATM   13  C   UNL     1     -12.408  13.755  65.396  1.00  0.00    -0.475 A  
HETATM   14  H   UNL     1     -12.991  13.499  62.923  1.00  0.00     0.000 HD 
HETATM   15  O   UNL     1     -13.282  12.730  65.165  1.00  0.00    -0.686 OA 
HETATM   16  C   UNL     1     -11.989  14.008  66.693  1.00  0.00    -0.473 A  
HETATM   17  C   UNL     1     -11.116  15.070  66.934  1.00  0.00    -0.331 A  
HETATM   18  H   UNL     1     -13.590  12.197  65.889  1.00  0.00     0.000 HD 
ENDBRANCH   8   9
ENDBRANCH   4   8
TORSDOF 2
ENDMDL
MODEL       26
REMARK 921   NORMALIZED FREE ENERGY PREDICTED BY IDOCK:   -5.47 KCAL/MOL
REMARK 922        TOTAL FREE ENERGY PREDICTED BY IDOCK:   -6.30 KCAL/MOL
REMARK 923 INTER-LIGAND FREE ENERGY PREDICTED BY IDOCK:   -6.23 KCAL/MOL
REMARK 924 INTRA-LIGAND FREE ENERGY PREDICTED BY IDOCK:   -0.07 KCAL/MOL
REMARK 927      BINDING AFFINITY PREDICTED BY RF-SCORE:    0.00 PKD
ROOT
HETATM    1  N   UNL     1     -13.137  14.076  65.048  1.00  0.00    -0.717 NA 
HETATM    2  H2  UNL     1     -13.144  14.957  65.562  1.00  0.00     0.000 HD 
HETATM    3  H1  UNL     1     -13.919  14.037  64.394  1.00  0.00     0.000 HD 
HETATM    4  CA  UNL     1     -11.799  13.849  64.413  1.00  0.00    -0.429 C  
HETATM    5  C   UNL     1     -11.831  12.514  63.648  1.00  0.00    -0.530 C  
HETATM    6  OXT UNL     1     -10.875  11.998  63.090  1.00  0.00    -0.356 OA 
HETATM    7  O   UNL     1     -13.076  11.972  63.648  1.00  0.00    -0.756 OA 
ENDROOT
BRANCH   4   8
HETATM    8  C   UNL     1     -10.617  13.909  65.401  1.00  0.00    -0.344 C  
BRANCH   8   9
HETATM    9  C   UNL     1     -10.971  13.539  66.826  1.00  0.00    -0.297 A  
HETATM   10  C   UNL     1     -11.360  12.224  67.136  1.00  0.00    -0.398 A  
HETATM   11  C   UNL     1     -11.764  11.910  68.429  1.00  0.00    -0.326 A  
HETATM   12  O   UNL     1     -12.164  10.649  68.773  1.00  0.00    -0.790 OA 
HETATM   13  C   UNL     1     -11.778  12.889  69.416  1.00  0.00    -0.321 A  
HETATM   14  H   UNL     1     -12.439  10.434  69.656  1.00  0.00     0.000 HD 
HETATM   15  O   UNL     1     -12.204  12.580  70.677  1.00  0.00    -0.371 OA 
HETATM   16  C   UNL     1     -11.373  14.185  69.137  1.00  0.00    -0.318 A  
HETATM   17  C   UNL     1     -10.960  14.509  67.843  1.00  0.00    -0.277 A  
HETATM   18  H   UNL     1     -12.215  13.250  71.351  1.00  0.00     0.000 HD 
ENDBRANCH   8   9
ENDBRANCH   4   8
TORSDOF 2
ENDMDL
MODEL       27
REMARK 921   NORMALIZED FREE ENERGY PREDICTED BY IDOCK:   -5.46 KCAL/MOL
REMARK 922        TOTAL FREE ENERGY PREDICTED BY IDOCK:   -6.29 KCAL/MOL
REMARK 923 INTER-LIGAND FREE ENERGY PREDICTED BY IDOCK:   -6.12 KCAL/MOL
REMARK 924 INTRA-LIGAND FREE ENERGY PREDICTED BY IDOCK:   -0.16 KCAL/MOL
REMARK 927      BINDING AFFINITY PREDICTED BY RF-SCORE:    0.00 PKD
ROOT
HETATM    1  N   UNL     1     -12.011  10.922  68.516  1.00  0.00    -0.762 NA 
HETATM    2  H2  UNL     1     -11.672  10.504  67.650  1.00  0.00     0.000 HD 
HETATM    3  H1  UNL     1     -11.806  10.317  69.311  1.00  0.00     0.000 HD 
HETATM    4  CA  UNL     1     -11.490  12.319  68.663  1.00  0.00    -0.307 C  
HETATM    5  C   UNL     1     -12.022  12.914  69.979  1.00  0.00    -0.309 C  
HETATM    6  OXT UNL     1     -11.850  14.062  70.355  1.00  0.00    -0.302 OA 
HETATM    7  O   UNL     1     -12.705  11.987  70.702  1.00  0.00    -0.200 OA 
ENDROOT
BRANCH   4   8
HETATM    8  C   UNL     1     -11.799  13.234  67.462  1.00  0.00    -0.403 C  
BRANCH   8   9
HETATM    9  C   UNL     1     -11.427  12.650  66.116  1.00  0.00    -0.413 A  
HETATM   10  C   UNL     1     -12.407  12.502  65.118  1.00  0.00    -0.496 A  
HETATM   11  C   UNL     1     -12.078  11.889  63.914  1.00  0.00    -0.401 A  
HETATM   12  O   UNL     1     -13.001  11.710  62.921  1.00  0.00    -0.845 OA 
HETATM   13  C   UNL     1     -10.786  11.428  63.691  1.00  0.00    -0.401 A  
HETATM   14  H   UNL     1     -12.777  11.292  62.099  1.00  0.00     0.000 HD 
HETATM   15  O   UNL     1     -10.478  10.800  62.518  1.00  0.00    -0.733 OA 
HETATM   16  C   UNL     1      -9.799  11.588  64.651  1.00  0.00    -0.283 A  
HETATM   17  C   UNL     1     -10.117  12.208  65.861  1.00  0.00    -0.270 A  
HETATM   18  H   UNL     1      -9.595  10.485  62.366  1.00  0.00     0.000 HD 
ENDBRANCH   8   9
ENDBRANCH   4   8
TORSDOF 2
ENDMDL
MODEL       28
REMARK 921   NORMALIZED FREE ENERGY PREDICTED BY IDOCK:   -5.45 KCAL/MOL
REMARK 922        TOTAL FREE ENERGY PREDICTED BY IDOCK:   -6.28 KCAL/MOL
REMARK 923 INTER-LIGAND FREE ENERGY PREDICTED BY IDOCK:   -6.08 KCAL/MOL
REMARK 924 INTRA-LIGAND FREE ENERGY PREDICTED BY IDOCK:   -0.20 KCAL/MOL
REMARK 927      BINDING AFFINITY PREDICTED BY RF-SCORE:    0.00 PKD
ROOT
HETATM    1  N   UNL     1      -8.841  11.078  69.061  1.00  0.00    -0.341 NA 
HETATM    2  H2  UNL     1      -8.115  11.431  68.438  1.00  0.00     0.000 HD 
HETATM    3  H1  UNL     1      -8.745  11.486  69.991  1.00  0.00     0.000 HD 
HETATM    4  CA  UNL     1     -10.196  11.267  68.449  1.00  0.00    -0.195 C  
HETATM    5  C   UNL     1     -11.261  10.723  69.418  1.00  0.00    -0.276 C  
HETATM    6  OXT UNL     1     -12.456  10.651  69.184  1.00  0.00    -0.317 OA 
HETATM    7  O   UNL     1     -10.707  10.341  70.599  1.00  0.00    -0.258 OA 
ENDROOT
BRANCH   4   8
HETATM    8  C   UNL     1     -10.341  10.650  67.044  1.00  0.00    -0.280 C  
BRANCH   8   9
HETATM    9  C   UNL     1     -10.864  11.604  65.991  1.00  0.00    -0.339 A  
HETATM   10  C   UNL     1     -11.899  12.502  66.305  1.00  0.00    -0.453 A  
HETATM   11  C   UNL     1     -12.432  13.317  65.313  1.00  0.00    -0.489 A  
HETATM   12  O   UNL     1     -13.448  14.194  65.570  1.00  0.00    -0.710 OA 
HETATM   13  C   UNL     1     -11.942  13.251  64.014  1.00  0.00    -0.465 A  
HETATM   14  H   UNL     1     -13.812  14.751  64.892  1.00  0.00     0.000 HD 
HETATM   15  O   UNL     1     -12.490  14.033  63.037  1.00  0.00    -1.101 OA 
HETATM   16  C   UNL     1     -10.904  12.392  63.689  1.00  0.00    -0.509 A  
HETATM   17  C   UNL     1     -10.358  11.574  64.680  1.00  0.00    -0.349 A  
HETATM   18  H   UNL     1     -12.156  13.988  62.149  1.00  0.00     0.000 HD 
ENDBRANCH   8   9
ENDBRANCH   4   8
TORSDOF 2
ENDMDL
MODEL       29
REMARK 921   NORMALIZED FREE ENERGY PREDICTED BY IDOCK:   -5.44 KCAL/MOL
REMARK 922        TOTAL FREE ENERGY PREDICTED BY IDOCK:   -6.26 KCAL/MOL
REMARK 923 INTER-LIGAND FREE ENERGY PREDICTED BY IDOCK:   -6.28 KCAL/MOL
REMARK 924 INTRA-LIGAND FREE ENERGY PREDICTED BY IDOCK:    0.02 KCAL/MOL
REMARK 927      BINDING AFFINITY PREDICTED BY RF-SCORE:    0.00 PKD
ROOT
HETATM    1  N   UNL     1      -9.477  14.773  65.737  1.00  0.00    -0.506 NA 
HETATM    2  H2  UNL     1      -8.989  13.894  65.906  1.00  0.00     0.000 HD 
HETATM    3  H1  UNL     1      -8.814  15.509  65.492  1.00  0.00     0.000 HD 
HETATM    4  CA  UNL     1     -10.574  14.582  64.735  1.00  0.00    -0.377 C  
HETATM    5  C   UNL     1     -11.283  15.929  64.510  1.00  0.00    -0.312 C  
HETATM    6  OXT UNL     1     -12.273  16.098  63.816  1.00  0.00    -0.934 OA 
HETATM    7  O   UNL     1     -10.656  16.937  65.172  1.00  0.00    -0.679 OA 
ENDROOT
BRANCH   4   8
HETATM    8  C   UNL     1     -11.575  13.470  65.104  1.00  0.00    -0.333 C  
BRANCH   8   9
HETATM    9  C   UNL     1     -11.668  13.176  66.587  1.00  0.00    -0.427 A  
HETATM   10  C   UNL     1     -12.074  14.184  67.480  1.00  0.00    -0.363 A  
HETATM   11  C   UNL     1     -12.079  13.933  68.847  1.00  0.00    -0.319 A  
HETATM   12  O   UNL     1     -12.452  14.887  69.753  1.00  0.00    -0.501 OA 
HETATM   13  C   UNL     1     -11.689  12.691  69.335  1.00  0.00    -0.325 A  
HETATM   14  H   UNL     1     -12.455  14.717  70.687  1.00  0.00     0.000 HD 
HETATM   15  O   UNL     1     -11.667  12.462  70.681  1.00  0.00    -0.479 OA 
HETATM   16  C   UNL     1     -11.311  11.676  68.469  1.00  0.00    -0.332 A  
HETATM   17  C   UNL     1     -11.309  11.915  67.094  1.00  0.00    -0.393 A  
HETATM   18  H   UNL     1     -11.400  11.613  71.013  1.00  0.00     0.000 HD 
ENDBRANCH   8   9
ENDBRANCH   4   8
TORSDOF 2
ENDMDL
MODEL       30
REMARK 921   NORMALIZED FREE ENERGY PREDICTED BY IDOCK:   -5.44 KCAL/MOL
REMARK 922        TOTAL FREE ENERGY PREDICTED BY IDOCK:   -6.26 KCAL/MOL
REMARK 923 INTER-LIGAND FREE ENERGY PREDICTED BY IDOCK:   -6.05 KCAL/MOL
REMARK 924 INTRA-LIGAND FREE ENERGY PREDICTED BY IDOCK:   -0.22 KCAL/MOL
REMARK 927      BINDING AFFINITY PREDICTED BY RF-SCORE:    0.00 PKD
ROOT
HETATM    1  N   UNL     1     -11.272  16.598  64.090  1.00  0.00    -1.430 NA 
HETATM    2  H2  UNL     1     -11.615  15.754  63.632  1.00  0.00     0.000 HD 
HETATM    3  H1  UNL     1     -11.939  17.362  63.980  1.00  0.00     0.000 HD 
HETATM    4  CA  UNL     1     -10.904  16.311  65.513  1.00  0.00    -0.245 C  
HETATM    5  C   UNL     1     -10.392  17.607  66.167  1.00  0.00    -0.334 C  
HETATM    6  OXT UNL     1      -9.936  17.695  67.296  1.00  0.00    -0.300 OA 
HETATM    7  O   UNL     1     -10.528  18.671  65.332  1.00  0.00    -0.520 OA 
ENDROOT
BRANCH   4   8
HETATM    8  C   UNL     1      -9.896  15.156  65.680  1.00  0.00    -0.378 C  
BRANCH   8   9
HETATM    9  C   UNL     1     -10.471  13.908  66.316  1.00  0.00    -0.287 A  
HETATM   10  C   UNL     1     -10.825  13.909  67.676  1.00  0.00    -0.264 A  
HETATM   11  C   UNL     1     -11.274  12.737  68.274  1.00  0.00    -0.271 A  
HETATM   12  O   UNL     1     -11.615  12.689  69.597  1.00  0.00    -0.356 OA 
HETATM   13  C   UNL     1     -11.380  11.567  67.532  1.00  0.00    -0.299 A  
HETATM   14  H   UNL     1     -11.922  11.888  70.006  1.00  0.00     0.000 HD 
HETATM   15  O   UNL     1     -11.793  10.412  68.133  1.00  0.00    -0.761 OA 
HETATM   16  C   UNL     1     -11.061  11.551  66.182  1.00  0.00    -0.302 A  
HETATM   17  C   UNL     1     -10.616  12.724  65.571  1.00  0.00    -0.303 A  
HETATM   18  H   UNL     1     -11.865   9.613  67.625  1.00  0.00     0.000 HD 
ENDBRANCH   8   9
ENDBRANCH   4   8
TORSDOF 2
ENDMDL
MODEL       31
REMARK 921   NORMALIZED FREE ENERGY PREDICTED BY IDOCK:   -5.43 KCAL/MOL
REMARK 922        TOTAL FREE ENERGY PREDICTED BY IDOCK:   -6.25 KCAL/MOL
REMARK 923 INTER-LIGAND FREE ENERGY PREDICTED BY IDOCK:   -6.39 KCAL/MOL
REMARK 924 INTRA-LIGAND FREE ENERGY PREDICTED BY IDOCK:    0.13 KCAL/MOL
REMARK 927      BINDING AFFINITY PREDICTED BY RF-SCORE:    0.00 PKD
ROOT
HETATM    1  N   UNL     1      -9.033  11.431  65.448  1.00  0.00    -0.380 NA 
HETATM    2  H2  UNL     1      -8.808  11.251  66.426  1.00  0.00     0.000 HD 
HETATM    3  H1  UNL     1      -8.467  10.844  64.836  1.00  0.00     0.000 HD 
HETATM    4  CA  UNL     1     -10.508  11.307  65.217  1.00  0.00    -0.282 C  
HETATM    5  C   UNL     1     -10.806  11.585  63.733  1.00  0.00    -0.416 C  
HETATM    6  OXT UNL     1     -11.919  11.645  63.236  1.00  0.00    -0.378 OA 
HETATM    7  O   UNL     1      -9.660  11.741  63.018  1.00  0.00    -0.378 OA 
ENDROOT
BRANCH   4   8
HETATM    8  C   UNL     1     -11.365  12.194  66.142  1.00  0.00    -0.414 C  
BRANCH   8   9
HETATM    9  C   UNL     1     -11.056  13.674  66.055  1.00  0.00    -0.297 A  
HETATM   10  C   UNL     1     -11.507  14.424  64.954  1.00  0.00    -0.386 A  
HETATM   11  C   UNL     1     -11.150  15.762  64.838  1.00  0.00    -0.399 A  
HETATM   12  O   UNL     1     -11.553  16.526  63.778  1.00  0.00    -1.617 OA 
HETATM   13  C   UNL     1     -10.356  16.364  65.808  1.00  0.00    -0.369 A  
HETATM   14  H   UNL     1     -11.310  17.440  63.699  1.00  0.00     0.000 HD 
HETATM   15  O   UNL     1      -9.985  17.671  65.672  1.00  0.00    -0.558 OA 
HETATM   16  C   UNL     1      -9.923  15.649  66.914  1.00  0.00    -0.252 A  
HETATM   17  C   UNL     1     -10.281  14.306  67.044  1.00  0.00    -0.260 A  
HETATM   18  H   UNL     1      -9.442  18.081  66.334  1.00  0.00     0.000 HD 
ENDBRANCH   8   9
ENDBRANCH   4   8
TORSDOF 2
ENDMDL
MODEL       32
REMARK 921   NORMALIZED FREE ENERGY PREDICTED BY IDOCK:   -5.43 KCAL/MOL
REMARK 922        TOTAL FREE ENERGY PREDICTED BY IDOCK:   -6.25 KCAL/MOL
REMARK 923 INTER-LIGAND FREE ENERGY PREDICTED BY IDOCK:   -6.06 KCAL/MOL
REMARK 924 INTRA-LIGAND FREE ENERGY PREDICTED BY IDOCK:   -0.19 KCAL/MOL
REMARK 927      BINDING AFFINITY PREDICTED BY RF-SCORE:    0.00 PKD
ROOT
HETATM    1  N   UNL     1     -12.100  12.572  65.542  1.00  0.00    -0.534 NA 
HETATM    2  H2  UNL     1     -11.969  12.143  66.458  1.00  0.00     0.000 HD 
HETATM    3  H1  UNL     1     -12.939  12.207  65.091  1.00  0.00     0.000 HD 
HETATM    4  CA  UNL     1     -12.068  14.065  65.652  1.00  0.00    -0.417 C  
HETATM    5  C   UNL     1     -12.269  14.673  64.252  1.00  0.00    -0.408 C  
HETATM    6  OXT UNL     1     -12.212  15.862  63.985  1.00  0.00    -0.719 OA 
HETATM    7  O   UNL     1     -12.542  13.713  63.330  1.00  0.00    -0.816 OA 
ENDROOT
BRANCH   4   8
HETATM    8  C   UNL     1     -10.800  14.618  66.332  1.00  0.00    -0.315 C  
BRANCH   8   9
HETATM    9  C   UNL     1     -11.001  15.066  67.764  1.00  0.00    -0.298 A  
HETATM   10  C   UNL     1     -12.123  14.628  68.489  1.00  0.00    -0.229 A  
HETATM   11  C   UNL     1     -12.346  15.108  69.775  1.00  0.00    -0.242 A  
HETATM   12  O   UNL     1     -13.431  14.721  70.510  1.00  0.00    -0.590 OA 
HETATM   13  C   UNL     1     -11.462  16.015  70.348  1.00  0.00    -0.377 A  
HETATM   14  H   UNL     1     -13.583  15.049  71.388  1.00  0.00     0.000 HD 
HETATM   15  O   UNL     1     -11.703  16.506  71.599  1.00  0.00    -0.649 OA 
HETATM   16  C   UNL     1     -10.335  16.440  69.660  1.00  0.00    -0.244 A  
HETATM   17  C   UNL     1     -10.099  15.958  68.371  1.00  0.00    -0.223 A  
HETATM   18  H   UNL     1     -11.099  17.127  71.990  1.00  0.00     0.000 HD 
ENDBRANCH   8   9
ENDBRANCH   4   8
TORSDOF 2
ENDMDL
MODEL       33
REMARK 921   NORMALIZED FREE ENERGY PREDICTED BY IDOCK:   -5.40 KCAL/MOL
REMARK 922        TOTAL FREE ENERGY PREDICTED BY IDOCK:   -6.22 KCAL/MOL
REMARK 923 INTER-LIGAND FREE ENERGY PREDICTED BY IDOCK:   -5.99 KCAL/MOL
REMARK 924 INTRA-LIGAND FREE ENERGY PREDICTED BY IDOCK:   -0.23 KCAL/MOL
REMARK 927      BINDING AFFINITY PREDICTED BY RF-SCORE:    0.00 PKD
ROOT
HETATM    1  N   UNL     1     -13.980   8.689  70.959  1.00  0.00    -0.585 NA 
HETATM    2  H2  UNL     1     -14.879   9.140  70.789  1.00  0.00     0.000 HD 
HETATM    3  H1  UNL     1     -13.797   7.978  70.250  1.00  0.00     0.000 HD 
HETATM    4  CA  UNL     1     -12.894   9.712  71.090  1.00  0.00    -0.316 C  
HETATM    5  C   UNL     1     -11.558   8.991  71.344  1.00  0.00    -0.326 C  
HETATM    6  OXT UNL     1     -10.494   9.541  71.578  1.00  0.00    -0.302 OA 
HETATM    7  O   UNL     1     -11.698   7.642  71.256  1.00  0.00    -0.273 OA 
ENDROOT
BRANCH   4   8
HETATM    8  C   UNL     1     -13.171  10.786  72.160  1.00  0.00    -0.360 C  
BRANCH   8   9
HETATM    9  C   UNL     1     -13.044  12.212  71.666  1.00  0.00    -0.413 A  
HETATM   10  C   UNL     1     -13.732  13.248  72.322  1.00  0.00    -0.686 A  
HETATM   11  C   UNL     1     -13.679  14.541  71.815  1.00  0.00    -0.418 A  
HETATM   12  O   UNL     1     -14.343  15.576  72.412  1.00  0.00    -0.558 OA 
HETATM   13  C   UNL     1     -12.946  14.815  70.666  1.00  0.00    -0.324 A  
HETATM   14  H   UNL     1     -14.307  16.460  72.066  1.00  0.00     0.000 HD 
HETATM   15  O   UNL     1     -12.923  16.082  70.157  1.00  0.00    -0.639 OA 
HETATM   16  C   UNL     1     -12.239  13.813  70.019  1.00  0.00    -0.407 A  
HETATM   17  C   UNL     1     -12.281  12.512  70.524  1.00  0.00    -0.382 A  
HETATM   18  H   UNL     1     -12.422  16.268  69.371  1.00  0.00     0.000 HD 
ENDBRANCH   8   9
ENDBRANCH   4   8
TORSDOF 2
ENDMDL
MODEL       34
REMARK 921   NORMALIZED FREE ENERGY PREDICTED BY IDOCK:   -5.40 KCAL/MOL
REMARK 922        TOTAL FREE ENERGY PREDICTED BY IDOCK:   -6.22 KCAL/MOL
REMARK 923 INTER-LIGAND FREE ENERGY PREDICTED BY IDOCK:   -6.10 KCAL/MOL
REMARK 924 INTRA-LIGAND FREE ENERGY PREDICTED BY IDOCK:   -0.12 KCAL/MOL
REMARK 927      BINDING AFFINITY PREDICTED BY RF-SCORE:    0.00 PKD
ROOT
HETATM    1  N   UNL     1      -9.787  12.734  63.855  1.00  0.00    -0.684 NA 
HETATM    2  H2  UNL     1      -8.875  13.098  64.131  1.00  0.00     0.000 HD 
HETATM    3  H1  UNL     1      -9.750  11.721  63.742  1.00  0.00     0.000 HD 
HETATM    4  CA  UNL     1     -10.848  13.203  64.803  1.00  0.00    -0.352 C  
HETATM    5  C   UNL     1     -12.205  12.634  64.353  1.00  0.00    -0.443 C  
HETATM    6  OXT UNL     1     -13.283  12.894  64.864  1.00  0.00    -0.782 OA 
HETATM    7  O   UNL     1     -12.062  11.773  63.311  1.00  0.00    -0.452 OA 
ENDROOT
BRANCH   4   8
HETATM    8  C   UNL     1     -10.904  14.733  64.975  1.00  0.00    -0.440 C  
BRANCH   8   9
HETATM    9  C   UNL     1     -10.981  15.202  66.413  1.00  0.00    -0.329 A  
HETATM   10  C   UNL     1     -11.690  14.445  67.363  1.00  0.00    -0.424 A  
HETATM   11  C   UNL     1     -11.827  14.922  68.662  1.00  0.00    -0.300 A  
HETATM   12  O   UNL     1     -12.520  14.227  69.614  1.00  0.00    -0.467 OA 
HETATM   13  C   UNL     1     -11.263  16.139  69.026  1.00  0.00    -0.347 A  
HETATM   14  H   UNL     1     -12.614  14.552  70.501  1.00  0.00     0.000 HD 
HETATM   15  O   UNL     1     -11.428  16.615  70.295  1.00  0.00    -0.426 OA 
HETATM   16  C   UNL     1     -10.538  16.887  68.112  1.00  0.00    -0.360 A  
HETATM   17  C   UNL     1     -10.389  16.414  66.806  1.00  0.00    -0.293 A  
HETATM   18  H   UNL     1     -11.043  17.447  70.544  1.00  0.00     0.000 HD 
ENDBRANCH   8   9
ENDBRANCH   4   8
TORSDOF 2
ENDMDL
MODEL       35
REMARK 921   NORMALIZED FREE ENERGY PREDICTED BY IDOCK:   -5.39 KCAL/MOL
REMARK 922        TOTAL FREE ENERGY PREDICTED BY IDOCK:   -6.20 KCAL/MOL
REMARK 923 INTER-LIGAND FREE ENERGY PREDICTED BY IDOCK:   -6.06 KCAL/MOL
REMARK 924 INTRA-LIGAND FREE ENERGY PREDICTED BY IDOCK:   -0.14 KCAL/MOL
REMARK 927      BINDING AFFINITY PREDICTED BY RF-SCORE:    0.00 PKD
ROOT
HETATM    1  N   UNL     1     -13.138  13.895  65.108  1.00  0.00    -0.764 NA 
HETATM    2  H2  UNL     1     -13.195  14.663  65.776  1.00  0.00     0.000 HD 
HETATM    3  H1  UNL     1     -13.718  14.087  64.291  1.00  0.00     0.000 HD 
HETATM    4  CA  UNL     1     -11.710  13.585  64.782  1.00  0.00    -0.370 C  
HETATM    5  C   UNL     1     -11.668  12.424  63.773  1.00  0.00    -0.483 C  
HETATM    6  OXT UNL     1     -10.655  11.877  63.369  1.00  0.00    -0.407 OA 
HETATM    7  O   UNL     1     -12.916  12.081  63.360  1.00  0.00    -0.772 OA 
ENDROOT
BRANCH   4   8
HETATM    8  C   UNL     1     -10.833  13.295  66.017  1.00  0.00    -0.284 C  
BRANCH   8   9
HETATM    9  C   UNL     1     -11.190  14.105  67.245  1.00  0.00    -0.330 A  
HETATM   10  C   UNL     1     -10.833  15.462  67.322  1.00  0.00    -0.316 A  
HETATM   11  C   UNL     1     -11.089  16.180  68.485  1.00  0.00    -0.357 A  
HETATM   12  O   UNL     1     -10.745  17.497  68.609  1.00  0.00    -0.318 OA 
HETATM   13  C   UNL     1     -11.702  15.562  69.569  1.00  0.00    -0.365 A  
HETATM   14  H   UNL     1     -10.920  17.987  69.403  1.00  0.00     0.000 HD 
HETATM   15  O   UNL     1     -11.923  16.265  70.719  1.00  0.00    -0.511 OA 
HETATM   16  C   UNL     1     -12.087  14.232  69.504  1.00  0.00    -0.376 A  
HETATM   17  C   UNL     1     -11.839  13.505  68.338  1.00  0.00    -0.408 A  
HETATM   18  H   UNL     1     -12.342  15.842  71.460  1.00  0.00     0.000 HD 
ENDBRANCH   8   9
ENDBRANCH   4   8
TORSDOF 2
ENDMDL
MODEL       36
REMARK 921   NORMALIZED FREE ENERGY PREDICTED BY IDOCK:   -5.38 KCAL/MOL
REMARK 922        TOTAL FREE ENERGY PREDICTED BY IDOCK:   -6.19 KCAL/MOL
REMARK 923 INTER-LIGAND FREE ENERGY PREDICTED BY IDOCK:   -6.21 KCAL/MOL
REMARK 924 INTRA-LIGAND FREE ENERGY PREDICTED BY IDOCK:    0.02 KCAL/MOL
REMARK 927      BINDING AFFINITY PREDICTED BY RF-SCORE:    0.00 PKD
ROOT
HETATM    1  N   UNL     1     -10.332  11.040  69.380  1.00  0.00    -0.403 NA 
HETATM    2  H2  UNL     1      -9.606  10.498  68.912  1.00  0.00     0.000 HD 
HETATM    3  H1  UNL     1     -10.047  11.273  70.332  1.00  0.00     0.000 HD 
HETATM    4  CA  UNL     1     -10.719  12.226  68.552  1.00  0.00    -0.237 C  
HETATM    5  C   UNL     1     -11.813  13.015  69.292  1.00  0.00    -0.316 C  
HETATM    6  OXT UNL     1     -12.403  13.988  68.849  1.00  0.00    -0.299 OA 
HETATM    7  O   UNL     1     -12.041  12.505  70.531  1.00  0.00    -0.365 OA 
ENDROOT
BRANCH   4   8
HETATM    8  C   UNL     1     -11.148  11.874  67.114  1.00  0.00    -0.347 C  
BRANCH   8   9
HETATM    9  C   UNL     1     -11.219  13.058  66.172  1.00  0.00    -0.320 A  
HETATM   10  C   UNL     1     -10.224  14.051  66.212  1.00  0.00    -0.300 A  
HETATM   11  C   UNL     1     -10.339  15.176  65.404  1.00  0.00    -0.388 A  
HETATM   12  O   UNL     1      -9.403  16.172  65.420  1.00  0.00    -0.351 OA 
HETATM   13  C   UNL     1     -11.429  15.321  64.554  1.00  0.00    -0.315 A  
HETATM   14  H   UNL     1      -9.481  16.941  64.868  1.00  0.00     0.000 HD 
HETATM   15  O   UNL     1     -11.550  16.443  63.785  1.00  0.00    -1.605 OA 
HETATM   16  C   UNL     1     -12.407  14.342  64.480  1.00  0.00    -0.432 A  
HETATM   17  C   UNL     1     -12.298  13.205  65.283  1.00  0.00    -0.532 A  
HETATM   18  H   UNL     1     -12.295  16.542  63.204  1.00  0.00     0.000 HD 
ENDBRANCH   8   9
ENDBRANCH   4   8
TORSDOF 2
ENDMDL
MODEL       37
REMARK 921   NORMALIZED FREE ENERGY PREDICTED BY IDOCK:   -5.37 KCAL/MOL
REMARK 922        TOTAL FREE ENERGY PREDICTED BY IDOCK:   -6.18 KCAL/MOL
REMARK 923 INTER-LIGAND FREE ENERGY PREDICTED BY IDOCK:   -5.96 KCAL/MOL
REMARK 924 INTRA-LIGAND FREE ENERGY PREDICTED BY IDOCK:   -0.22 KCAL/MOL
REMARK 927      BINDING AFFINITY PREDICTED BY RF-SCORE:    0.00 PKD
ROOT
HETATM    1  N   UNL     1     -13.192  12.221  64.297  1.00  0.00    -0.761 NA 
HETATM    2  H2  UNL     1     -13.505  11.308  64.625  1.00  0.00     0.000 HD 
HETATM    3  H1  UNL     1     -13.990  12.797  64.026  1.00  0.00     0.000 HD 
HETATM    4  CA  UNL     1     -12.292  12.863  65.307  1.00  0.00    -0.490 C  
HETATM    5  C   UNL     1     -11.844  14.236  64.775  1.00  0.00    -0.429 C  
HETATM    6  OXT UNL     1     -11.041  14.976  65.320  1.00  0.00    -0.349 OA 
HETATM    7  O   UNL     1     -12.473  14.546  63.611  1.00  0.00    -0.782 OA 
ENDROOT
BRANCH   4   8
HETATM    8  C   UNL     1     -11.087  11.993  65.716  1.00  0.00    -0.371 C  
BRANCH   8   9
HETATM    9  C   UNL     1     -11.147  11.463  67.133  1.00  0.00    -0.366 A  
HETATM   10  C   UNL     1     -11.584  12.295  68.179  1.00  0.00    -0.396 A  
HETATM   11  C   UNL     1     -11.559  11.830  69.489  1.00  0.00    -0.332 A  
HETATM   12  O   UNL     1     -11.960  12.609  70.538  1.00  0.00    -0.495 OA 
HETATM   13  C   UNL     1     -11.109  10.544  69.767  1.00  0.00    -0.295 A  
HETATM   14  H   UNL     1     -11.943  12.291  71.432  1.00  0.00     0.000 HD 
HETATM   15  O   UNL     1     -11.059  10.104  71.060  1.00  0.00    -0.323 OA 
HETATM   16  C   UNL     1     -10.699   9.698  68.748  1.00  0.00    -0.234 A  
HETATM   17  C   UNL     1     -10.727  10.154  67.429  1.00  0.00    -0.336 A  
HETATM   18  H   UNL     1     -10.751   9.226  71.250  1.00  0.00     0.000 HD 
ENDBRANCH   8   9
ENDBRANCH   4   8
TORSDOF 2
ENDMDL
MODEL       38
REMARK 921   NORMALIZED FREE ENERGY PREDICTED BY IDOCK:   -5.35 KCAL/MOL
REMARK 922        TOTAL FREE ENERGY PREDICTED BY IDOCK:   -6.17 KCAL/MOL
REMARK 923 INTER-LIGAND FREE ENERGY PREDICTED BY IDOCK:   -6.08 KCAL/MOL
REMARK 924 INTRA-LIGAND FREE ENERGY PREDICTED BY IDOCK:   -0.09 KCAL/MOL
REMARK 927      BINDING AFFINITY PREDICTED BY RF-SCORE:    0.00 PKD
ROOT
HETATM    1  N   UNL     1     -10.224  14.138  64.264  1.00  0.00    -0.602 NA 
HETATM    2  H2  UNL     1      -9.259  14.072  64.588  1.00  0.00     0.000 HD 
HETATM    3  H1  UNL     1     -10.285  14.732  63.437  1.00  0.00     0.000 HD 
HETATM    4  CA  UNL     1     -10.810  12.772  64.077  1.00  0.00    -0.424 C  
HETATM    5  C   UNL     1     -12.262  12.915  63.590  1.00  0.00    -0.499 C  
HETATM    6  OXT UNL     1     -13.044  11.992  63.422  1.00  0.00    -0.747 OA 
HETATM    7  O   UNL     1     -12.577  14.213  63.343  1.00  0.00    -0.818 OA 
ENDROOT
BRANCH   4   8
HETATM    8  C   UNL     1     -10.717  11.873  65.327  1.00  0.00    -0.331 C  
BRANCH   8   9
HETATM    9  C   UNL     1     -10.571  12.626  66.632  1.00  0.00    -0.267 A  
HETATM   10  C   UNL     1     -11.712  13.107  67.299  1.00  0.00    -0.425 A  
HETATM   11  C   UNL     1     -11.567  13.869  68.453  1.00  0.00    -0.332 A  
HETATM   12  O   UNL     1     -12.647  14.369  69.126  1.00  0.00    -0.548 OA 
HETATM   13  C   UNL     1     -10.301  14.152  68.953  1.00  0.00    -0.199 A  
HETATM   14  H   UNL     1     -12.548  14.889  69.914  1.00  0.00     0.000 HD 
HETATM   15  O   UNL     1     -10.165  14.926  70.070  1.00  0.00    -0.459 OA 
HETATM   16  C   UNL     1      -9.165  13.665  68.325  1.00  0.00    -0.198 A  
HETATM   17  C   UNL     1      -9.300  12.893  67.169  1.00  0.00    -0.229 A  
HETATM   18  H   UNL     1      -9.300  15.119  70.411  1.00  0.00     0.000 HD 
ENDBRANCH   8   9
ENDBRANCH   4   8
TORSDOF 2
ENDMDL
MODEL       39
REMARK 921   NORMALIZED FREE ENERGY PREDICTED BY IDOCK:   -5.35 KCAL/MOL
REMARK 922        TOTAL FREE ENERGY PREDICTED BY IDOCK:   -6.16 KCAL/MOL
REMARK 923 INTER-LIGAND FREE ENERGY PREDICTED BY IDOCK:   -6.07 KCAL/MOL
REMARK 924 INTRA-LIGAND FREE ENERGY PREDICTED BY IDOCK:   -0.09 KCAL/MOL
REMARK 927      BINDING AFFINITY PREDICTED BY RF-SCORE:    0.00 PKD
ROOT
HETATM    1  N   UNL     1     -10.136  13.195  64.006  1.00  0.00    -0.768 NA 
HETATM    2  H2  UNL     1      -9.217  12.859  64.294  1.00  0.00     0.000 HD 
HETATM    3  H1  UNL     1     -10.483  12.654  63.214  1.00  0.00     0.000 HD 
HETATM    4  CA  UNL     1     -11.072  13.235  65.174  1.00  0.00    -0.297 C  
HETATM    5  C   UNL     1     -12.443  13.746  64.698  1.00  0.00    -0.315 C  
HETATM    6  OXT UNL     1     -13.401  13.973  65.420  1.00  0.00    -0.721 OA 
HETATM    7  O   UNL     1     -12.473  13.901  63.348  1.00  0.00    -0.833 OA 
ENDROOT
BRANCH   4   8
HETATM    8  C   UNL     1     -10.547  14.053  66.371  1.00  0.00    -0.280 C  
BRANCH   8   9
HETATM    9  C   UNL     1     -11.205  13.723  67.694  1.00  0.00    -0.316 A  
HETATM   10  C   UNL     1     -11.857  14.729  68.427  1.00  0.00    -0.319 A  
HETATM   11  C   UNL     1     -12.387  14.439  69.679  1.00  0.00    -0.255 A  
HETATM   12  O   UNL     1     -13.017  15.390  70.432  1.00  0.00    -0.620 OA 
HETATM   13  C   UNL     1     -12.279  13.158  70.206  1.00  0.00    -0.306 A  
HETATM   14  H   UNL     1     -13.379  15.192  71.288  1.00  0.00     0.000 HD 
HETATM   15  O   UNL     1     -12.775  12.888  71.450  1.00  0.00    -0.356 OA 
HETATM   16  C   UNL     1     -11.663  12.144  69.489  1.00  0.00    -0.402 A  
HETATM   17  C   UNL     1     -11.133  12.424  68.228  1.00  0.00    -0.283 A  
HETATM   18  H   UNL     1     -12.701  12.012  71.810  1.00  0.00     0.000 HD 
ENDBRANCH   8   9
ENDBRANCH   4   8
TORSDOF 2
ENDMDL
MODEL       40
REMARK 921   NORMALIZED FREE ENERGY PREDICTED BY IDOCK:   -5.35 KCAL/MOL
REMARK 922        TOTAL FREE ENERGY PREDICTED BY IDOCK:   -6.16 KCAL/MOL
REMARK 923 INTER-LIGAND FREE ENERGY PREDICTED BY IDOCK:   -5.96 KCAL/MOL
REMARK 924 INTRA-LIGAND FREE ENERGY PREDICTED BY IDOCK:   -0.20 KCAL/MOL
REMARK 927      BINDING AFFINITY PREDICTED BY RF-SCORE:    0.00 PKD
ROOT
HETATM    1  N   UNL     1     -13.028  14.185  64.984  1.00  0.00    -0.713 NA 
HETATM    2  H2  UNL     1     -13.101  15.057  65.507  1.00  0.00     0.000 HD 
HETATM    3  H1  UNL     1     -13.731  14.150  64.246  1.00  0.00     0.000 HD 
HETATM    4  CA  UNL     1     -11.625  13.980  64.499  1.00  0.00    -0.391 C  
HETATM    5  C   UNL     1     -11.558  12.656  63.716  1.00  0.00    -0.476 C  
HETATM    6  OXT UNL     1     -10.541  12.157  63.261  1.00  0.00    -0.428 OA 
HETATM    7  O   UNL     1     -12.790  12.104  63.568  1.00  0.00    -0.768 OA 
ENDROOT
BRANCH   4   8
HETATM    8  C   UNL     1     -10.562  14.033  65.614  1.00  0.00    -0.313 C  
BRANCH   8   9
HETATM    9  C   UNL     1     -10.538  15.329  66.397  1.00  0.00    -0.308 A  
HETATM   10  C   UNL     1     -10.308  16.547  65.735  1.00  0.00    -0.359 A  
HETATM   11  C   UNL     1     -10.204  17.723  66.469  1.00  0.00    -0.358 A  
HETATM   12  O   UNL     1      -9.967  18.928  65.869  1.00  0.00    -0.493 OA 
HETATM   13  C   UNL     1     -10.332  17.700  67.853  1.00  0.00    -0.371 A  
HETATM   14  H   UNL     1      -9.896  19.732  66.370  1.00  0.00     0.000 HD 
HETATM   15  O   UNL     1     -10.198  18.855  68.570  1.00  0.00    -0.381 OA 
HETATM   16  C   UNL     1     -10.585  16.513  68.523  1.00  0.00    -0.318 A  
HETATM   17  C   UNL     1     -10.697  15.327  67.794  1.00  0.00    -0.286 A  
HETATM   18  H   UNL     1     -10.285  18.838  69.516  1.00  0.00     0.000 HD 
ENDBRANCH   8   9
ENDBRANCH   4   8
TORSDOF 2
ENDMDL
MODEL       41
REMARK 921   NORMALIZED FREE ENERGY PREDICTED BY IDOCK:   -5.33 KCAL/MOL
REMARK 922        TOTAL FREE ENERGY PREDICTED BY IDOCK:   -6.14 KCAL/MOL
REMARK 923 INTER-LIGAND FREE ENERGY PREDICTED BY IDOCK:   -5.95 KCAL/MOL
REMARK 924 INTRA-LIGAND FREE ENERGY PREDICTED BY IDOCK:   -0.19 KCAL/MOL
REMARK 927      BINDING AFFINITY PREDICTED BY RF-SCORE:    0.00 PKD
ROOT
HETATM    1  N   UNL     1     -12.263  14.206  67.402  1.00  0.00    -0.570 NA 
HETATM    2  H2  UNL     1     -12.962  14.765  67.891  1.00  0.00     0.000 HD 
HETATM    3  H1  UNL     1     -11.892  14.717  66.601  1.00  0.00     0.000 HD 
HETATM    4  CA  UNL     1     -11.214  13.723  68.356  1.00  0.00    -0.272 C  
HETATM    5  C   UNL     1     -10.182  12.886  67.580  1.00  0.00    -0.213 C  
HETATM    6  OXT UNL     1      -9.247  12.280  68.078  1.00  0.00    -0.182 OA 
HETATM    7  O   UNL     1     -10.424  12.914  66.243  1.00  0.00    -0.262 OA 
ENDROOT
BRANCH   4   8
HETATM    8  C   UNL     1     -11.774  12.951  69.566  1.00  0.00    -0.387 C  
BRANCH   8   9
HETATM    9  C   UNL     1     -12.270  13.828  70.696  1.00  0.00    -0.434 A  
HETATM   10  C   UNL     1     -11.711  15.103  70.895  1.00  0.00    -0.378 A  
HETATM   11  C   UNL     1     -12.111  15.871  71.983  1.00  0.00    -0.506 A  
HETATM   12  O   UNL     1     -11.585  17.109  72.223  1.00  0.00    -0.271 OA 
HETATM   13  C   UNL     1     -13.064  15.385  72.871  1.00  0.00    -0.492 A  
HETATM   14  H   UNL     1     -11.858  17.634  72.966  1.00  0.00     0.000 HD 
HETATM   15  O   UNL     1     -13.430  16.132  73.955  1.00  0.00    -0.915 OA 
HETATM   16  C   UNL     1     -13.646  14.142  72.679  1.00  0.00    -0.618 A  
HETATM   17  C   UNL     1     -13.256  13.366  71.585  1.00  0.00    -0.449 A  
HETATM   18  H   UNL     1     -14.080  15.800  74.562  1.00  0.00     0.000 HD 
ENDBRANCH   8   9
ENDBRANCH   4   8
TORSDOF 2
ENDMDL
MODEL       42
REMARK 921   NORMALIZED FREE ENERGY PREDICTED BY IDOCK:   -5.32 KCAL/MOL
REMARK 922        TOTAL FREE ENERGY PREDICTED BY IDOCK:   -6.13 KCAL/MOL
REMARK 923 INTER-LIGAND FREE ENERGY PREDICTED BY IDOCK:   -5.94 KCAL/MOL
REMARK 924 INTRA-LIGAND FREE ENERGY PREDICTED BY IDOCK:   -0.19 KCAL/MOL
REMARK 927      BINDING AFFINITY PREDICTED BY RF-SCORE:    0.00 PKD
ROOT
HETATM    1  N   UNL     1      -9.453  13.041  68.576  1.00  0.00    -0.379 NA 
HETATM    2  H2  UNL     1      -9.314  13.356  69.535  1.00  0.00     0.000 HD 
HETATM    3  H1  UNL     1      -8.935  12.179  68.403  1.00  0.00     0.000 HD 
HETATM    4  CA  UNL     1     -10.915  12.946  68.260  1.00  0.00    -0.256 C  
HETATM    5  C   UNL     1     -11.081  12.468  66.807  1.00  0.00    -0.279 C  
HETATM    6  OXT UNL     1     -12.144  12.368  66.215  1.00  0.00    -0.612 OA 
HETATM    7  O   UNL     1      -9.884  12.144  66.251  1.00  0.00    -0.224 OA 
ENDROOT
BRANCH   4   8
HETATM    8  C   UNL     1     -11.698  14.248  68.521  1.00  0.00    -0.376 C  
BRANCH   8   9
HETATM    9  C   UNL     1     -11.962  14.540  69.983  1.00  0.00    -0.388 A  
HETATM   10  C   UNL     1     -12.648  13.603  70.776  1.00  0.00    -0.397 A  
HETATM   11  C   UNL     1     -12.960  13.911  72.095  1.00  0.00    -0.350 A  
HETATM   12  O   UNL     1     -13.638  13.036  72.897  1.00  0.00    -0.679 OA 
HETATM   13  C   UNL     1     -12.593  15.138  72.635  1.00  0.00    -0.375 A  
HETATM   14  H   UNL     1     -13.852  13.246  73.799  1.00  0.00     0.000 HD 
HETATM   15  O   UNL     1     -12.930  15.446  73.922  1.00  0.00    -0.607 OA 
HETATM   16  C   UNL     1     -11.893  16.065  71.878  1.00  0.00    -0.619 A  
HETATM   17  C   UNL     1     -11.568  15.763  70.554  1.00  0.00    -0.396 A  
HETATM   18  H   UNL     1     -12.679  16.285  74.290  1.00  0.00     0.000 HD 
ENDBRANCH   8   9
ENDBRANCH   4   8
TORSDOF 2
ENDMDL
MODEL       43
REMARK 921   NORMALIZED FREE ENERGY PREDICTED BY IDOCK:   -5.31 KCAL/MOL
REMARK 922        TOTAL FREE ENERGY PREDICTED BY IDOCK:   -6.12 KCAL/MOL
REMARK 923 INTER-LIGAND FREE ENERGY PREDICTED BY IDOCK:   -5.95 KCAL/MOL
REMARK 924 INTRA-LIGAND FREE ENERGY PREDICTED BY IDOCK:   -0.17 KCAL/MOL
REMARK 927      BINDING AFFINITY PREDICTED BY RF-SCORE:    0.00 PKD
ROOT
HETATM    1  N   UNL     1     -10.112  10.657  65.569  1.00  0.00    -0.269 NA 
HETATM    2  H2  UNL     1      -9.915  11.508  65.043  1.00  0.00     0.000 HD 
HETATM    3  H1  UNL     1      -9.367   9.973  65.435  1.00  0.00     0.000 HD 
HETATM    4  CA  UNL     1     -10.392  10.979  67.005  1.00  0.00    -0.228 C  
HETATM    5  C   UNL     1     -10.683   9.671  67.761  1.00  0.00    -0.257 C  
HETATM    6  OXT UNL     1     -11.029   9.594  68.929  1.00  0.00    -0.202 OA 
HETATM    7  O   UNL     1     -10.487   8.585  66.968  1.00  0.00    -0.300 OA 
ENDROOT
BRANCH   4   8
HETATM    8  C   UNL     1     -11.516  12.014  67.208  1.00  0.00    -0.403 C  
BRANCH   8   9
HETATM    9  C   UNL     1     -11.462  13.194  66.261  1.00  0.00    -0.372 A  
HETATM   10  C   UNL     1     -10.391  14.101  66.326  1.00  0.00    -0.294 A  
HETATM   11  C   UNL     1     -10.388  15.228  65.511  1.00  0.00    -0.383 A  
HETATM   12  O   UNL     1      -9.375  16.144  65.552  1.00  0.00    -0.405 OA 
HETATM   13  C   UNL     1     -11.438  15.457  64.629  1.00  0.00    -0.337 A  
HETATM   14  H   UNL     1      -9.373  16.913  64.995  1.00  0.00     0.000 HD 
HETATM   15  O   UNL     1     -11.444  16.582  63.854  1.00  0.00    -1.608 OA 
HETATM   16  C   UNL     1     -12.491  14.561  64.530  1.00  0.00    -0.346 A  
HETATM   17  C   UNL     1     -12.500  13.424  65.340  1.00  0.00    -0.543 A  
HETATM   18  H   UNL     1     -12.162  16.738  63.251  1.00  0.00     0.000 HD 
ENDBRANCH   8   9
ENDBRANCH   4   8
TORSDOF 2
ENDMDL
MODEL       44
REMARK 921   NORMALIZED FREE ENERGY PREDICTED BY IDOCK:   -5.27 KCAL/MOL
REMARK 922        TOTAL FREE ENERGY PREDICTED BY IDOCK:   -6.08 KCAL/MOL
REMARK 923 INTER-LIGAND FREE ENERGY PREDICTED BY IDOCK:   -5.88 KCAL/MOL
REMARK 924 INTRA-LIGAND FREE ENERGY PREDICTED BY IDOCK:   -0.20 KCAL/MOL
REMARK 927      BINDING AFFINITY PREDICTED BY RF-SCORE:    0.00 PKD
ROOT
HETATM    1  N   UNL     1     -11.385   9.920  69.031  1.00  0.00    -0.458 NA 
HETATM    2  H2  UNL     1     -11.763  10.861  69.143  1.00  0.00     0.000 HD 
HETATM    3  H1  UNL     1     -12.023   9.228  69.426  1.00  0.00     0.000 HD 
HETATM    4  CA  UNL     1     -11.020   9.667  67.601  1.00  0.00    -0.124 C  
HETATM    5  C   UNL     1     -10.454   8.241  67.476  1.00  0.00    -0.255 C  
HETATM    6  OXT UNL     1      -9.988   7.754  66.458  1.00  0.00    -0.230 OA 
HETATM    7  O   UNL     1     -10.554   7.563  68.649  1.00  0.00    -0.197 OA 
ENDROOT
BRANCH   4   8
HETATM    8  C   UNL     1     -10.057  10.713  67.005  1.00  0.00    -0.255 C  
BRANCH   8   9
HETATM    9  C   UNL     1     -10.682  11.624  65.970  1.00  0.00    -0.328 A  
HETATM   10  C   UNL     1     -11.702  12.517  66.343  1.00  0.00    -0.458 A  
HETATM   11  C   UNL     1     -12.330  13.292  65.375  1.00  0.00    -0.479 A  
HETATM   12  O   UNL     1     -13.336  14.163  65.689  1.00  0.00    -0.697 OA 
HETATM   13  C   UNL     1     -11.949  13.192  64.041  1.00  0.00    -0.460 A  
HETATM   14  H   UNL     1     -13.764  14.692  65.028  1.00  0.00     0.000 HD 
HETATM   15  O   UNL     1     -12.590  13.935  63.091  1.00  0.00    -1.057 OA 
HETATM   16  C   UNL     1     -10.928  12.338  63.657  1.00  0.00    -0.532 A  
HETATM   17  C   UNL     1     -10.287  11.560  64.623  1.00  0.00    -0.349 A  
HETATM   18  H   UNL     1     -12.330  13.866  62.180  1.00  0.00     0.000 HD 
ENDBRANCH   8   9
ENDBRANCH   4   8
TORSDOF 2
ENDMDL
MODEL       45
REMARK 921   NORMALIZED FREE ENERGY PREDICTED BY IDOCK:   -5.27 KCAL/MOL
REMARK 922        TOTAL FREE ENERGY PREDICTED BY IDOCK:   -6.08 KCAL/MOL
REMARK 923 INTER-LIGAND FREE ENERGY PREDICTED BY IDOCK:   -5.84 KCAL/MOL
REMARK 924 INTRA-LIGAND FREE ENERGY PREDICTED BY IDOCK:   -0.24 KCAL/MOL
REMARK 927      BINDING AFFINITY PREDICTED BY RF-SCORE:    0.00 PKD
ROOT
HETATM    1  N   UNL     1      -9.457  12.616  65.635  1.00  0.00    -0.456 NA 
HETATM    2  H2  UNL     1      -8.783  12.562  66.399  1.00  0.00     0.000 HD 
HETATM    3  H1  UNL     1      -9.242  11.923  64.918  1.00  0.00     0.000 HD 
HETATM    4  CA  UNL     1     -10.857  12.533  66.163  1.00  0.00    -0.272 C  
HETATM    5  C   UNL     1     -11.840  12.618  64.982  1.00  0.00    -0.395 C  
HETATM    6  OXT UNL     1     -13.056  12.663  65.079  1.00  0.00    -0.808 OA 
HETATM    7  O   UNL     1     -11.186  12.617  63.791  1.00  0.00    -0.403 OA 
ENDROOT
BRANCH   4   8
HETATM    8  C   UNL     1     -11.182  13.580  67.247  1.00  0.00    -0.319 C  
BRANCH   8   9
HETATM    9  C   UNL     1     -11.620  12.995  68.573  1.00  0.00    -0.363 A  
HETATM   10  C   UNL     1     -11.662  11.600  68.748  1.00  0.00    -0.392 A  
HETATM   11  C   UNL     1     -12.143  11.068  69.939  1.00  0.00    -0.361 A  
HETATM   12  O   UNL     1     -12.216   9.719  70.148  1.00  0.00    -0.470 OA 
HETATM   13  C   UNL     1     -12.578  11.909  70.958  1.00  0.00    -0.283 A  
HETATM   14  H   UNL     1     -12.545   9.356  70.961  1.00  0.00     0.000 HD 
HETATM   15  O   UNL     1     -13.078  11.378  72.113  1.00  0.00    -0.511 OA 
HETATM   16  C   UNL     1     -12.520  13.286  70.815  1.00  0.00    -0.403 A  
HETATM   17  C   UNL     1     -12.032  13.831  69.625  1.00  0.00    -0.399 A  
HETATM   18  H   UNL     1     -13.375  11.953  72.809  1.00  0.00     0.000 HD 
ENDBRANCH   8   9
ENDBRANCH   4   8
TORSDOF 2
ENDMDL
MODEL       46
REMARK 921   NORMALIZED FREE ENERGY PREDICTED BY IDOCK:   -5.25 KCAL/MOL
REMARK 922        TOTAL FREE ENERGY PREDICTED BY IDOCK:   -6.05 KCAL/MOL
REMARK 923 INTER-LIGAND FREE ENERGY PREDICTED BY IDOCK:   -5.81 KCAL/MOL
REMARK 924 INTRA-LIGAND FREE ENERGY PREDICTED BY IDOCK:   -0.24 KCAL/MOL
REMARK 927      BINDING AFFINITY PREDICTED BY RF-SCORE:    0.00 PKD
ROOT
HETATM    1  N   UNL     1      -9.786  10.338  66.301  1.00  0.00    -0.208 NA 
HETATM    2  H2  UNL     1      -9.241  10.748  65.543  1.00  0.00     0.000 HD 
HETATM    3  H1  UNL     1      -9.183   9.811  66.933  1.00  0.00     0.000 HD 
HETATM    4  CA  UNL     1     -10.613  11.386  66.981  1.00  0.00    -0.248 C  
HETATM    5  C   UNL     1     -11.419  10.727  68.115  1.00  0.00    -0.271 C  
HETATM    6  OXT UNL     1     -12.252  11.290  68.807  1.00  0.00    -0.532 OA 
HETATM    7  O   UNL     1     -11.075   9.422  68.274  1.00  0.00    -0.097 OA 
ENDROOT
BRANCH   4   8
HETATM    8  C   UNL     1     -11.525  12.182  66.026  1.00  0.00    -0.427 C  
BRANCH   8   9
HETATM    9  C   UNL     1     -11.258  13.672  66.000  1.00  0.00    -0.302 A  
HETATM   10  C   UNL     1     -11.628  14.434  64.878  1.00  0.00    -0.395 A  
HETATM   11  C   UNL     1     -11.306  15.785  64.824  1.00  0.00    -0.314 A  
HETATM   12  O   UNL     1     -11.633  16.561  63.747  1.00  0.00    -1.617 OA 
HETATM   13  C   UNL     1     -10.626  16.387  65.877  1.00  0.00    -0.285 A  
HETATM   14  H   UNL     1     -11.413  17.485  63.711  1.00  0.00     0.000 HD 
HETATM   15  O   UNL     1     -10.287  17.708  65.805  1.00  0.00    -0.558 OA 
HETATM   16  C   UNL     1     -10.276  15.659  67.004  1.00  0.00    -0.274 A  
HETATM   17  C   UNL     1     -10.600  14.303  67.070  1.00  0.00    -0.280 A  
HETATM   18  H   UNL     1      -9.821  18.118  66.524  1.00  0.00     0.000 HD 
ENDBRANCH   8   9
ENDBRANCH   4   8
TORSDOF 2
ENDMDL
MODEL       47
REMARK 921   NORMALIZED FREE ENERGY PREDICTED BY IDOCK:   -5.21 KCAL/MOL
REMARK 922        TOTAL FREE ENERGY PREDICTED BY IDOCK:   -6.00 KCAL/MOL
REMARK 923 INTER-LIGAND FREE ENERGY PREDICTED BY IDOCK:   -5.77 KCAL/MOL
REMARK 924 INTRA-LIGAND FREE ENERGY PREDICTED BY IDOCK:   -0.23 KCAL/MOL
REMARK 927      BINDING AFFINITY PREDICTED BY RF-SCORE:    0.00 PKD
ROOT
HETATM    1  N   UNL     1     -10.843   8.196  67.414  1.00  0.00    -0.509 NA 
HETATM    2  H2  UNL     1     -11.846   8.378  67.383  1.00  0.00     0.000 HD 
HETATM    3  H1  UNL     1     -10.642   7.244  67.106  1.00  0.00     0.000 HD 
HETATM    4  CA  UNL     1     -10.094   9.250  66.659  1.00  0.00    -0.271 C  
HETATM    5  C   UNL     1      -8.588   8.939  66.729  1.00  0.00    -0.115 C  
HETATM    6  OXT UNL     1      -7.700   9.649  66.287  1.00  0.00    -0.100 OA 
HETATM    7  O   UNL     1      -8.356   7.746  67.337  1.00  0.00    -0.121 OA 
ENDROOT
BRANCH   4   8
HETATM    8  C   UNL     1     -10.397  10.689  67.123  1.00  0.00    -0.275 C  
BRANCH   8   9
HETATM    9  C   UNL     1     -10.911  11.605  66.033  1.00  0.00    -0.338 A  
HETATM   10  C   UNL     1     -11.898  12.563  66.325  1.00  0.00    -0.453 A  
HETATM   11  C   UNL     1     -12.426  13.344  65.303  1.00  0.00    -0.483 A  
HETATM   12  O   UNL     1     -13.397  14.277  65.539  1.00  0.00    -0.656 OA 
HETATM   13  C   UNL     1     -11.979  13.186  63.997  1.00  0.00    -0.460 A  
HETATM   14  H   UNL     1     -13.757  14.812  64.842  1.00  0.00     0.000 HD 
HETATM   15  O   UNL     1     -12.524  13.937  62.994  1.00  0.00    -1.099 OA 
HETATM   16  C   UNL     1     -10.988  12.266  63.692  1.00  0.00    -0.532 A  
HETATM   17  C   UNL     1     -10.447  11.481  64.711  1.00  0.00    -0.354 A  
HETATM   18  H   UNL     1     -12.218  13.828  62.101  1.00  0.00     0.000 HD 
ENDBRANCH   8   9
ENDBRANCH   4   8
TORSDOF 2
ENDMDL
MODEL       48
REMARK 921   NORMALIZED FREE ENERGY PREDICTED BY IDOCK:   -5.17 KCAL/MOL
REMARK 922        TOTAL FREE ENERGY PREDICTED BY IDOCK:   -5.96 KCAL/MOL
REMARK 923 INTER-LIGAND FREE ENERGY PREDICTED BY IDOCK:   -5.74 KCAL/MOL
REMARK 924 INTRA-LIGAND FREE ENERGY PREDICTED BY IDOCK:   -0.23 KCAL/MOL
REMARK 927      BINDING AFFINITY PREDICTED BY RF-SCORE:    0.00 PKD
ROOT
HETATM    1  N   UNL     1     -12.224  14.475  68.946  1.00  0.00    -0.564 NA 
HETATM    2  H2  UNL     1     -12.681  13.588  69.156  1.00  0.00     0.000 HD 
HETATM    3  H1  UNL     1     -11.607  14.751  69.711  1.00  0.00     0.000 HD 
HETATM    4  CA  UNL     1     -11.549  14.416  67.610  1.00  0.00    -0.370 C  
HETATM    5  C   UNL     1     -10.874  15.771  67.332  1.00  0.00    -0.306 C  
HETATM    6  OXT UNL     1     -10.311  16.078  66.294  1.00  0.00    -0.296 OA 
HETATM    7  O   UNL     1     -10.962  16.598  68.407  1.00  0.00    -0.346 OA 
ENDROOT
BRANCH   4   8
HETATM    8  C   UNL     1     -12.481  14.000  66.455  1.00  0.00    -0.395 C  
BRANCH   8   9
HETATM    9  C   UNL     1     -11.862  13.034  65.467  1.00  0.00    -0.438 A  
HETATM   10  C   UNL     1     -10.575  12.519  65.697  1.00  0.00    -0.298 A  
HETATM   11  C   UNL     1      -9.979  11.698  64.746  1.00  0.00    -0.254 A  
HETATM   12  O   UNL     1      -8.723  11.187  64.921  1.00  0.00    -0.365 OA 
HETATM   13  C   UNL     1     -10.653  11.381  63.572  1.00  0.00    -0.402 A  
HETATM   14  H   UNL     1      -8.316  10.626  64.271  1.00  0.00     0.000 HD 
HETATM   15  O   UNL     1     -10.049  10.599  62.629  1.00  0.00    -0.720 OA 
HETATM   16  C   UNL     1     -11.933  11.857  63.338  1.00  0.00    -0.528 A  
HETATM   17  C   UNL     1     -12.543  12.676  64.290  1.00  0.00    -0.453 A  
HETATM   18  H   UNL     1     -10.510  10.382  61.827  1.00  0.00     0.000 HD 
ENDBRANCH   8   9
ENDBRANCH   4   8
TORSDOF 2
ENDMDL
MODEL       49
REMARK 921   NORMALIZED FREE ENERGY PREDICTED BY IDOCK:   -5.14 KCAL/MOL
REMARK 922        TOTAL FREE ENERGY PREDICTED BY IDOCK:   -5.93 KCAL/MOL
REMARK 923 INTER-LIGAND FREE ENERGY PREDICTED BY IDOCK:   -5.69 KCAL/MOL
REMARK 924 INTRA-LIGAND FREE ENERGY PREDICTED BY IDOCK:   -0.24 KCAL/MOL
REMARK 927      BINDING AFFINITY PREDICTED BY RF-SCORE:    0.00 PKD
ROOT
HETATM    1  N   UNL     1      -9.294   9.347  67.230  1.00  0.00    -0.129 NA 
HETATM    2  H2  UNL     1      -8.914   8.618  67.833  1.00  0.00     0.000 HD 
HETATM    3  H1  UNL     1      -9.464   8.984  66.292  1.00  0.00     0.000 HD 
HETATM    4  CA  UNL     1     -10.493   9.982  67.864  1.00  0.00    -0.231 C  
HETATM    5  C   UNL     1     -11.035  11.074  66.924  1.00  0.00    -0.249 C  
HETATM    6  OXT UNL     1     -11.955  11.834  67.182  1.00  0.00    -0.617 OA 
HETATM    7  O   UNL     1     -10.370  11.083  65.739  1.00  0.00    -0.250 OA 
ENDROOT
BRANCH   4   8
HETATM    8  C   UNL     1     -10.237  10.532  69.281  1.00  0.00    -0.245 C  
BRANCH   8   9
HETATM    9  C   UNL     1     -11.282  10.141  70.305  1.00  0.00    -0.387 A  
HETATM   10  C   UNL     1     -12.152  11.113  70.829  1.00  0.00    -0.458 A  
HETATM   11  C   UNL     1     -13.053  10.766  71.829  1.00  0.00    -0.468 A  
HETATM   12  O   UNL     1     -13.907  11.682  72.378  1.00  0.00    -0.366 OA 
HETATM   13  C   UNL     1     -13.102   9.462  72.307  1.00  0.00    -0.428 A  
HETATM   14  H   UNL     1     -14.523  11.445  73.061  1.00  0.00     0.000 HD 
HETATM   15  O   UNL     1     -13.970   9.135  73.311  1.00  0.00    -1.164 OA 
HETATM   16  C   UNL     1     -12.272   8.482  71.785  1.00  0.00    -0.388 A  
HETATM   17  C   UNL     1     -11.367   8.820  70.776  1.00  0.00    -0.313 A  
HETATM   18  H   UNL     1     -14.002   8.244  73.638  1.00  0.00     0.000 HD 
ENDBRANCH   8   9
ENDBRANCH   4   8
TORSDOF 2
ENDMDL
MODEL       50
REMARK 921   NORMALIZED FREE ENERGY PREDICTED BY IDOCK:   -5.14 KCAL/MOL
REMARK 922        TOTAL FREE ENERGY PREDICTED BY IDOCK:   -5.93 KCAL/MOL
REMARK 923 INTER-LIGAND FREE ENERGY PREDICTED BY IDOCK:   -5.70 KCAL/MOL
REMARK 924 INTRA-LIGAND FREE ENERGY PREDICTED BY IDOCK:   -0.23 KCAL/MOL
REMARK 927      BINDING AFFINITY PREDICTED BY RF-SCORE:    0.00 PKD
ROOT
HETATM    1  N   UNL     1     -11.740  11.608  67.300  1.00  0.00    -0.611 NA 
HETATM    2  H2  UNL     1     -11.656  10.688  66.869  1.00  0.00     0.000 HD 
HETATM    3  H1  UNL     1     -12.474  12.152  66.844  1.00  0.00     0.000 HD 
HETATM    4  CA  UNL     1     -11.909  11.482  68.783  1.00  0.00    -0.330 C  
HETATM    5  C   UNL     1     -12.032  12.889  69.393  1.00  0.00    -0.269 C  
HETATM    6  OXT UNL     1     -12.096  13.138  70.586  1.00  0.00    -0.348 OA 
HETATM    7  O   UNL     1     -12.081  13.845  68.428  1.00  0.00    -0.365 OA 
ENDROOT
BRANCH   4   8
HETATM    8  C   UNL     1     -10.801  10.661  69.472  1.00  0.00    -0.303 C  
BRANCH   8   9
HETATM    9  C   UNL     1     -11.302   9.476  70.271  1.00  0.00    -0.284 A  
HETATM   10  C   UNL     1     -12.192   9.674  71.341  1.00  0.00    -0.471 A  
HETATM   11  C   UNL     1     -12.584   8.593  72.123  1.00  0.00    -0.391 A  
HETATM   12  O   UNL     1     -13.435   8.741  73.182  1.00  0.00    -0.953 OA 
HETATM   13  C   UNL     1     -12.104   7.318  71.847  1.00  0.00    -0.314 A  
HETATM   14  H   UNL     1     -13.703   8.003  73.716  1.00  0.00     0.000 HD 
HETATM   15  O   UNL     1     -12.469   6.266  72.638  1.00  0.00    -0.517 OA 
HETATM   16  C   UNL     1     -11.246   7.097  70.780  1.00  0.00    -0.309 A  
HETATM   17  C   UNL     1     -10.852   8.175  69.985  1.00  0.00    -0.233 A  
HETATM   18  H   UNL     1     -12.140   5.395  72.449  1.00  0.00     0.000 HD 
ENDBRANCH   8   9
ENDBRANCH   4   8
TORSDOF 2
ENDMDL
MODEL       51
REMARK 921   NORMALIZED FREE ENERGY PREDICTED BY IDOCK:   -5.11 KCAL/MOL
REMARK 922        TOTAL FREE ENERGY PREDICTED BY IDOCK:   -5.89 KCAL/MOL
REMARK 923 INTER-LIGAND FREE ENERGY PREDICTED BY IDOCK:   -5.69 KCAL/MOL
REMARK 924 INTRA-LIGAND FREE ENERGY PREDICTED BY IDOCK:   -0.20 KCAL/MOL
REMARK 927      BINDING AFFINITY PREDICTED BY RF-SCORE:    0.00 PKD
ROOT
HETATM    1  N   UNL     1     -12.257  12.519  65.829  1.00  0.00    -0.626 NA 
HETATM    2  H2  UNL     1     -13.055  12.149  66.344  1.00  0.00     0.000 HD 
HETATM    3  H1  UNL     1     -12.566  12.989  64.977  1.00  0.00     0.000 HD 
HETATM    4  CA  UNL     1     -11.405  13.370  66.719  1.00  0.00    -0.325 C  
HETATM    5  C   UNL     1     -10.214  13.906  65.905  1.00  0.00    -0.315 C  
HETATM    6  OXT UNL     1      -9.289  14.563  66.358  1.00  0.00    -0.282 OA 
HETATM    7  O   UNL     1     -10.321  13.575  64.592  1.00  0.00    -0.408 OA 
ENDROOT
BRANCH   4   8
HETATM    8  C   UNL     1     -10.938  12.660  68.005  1.00  0.00    -0.266 C  
BRANCH   8   9
HETATM    9  C   UNL     1     -11.751  12.995  69.238  1.00  0.00    -0.375 A  
HETATM   10  C   UNL     1     -12.124  14.326  69.495  1.00  0.00    -0.376 A  
HETATM   11  C   UNL     1     -12.799  14.639  70.670  1.00  0.00    -0.342 A  
HETATM   12  O   UNL     1     -13.168  15.921  70.969  1.00  0.00    -0.593 OA 
HETATM   13  C   UNL     1     -13.111  13.642  71.587  1.00  0.00    -0.372 A  
HETATM   14  H   UNL     1     -13.629  16.135  71.771  1.00  0.00     0.000 HD 
HETATM   15  O   UNL     1     -13.747  13.961  72.752  1.00  0.00    -0.686 OA 
HETATM   16  C   UNL     1     -12.776  12.319  71.340  1.00  0.00    -0.351 A  
HETATM   17  C   UNL     1     -12.104  11.994  70.160  1.00  0.00    -0.377 A  
HETATM   18  H   UNL     1     -13.960  13.280  73.379  1.00  0.00     0.000 HD 
ENDBRANCH   8   9
ENDBRANCH   4   8
TORSDOF 2
ENDMDL
MODEL       52
REMARK 921   NORMALIZED FREE ENERGY PREDICTED BY IDOCK:   -5.10 KCAL/MOL
REMARK 922        TOTAL FREE ENERGY PREDICTED BY IDOCK:   -5.88 KCAL/MOL
REMARK 923 INTER-LIGAND FREE ENERGY PREDICTED BY IDOCK:   -5.69 KCAL/MOL
REMARK 924 INTRA-LIGAND FREE ENERGY PREDICTED BY IDOCK:   -0.20 KCAL/MOL
REMARK 927      BINDING AFFINITY PREDICTED BY RF-SCORE:    0.00 PKD
ROOT
HETATM    1  N   UNL     1     -11.430   6.530  67.660  1.00  0.00    -0.688 NA 
HETATM    2  H2  UNL     1     -12.233   7.156  67.702  1.00  0.00     0.000 HD 
HETATM    3  H1  UNL     1     -10.945   6.628  66.768  1.00  0.00     0.000 HD 
HETATM    4  CA  UNL     1     -10.549   6.725  68.856  1.00  0.00    -0.228 C  
HETATM    5  C   UNL     1      -9.351   5.764  68.755  1.00  0.00    -0.119 C  
HETATM    6  OXT UNL     1      -8.493   5.614  69.610  1.00  0.00    -0.108 OA 
HETATM    7  O   UNL     1      -9.347   5.100  67.570  1.00  0.00    -0.114 OA 
ENDROOT
BRANCH   4   8
HETATM    8  C   UNL     1     -11.281   6.578  70.205  1.00  0.00    -0.437 C  
BRANCH   8   9
HETATM    9  C   UNL     1     -11.777   7.881  70.795  1.00  0.00    -0.230 A  
HETATM   10  C   UNL     1     -12.785   7.871  71.775  1.00  0.00    -0.353 A  
HETATM   11  C   UNL     1     -13.295   9.073  72.254  1.00  0.00    -0.467 A  
HETATM   12  O   UNL     1     -14.285   9.111  73.195  1.00  0.00    -1.118 OA 
HETATM   13  C   UNL     1     -12.809  10.283  71.771  1.00  0.00    -0.460 A  
HETATM   14  H   UNL     1     -14.633   9.932  73.522  1.00  0.00     0.000 HD 
HETATM   15  O   UNL     1     -13.335  11.459  72.223  1.00  0.00    -0.629 OA 
HETATM   16  C   UNL     1     -11.797  10.314  70.824  1.00  0.00    -0.459 A  
HETATM   17  C   UNL     1     -11.273   9.113  70.342  1.00  0.00    -0.279 A  
HETATM   18  H   UNL     1     -13.003  12.286  71.893  1.00  0.00     0.000 HD 
ENDBRANCH   8   9
ENDBRANCH   4   8
TORSDOF 2
ENDMDL
MODEL       53
REMARK 921   NORMALIZED FREE ENERGY PREDICTED BY IDOCK:   -5.09 KCAL/MOL
REMARK 922        TOTAL FREE ENERGY PREDICTED BY IDOCK:   -5.88 KCAL/MOL
REMARK 923 INTER-LIGAND FREE ENERGY PREDICTED BY IDOCK:   -5.86 KCAL/MOL
REMARK 924 INTRA-LIGAND FREE ENERGY PREDICTED BY IDOCK:   -0.02 KCAL/MOL
REMARK 927      BINDING AFFINITY PREDICTED BY RF-SCORE:    0.00 PKD
ROOT
HETATM    1  N   UNL     1     -13.832   8.774  72.955  1.00  0.00    -1.065 NA 
HETATM    2  H2  UNL     1     -14.176   9.699  73.213  1.00  0.00     0.000 HD 
HETATM    3  H1  UNL     1     -14.588   8.090  72.984  1.00  0.00     0.000 HD 
HETATM    4  CA  UNL     1     -13.109   8.829  71.645  1.00  0.00    -0.352 C  
HETATM    5  C   UNL     1     -12.607   7.417  71.293  1.00  0.00    -0.340 C  
HETATM    6  OXT UNL     1     -11.910   7.136  70.331  1.00  0.00    -0.270 OA 
HETATM    7  O   UNL     1     -13.055   6.495  72.185  1.00  0.00    -0.155 OA 
ENDROOT
BRANCH   4   8
HETATM    8  C   UNL     1     -11.967   9.863  71.601  1.00  0.00    -0.427 C  
BRANCH   8   9
HETATM    9  C   UNL     1     -12.415  11.282  71.320  1.00  0.00    -0.441 A  
HETATM   10  C   UNL     1     -11.913  11.971  70.202  1.00  0.00    -0.401 A  
HETATM   11  C   UNL     1     -12.264  13.300  69.995  1.00  0.00    -0.275 A  
HETATM   12  O   UNL     1     -11.789  14.013  68.930  1.00  0.00    -0.315 OA 
HETATM   13  C   UNL     1     -13.111  13.949  70.886  1.00  0.00    -0.192 A  
HETATM   14  H   UNL     1     -12.028  14.921  68.788  1.00  0.00     0.000 HD 
HETATM   15  O   UNL     1     -13.427  15.263  70.693  1.00  0.00    -0.690 OA 
HETATM   16  C   UNL     1     -13.638  13.280  71.980  1.00  0.00    -0.573 A  
HETATM   17  C   UNL     1     -13.297  11.943  72.193  1.00  0.00    -0.361 A  
HETATM   18  H   UNL     1     -14.006  15.707  71.302  1.00  0.00     0.000 HD 
ENDBRANCH   8   9
ENDBRANCH   4   8
TORSDOF 2
ENDMDL
MODEL       54
REMARK 921   NORMALIZED FREE ENERGY PREDICTED BY IDOCK:   -5.08 KCAL/MOL
REMARK 922        TOTAL FREE ENERGY PREDICTED BY IDOCK:   -5.86 KCAL/MOL
REMARK 923 INTER-LIGAND FREE ENERGY PREDICTED BY IDOCK:   -5.71 KCAL/MOL
REMARK 924 INTRA-LIGAND FREE ENERGY PREDICTED BY IDOCK:   -0.15 KCAL/MOL
REMARK 927      BINDING AFFINITY PREDICTED BY RF-SCORE:    0.00 PKD
ROOT
HETATM    1  N   UNL     1     -11.676  13.564  70.324  1.00  0.00    -0.517 NA 
HETATM    2  H2  UNL     1     -11.519  14.568  70.413  1.00  0.00     0.000 HD 
HETATM    3  H1  UNL     1     -12.492  13.280  70.868  1.00  0.00     0.000 HD 
HETATM    4  CA  UNL     1     -11.738  13.168  68.881  1.00  0.00    -0.326 C  
HETATM    5  C   UNL     1     -11.976  11.650  68.790  1.00  0.00    -0.264 C  
HETATM    6  OXT UNL     1     -11.993  10.999  67.758  1.00  0.00    -0.609 OA 
HETATM    7  O   UNL     1     -12.189  11.108  70.018  1.00  0.00    -0.311 OA 
ENDROOT
BRANCH   4   8
HETATM    8  C   UNL     1     -10.506  13.598  68.059  1.00  0.00    -0.251 C  
BRANCH   8   9
HETATM    9  C   UNL     1     -10.628  14.961  67.413  1.00  0.00    -0.263 A  
HETATM   10  C   UNL     1     -10.848  15.067  66.028  1.00  0.00    -0.334 A  
HETATM   11  C   UNL     1     -10.876  16.320  65.427  1.00  0.00    -0.273 A  
HETATM   12  O   UNL     1     -11.072  16.470  64.082  1.00  0.00    -1.280 OA 
HETATM   13  C   UNL     1     -10.692  17.468  66.189  1.00  0.00    -0.098 A  
HETATM   14  H   UNL     1     -11.092  17.326  63.671  1.00  0.00     0.000 HD 
HETATM   15  O   UNL     1     -10.691  18.694  65.587  1.00  0.00    -0.555 OA 
HETATM   16  C   UNL     1     -10.500  17.387  67.560  1.00  0.00    -0.354 A  
HETATM   17  C   UNL     1     -10.477  16.134  68.174  1.00  0.00    -0.279 A  
HETATM   18  H   UNL     1     -10.565  19.479  66.108  1.00  0.00     0.000 HD 
ENDBRANCH   8   9
ENDBRANCH   4   8
TORSDOF 2
ENDMDL
MODEL       55
REMARK 921   NORMALIZED FREE ENERGY PREDICTED BY IDOCK:   -5.08 KCAL/MOL
REMARK 922        TOTAL FREE ENERGY PREDICTED BY IDOCK:   -5.86 KCAL/MOL
REMARK 923 INTER-LIGAND FREE ENERGY PREDICTED BY IDOCK:   -5.64 KCAL/MOL
REMARK 924 INTRA-LIGAND FREE ENERGY PREDICTED BY IDOCK:   -0.22 KCAL/MOL
REMARK 927      BINDING AFFINITY PREDICTED BY RF-SCORE:    0.00 PKD
ROOT
HETATM    1  N   UNL     1      -7.761  17.703  65.711  1.00  0.00    -0.535 NA 
HETATM    2  H2  UNL     1      -7.569  16.971  65.028  1.00  0.00     0.000 HD 
HETATM    3  H1  UNL     1      -7.679  18.625  65.281  1.00  0.00     0.000 HD 
HETATM    4  CA  UNL     1      -9.075  17.460  66.387  1.00  0.00    -0.248 C  
HETATM    5  C   UNL     1      -9.327  18.585  67.408  1.00  0.00    -0.279 C  
HETATM    6  OXT UNL     1     -10.269  18.637  68.182  1.00  0.00    -0.357 OA 
HETATM    7  O   UNL     1      -8.368  19.545  67.333  1.00  0.00    -0.280 OA 
ENDROOT
BRANCH   4   8
HETATM    8  C   UNL     1      -9.199  16.068  67.036  1.00  0.00    -0.229 C  
BRANCH   8   9
HETATM    9  C   UNL     1     -10.304  15.205  66.465  1.00  0.00    -0.286 A  
HETATM   10  C   UNL     1     -10.721  14.050  67.150  1.00  0.00    -0.283 A  
HETATM   11  C   UNL     1     -11.678  13.217  66.581  1.00  0.00    -0.375 A  
HETATM   12  O   UNL     1     -12.102  12.076  67.204  1.00  0.00    -0.587 OA 
HETATM   13  C   UNL     1     -12.226  13.523  65.341  1.00  0.00    -0.447 A  
HETATM   14  H   UNL     1     -12.756  11.507  66.815  1.00  0.00     0.000 HD 
HETATM   15  O   UNL     1     -13.143  12.684  64.774  1.00  0.00    -0.852 OA 
HETATM   16  C   UNL     1     -11.848  14.671  64.661  1.00  0.00    -0.459 A  
HETATM   17  C   UNL     1     -10.893  15.518  65.227  1.00  0.00    -0.425 A  
HETATM   18  H   UNL     1     -13.517  12.894  63.926  1.00  0.00     0.000 HD 
ENDBRANCH   8   9
ENDBRANCH   4   8
TORSDOF 2
ENDMDL
MODEL       56
REMARK 921   NORMALIZED FREE ENERGY PREDICTED BY IDOCK:   -5.05 KCAL/MOL
REMARK 922        TOTAL FREE ENERGY PREDICTED BY IDOCK:   -5.82 KCAL/MOL
REMARK 923 INTER-LIGAND FREE ENERGY PREDICTED BY IDOCK:   -5.59 KCAL/MOL
REMARK 924 INTRA-LIGAND FREE ENERGY PREDICTED BY IDOCK:   -0.23 KCAL/MOL
REMARK 927      BINDING AFFINITY PREDICTED BY RF-SCORE:    0.00 PKD
ROOT
HETATM    1  N   UNL     1     -11.464  11.513  66.602  1.00  0.00    -0.444 NA 
HETATM    2  H2  UNL     1     -11.389  10.497  66.642  1.00  0.00     0.000 HD 
HETATM    3  H1  UNL     1     -12.100  11.797  65.857  1.00  0.00     0.000 HD 
HETATM    4  CA  UNL     1     -11.816  12.067  67.949  1.00  0.00    -0.250 C  
HETATM    5  C   UNL     1     -11.920  13.599  67.846  1.00  0.00    -0.347 C  
HETATM    6  OXT UNL     1     -12.110  14.357  68.784  1.00  0.00    -0.308 OA 
HETATM    7  O   UNL     1     -11.791  14.020  66.561  1.00  0.00    -0.376 OA 
ENDROOT
BRANCH   4   8
HETATM    8  C   UNL     1     -10.855  11.638  69.075  1.00  0.00    -0.247 C  
BRANCH   8   9
HETATM    9  C   UNL     1     -11.515  10.888  70.213  1.00  0.00    -0.391 A  
HETATM   10  C   UNL     1     -11.118   9.574  70.514  1.00  0.00    -0.342 A  
HETATM   11  C   UNL     1     -11.784   8.862  71.505  1.00  0.00    -0.324 A  
HETATM   12  O   UNL     1     -11.441   7.577  71.822  1.00  0.00    -0.249 OA 
HETATM   13  C   UNL     1     -12.836   9.445  72.202  1.00  0.00    -0.401 A  
HETATM   14  H   UNL     1     -11.896   7.090  72.499  1.00  0.00     0.000 HD 
HETATM   15  O   UNL     1     -13.505   8.728  73.153  1.00  0.00    -0.953 OA 
HETATM   16  C   UNL     1     -13.226  10.749  71.938  1.00  0.00    -0.524 A  
HETATM   17  C   UNL     1     -12.560  11.475  70.949  1.00  0.00    -0.438 A  
HETATM   18  H   UNL     1     -14.225   9.127  73.628  1.00  0.00     0.000 HD 
ENDBRANCH   8   9
ENDBRANCH   4   8
TORSDOF 2
ENDMDL
MODEL       57
REMARK 921   NORMALIZED FREE ENERGY PREDICTED BY IDOCK:   -5.02 KCAL/MOL
REMARK 922        TOTAL FREE ENERGY PREDICTED BY IDOCK:   -5.80 KCAL/MOL
REMARK 923 INTER-LIGAND FREE ENERGY PREDICTED BY IDOCK:   -5.55 KCAL/MOL
REMARK 924 INTRA-LIGAND FREE ENERGY PREDICTED BY IDOCK:   -0.25 KCAL/MOL
REMARK 927      BINDING AFFINITY PREDICTED BY RF-SCORE:    0.00 PKD
ROOT
HETATM    1  N   UNL     1      -9.323  15.196  67.845  1.00  0.00    -0.185 NA 
HETATM    2  H2  UNL     1      -8.832  15.128  68.736  1.00  0.00     0.000 HD 
HETATM    3  H1  UNL     1      -8.708  14.928  67.076  1.00  0.00     0.000 HD 
HETATM    4  CA  UNL     1     -10.609  14.430  67.893  1.00  0.00    -0.240 C  
HETATM    5  C   UNL     1     -11.317  14.558  66.532  1.00  0.00    -0.352 C  
HETATM    6  OXT UNL     1     -12.425  14.120  66.270  1.00  0.00    -0.466 OA 
HETATM    7  O   UNL     1     -10.541  15.213  65.629  1.00  0.00    -0.310 OA 
ENDROOT
BRANCH   4   8
HETATM    8  C   UNL     1     -11.538  14.835  69.055  1.00  0.00    -0.324 C  
BRANCH   8   9
HETATM    9  C   UNL     1     -12.065  13.674  69.871  1.00  0.00    -0.406 A  
HETATM   10  C   UNL     1     -12.870  13.913  70.998  1.00  0.00    -0.394 A  
HETATM   11  C   UNL     1     -13.282  12.849  71.792  1.00  0.00    -0.384 A  
HETATM   12  O   UNL     1     -14.054  13.037  72.905  1.00  0.00    -0.647 OA 
HETATM   13  C   UNL     1     -12.906  11.549  71.473  1.00  0.00    -0.380 A  
HETATM   14  H   UNL     1     -14.336  12.309  73.447  1.00  0.00     0.000 HD 
HETATM   15  O   UNL     1     -13.290  10.512  72.274  1.00  0.00    -0.601 OA 
HETATM   16  C   UNL     1     -12.134  11.289  70.351  1.00  0.00    -0.474 A  
HETATM   17  C   UNL     1     -11.721  12.350  69.544  1.00  0.00    -0.388 A  
HETATM   18  H   UNL     1     -13.032   9.624  72.055  1.00  0.00     0.000 HD 
ENDBRANCH   8   9
ENDBRANCH   4   8
TORSDOF 2
ENDMDL
MODEL       58
REMARK 921   NORMALIZED FREE ENERGY PREDICTED BY IDOCK:   -5.02 KCAL/MOL
REMARK 922        TOTAL FREE ENERGY PREDICTED BY IDOCK:   -5.79 KCAL/MOL
REMARK 923 INTER-LIGAND FREE ENERGY PREDICTED BY IDOCK:   -5.56 KCAL/MOL
REMARK 924 INTRA-LIGAND FREE ENERGY PREDICTED BY IDOCK:   -0.23 KCAL/MOL
REMARK 927      BINDING AFFINITY PREDICTED BY RF-SCORE:    0.00 PKD
ROOT
HETATM    1  N   UNL     1      -6.995  10.515  64.427  1.00  0.00    -0.346 NA 
HETATM    2  H2  UNL     1      -6.969  11.424  63.966  1.00  0.00     0.000 HD 
HETATM    3  H1  UNL     1      -6.221  10.425  65.086  1.00  0.00     0.000 HD 
HETATM    4  CA  UNL     1      -8.342  10.271  65.034  1.00  0.00    -0.168 C  
HETATM    5  C   UNL     1      -8.339   8.892  65.718  1.00  0.00    -0.134 C  
HETATM    6  OXT UNL     1      -9.308   8.359  66.234  1.00  0.00    -0.196 OA 
HETATM    7  O   UNL     1      -7.101   8.332  65.698  1.00  0.00    -0.069 OA 
ENDROOT
BRANCH   4   8
HETATM    8  C   UNL     1      -9.512  10.407  64.038  1.00  0.00    -0.351 C  
BRANCH   8   9
HETATM    9  C   UNL     1     -10.572  11.407  64.449  1.00  0.00    -0.403 A  
HETATM   10  C   UNL     1     -11.089  12.312  63.505  1.00  0.00    -0.533 A  
HETATM   11  C   UNL     1     -12.001  13.282  63.906  1.00  0.00    -0.483 A  
HETATM   12  O   UNL     1     -12.517  14.192  63.027  1.00  0.00    -1.077 OA 
HETATM   13  C   UNL     1     -12.408  13.356  65.234  1.00  0.00    -0.469 A  
HETATM   14  H   UNL     1     -13.141  14.855  63.301  1.00  0.00     0.000 HD 
HETATM   15  O   UNL     1     -13.281  14.330  65.626  1.00  0.00    -0.630 OA 
HETATM   16  C   UNL     1     -11.931  12.456  66.174  1.00  0.00    -0.397 A  
HETATM   17  C   UNL     1     -11.020  11.474  65.780  1.00  0.00    -0.305 A  
HETATM   18  H   UNL     1     -13.559  14.381  66.533  1.00  0.00     0.000 HD 
ENDBRANCH   8   9
ENDBRANCH   4   8
TORSDOF 2
ENDMDL
MODEL       59
REMARK 921   NORMALIZED FREE ENERGY PREDICTED BY IDOCK:   -5.02 KCAL/MOL
REMARK 922        TOTAL FREE ENERGY PREDICTED BY IDOCK:   -5.79 KCAL/MOL
REMARK 923 INTER-LIGAND FREE ENERGY PREDICTED BY IDOCK:   -5.59 KCAL/MOL
REMARK 924 INTRA-LIGAND FREE ENERGY PREDICTED BY IDOCK:   -0.20 KCAL/MOL
REMARK 927      BINDING AFFINITY PREDICTED BY RF-SCORE:    0.00 PKD
ROOT
HETATM    1  N   UNL     1     -10.255   9.048  71.455  1.00  0.00    -0.326 NA 
HETATM    2  H2  UNL     1      -9.551   9.782  71.375  1.00  0.00     0.000 HD 
HETATM    3  H1  UNL     1     -10.023   8.411  72.218  1.00  0.00     0.000 HD 
HETATM    4  CA  UNL     1     -11.626   9.643  71.554  1.00  0.00    -0.381 C  
HETATM    5  C   UNL     1     -12.656   8.506  71.673  1.00  0.00    -0.333 C  
HETATM    6  OXT UNL     1     -13.868   8.650  71.687  1.00  0.00    -0.382 OA 
HETATM    7  O   UNL     1     -12.048   7.296  71.782  1.00  0.00    -0.292 OA 
ENDROOT
BRANCH   4   8
HETATM    8  C   UNL     1     -11.976  10.606  70.402  1.00  0.00    -0.436 C  
BRANCH   8   9
HETATM    9  C   UNL     1     -12.485  11.960  70.848  1.00  0.00    -0.397 A  
HETATM   10  C   UNL     1     -12.086  13.123  70.166  1.00  0.00    -0.392 A  
HETATM   11  C   UNL     1     -12.490  14.369  70.631  1.00  0.00    -0.350 A  
HETATM   12  O   UNL     1     -12.113  15.526  70.008  1.00  0.00    -0.339 OA 
HETATM   13  C   UNL     1     -13.291  14.470  71.762  1.00  0.00    -0.363 A  
HETATM   14  H   UNL     1     -12.389  16.378  70.325  1.00  0.00     0.000 HD 
HETATM   15  O   UNL     1     -13.659  15.700  72.230  1.00  0.00    -0.470 OA 
HETATM   16  C   UNL     1     -13.717  13.335  72.434  1.00  0.00    -0.678 A  
HETATM   17  C   UNL     1     -13.322  12.078  71.972  1.00  0.00    -0.447 A  
HETATM   18  H   UNL     1     -14.205  15.768  73.004  1.00  0.00     0.000 HD 
ENDBRANCH   8   9
ENDBRANCH   4   8
TORSDOF 2
ENDMDL
MODEL       60
REMARK 921   NORMALIZED FREE ENERGY PREDICTED BY IDOCK:   -5.01 KCAL/MOL
REMARK 922        TOTAL FREE ENERGY PREDICTED BY IDOCK:   -5.78 KCAL/MOL
REMARK 923 INTER-LIGAND FREE ENERGY PREDICTED BY IDOCK:   -5.70 KCAL/MOL
REMARK 924 INTRA-LIGAND FREE ENERGY PREDICTED BY IDOCK:   -0.08 KCAL/MOL
REMARK 927      BINDING AFFINITY PREDICTED BY RF-SCORE:    0.00 PKD
ROOT
HETATM    1  N   UNL     1     -14.397   8.698  72.953  1.00  0.00    -1.063 NA 
HETATM    2  H2  UNL     1     -14.608   9.665  73.199  1.00  0.00     0.000 HD 
HETATM    3  H1  UNL     1     -15.255   8.151  72.880  1.00  0.00     0.000 HD 
HETATM    4  CA  UNL     1     -13.532   8.642  71.732  1.00  0.00    -0.382 C  
HETATM    5  C   UNL     1     -13.237   7.169  71.396  1.00  0.00    -0.328 C  
HETATM    6  OXT UNL     1     -12.493   6.783  70.509  1.00  0.00    -0.273 OA 
HETATM    7  O   UNL     1     -13.931   6.328  72.207  1.00  0.00     0.069 OA 
ENDROOT
BRANCH   4   8
HETATM    8  C   UNL     1     -12.235   9.468  71.843  1.00  0.00    -0.432 C  
BRANCH   8   9
HETATM    9  C   UNL     1     -12.379  10.920  71.438  1.00  0.00    -0.403 A  
HETATM   10  C   UNL     1     -13.204  11.781  72.183  1.00  0.00    -0.342 A  
HETATM   11  C   UNL     1     -13.398  13.091  71.759  1.00  0.00    -0.378 A  
HETATM   12  O   UNL     1     -14.202  13.958  72.444  1.00  0.00    -0.620 OA 
HETATM   13  C   UNL     1     -12.775  13.554  70.606  1.00  0.00    -0.205 A  
HETATM   14  H   UNL     1     -14.334  14.853  72.155  1.00  0.00     0.000 HD 
HETATM   15  O   UNL     1     -12.994  14.833  70.179  1.00  0.00    -0.576 OA 
HETATM   16  C   UNL     1     -11.937  12.729  69.871  1.00  0.00    -0.368 A  
HETATM   17  C   UNL     1     -11.731  11.414  70.292  1.00  0.00    -0.397 A  
HETATM   18  H   UNL     1     -12.569  15.149  69.390  1.00  0.00     0.000 HD 
ENDBRANCH   8   9
ENDBRANCH   4   8
TORSDOF 2
ENDMDL
MODEL       61
REMARK 921   NORMALIZED FREE ENERGY PREDICTED BY IDOCK:   -5.01 KCAL/MOL
REMARK 922        TOTAL FREE ENERGY PREDICTED BY IDOCK:   -5.78 KCAL/MOL
REMARK 923 INTER-LIGAND FREE ENERGY PREDICTED BY IDOCK:   -5.56 KCAL/MOL
REMARK 924 INTRA-LIGAND FREE ENERGY PREDICTED BY IDOCK:   -0.22 KCAL/MOL
REMARK 927      BINDING AFFINITY PREDICTED BY RF-SCORE:    0.00 PKD
ROOT
HETATM    1  N   UNL     1     -11.470  13.043  63.064  1.00  0.00    -0.639 NA 
HETATM    2  H2  UNL     1     -11.944  13.945  63.095  1.00  0.00     0.000 HD 
HETATM    3  H1  UNL     1     -10.695  13.067  62.400  1.00  0.00     0.000 HD 
HETATM    4  CA  UNL     1     -11.078  12.606  64.442  1.00  0.00    -0.345 C  
HETATM    5  C   UNL     1     -10.368  11.244  64.351  1.00  0.00    -0.329 C  
HETATM    6  OXT UNL     1      -9.998  10.576  65.303  1.00  0.00    -0.259 OA 
HETATM    7  O   UNL     1     -10.178  10.869  63.058  1.00  0.00    -0.292 OA 
ENDROOT
BRANCH   4   8
HETATM    8  C   UNL     1     -12.248  12.569  65.445  1.00  0.00    -0.475 C  
BRANCH   8   9
HETATM    9  C   UNL     1     -11.905  13.081  66.828  1.00  0.00    -0.451 A  
HETATM   10  C   UNL     1     -11.711  12.175  67.886  1.00  0.00    -0.403 A  
HETATM   11  C   UNL     1     -11.479  12.653  69.171  1.00  0.00    -0.304 A  
HETATM   12  O   UNL     1     -11.298  11.809  70.231  1.00  0.00    -0.501 OA 
HETATM   13  C   UNL     1     -11.433  14.021  69.413  1.00  0.00    -0.290 A  
HETATM   14  H   UNL     1     -11.140  12.136  71.109  1.00  0.00     0.000 HD 
HETATM   15  O   UNL     1     -11.235  14.483  70.682  1.00  0.00    -0.488 OA 
HETATM   16  C   UNL     1     -11.596  14.931  68.379  1.00  0.00    -0.348 A  
HETATM   17  C   UNL     1     -11.823  14.461  67.084  1.00  0.00    -0.437 A  
HETATM   18  H   UNL     1     -11.205  15.418  70.847  1.00  0.00     0.000 HD 
ENDBRANCH   8   9
ENDBRANCH   4   8
TORSDOF 2
ENDMDL
MODEL       62
REMARK 921   NORMALIZED FREE ENERGY PREDICTED BY IDOCK:   -4.97 KCAL/MOL
REMARK 922        TOTAL FREE ENERGY PREDICTED BY IDOCK:   -5.74 KCAL/MOL
REMARK 923 INTER-LIGAND FREE ENERGY PREDICTED BY IDOCK:   -5.70 KCAL/MOL
REMARK 924 INTRA-LIGAND FREE ENERGY PREDICTED BY IDOCK:   -0.03 KCAL/MOL
REMARK 927      BINDING AFFINITY PREDICTED BY RF-SCORE:    0.00 PKD
ROOT
HETATM    1  N   UNL     1     -11.120   9.394  67.724  1.00  0.00    -0.487 NA 
HETATM    2  H2  UNL     1     -11.403  10.359  67.555  1.00  0.00     0.000 HD 
HETATM    3  H1  UNL     1     -11.178   8.848  66.864  1.00  0.00     0.000 HD 
HETATM    4  CA  UNL     1      -9.778   9.348  68.386  1.00  0.00    -0.149 C  
HETATM    5  C   UNL     1      -9.389   7.878  68.623  1.00  0.00    -0.145 C  
HETATM    6  OXT UNL     1      -8.392   7.499  69.217  1.00  0.00    -0.129 OA 
HETATM    7  O   UNL     1     -10.292   7.030  68.064  1.00  0.00    -0.172 OA 
ENDROOT
BRANCH   4   8
HETATM    8  C   UNL     1      -9.690  10.173  69.685  1.00  0.00    -0.250 C  
BRANCH   8   9
HETATM    9  C   UNL     1     -10.801   9.902  70.677  1.00  0.00    -0.400 A  
HETATM   10  C   UNL     1     -10.691   8.832  71.583  1.00  0.00    -0.397 A  
HETATM   11  C   UNL     1     -11.750   8.537  72.435  1.00  0.00    -0.358 A  
HETATM   12  O   UNL     1     -11.692   7.498  73.321  1.00  0.00    -0.604 OA 
HETATM   13  C   UNL     1     -12.913   9.298  72.399  1.00  0.00    -0.377 A  
HETATM   14  H   UNL     1     -12.415   7.296  73.904  1.00  0.00     0.000 HD 
HETATM   15  O   UNL     1     -13.960   8.983  73.217  1.00  0.00    -1.205 OA 
HETATM   16  C   UNL     1     -13.031  10.373  71.531  1.00  0.00    -0.562 A  
HETATM   17  C   UNL     1     -11.971  10.681  70.676  1.00  0.00    -0.466 A  
HETATM   18  H   UNL     1     -14.754   9.503  73.192  1.00  0.00     0.000 HD 
ENDBRANCH   8   9
ENDBRANCH   4   8
TORSDOF 2
ENDMDL
MODEL       63
REMARK 921   NORMALIZED FREE ENERGY PREDICTED BY IDOCK:   -4.97 KCAL/MOL
REMARK 922        TOTAL FREE ENERGY PREDICTED BY IDOCK:   -5.73 KCAL/MOL
REMARK 923 INTER-LIGAND FREE ENERGY PREDICTED BY IDOCK:   -5.50 KCAL/MOL
REMARK 924 INTRA-LIGAND FREE ENERGY PREDICTED BY IDOCK:   -0.23 KCAL/MOL
REMARK 927      BINDING AFFINITY PREDICTED BY RF-SCORE:    0.00 PKD
ROOT
HETATM    1  N   UNL     1     -10.194  10.088  67.464  1.00  0.00    -0.198 NA 
HETATM    2  H2  UNL     1     -11.172  10.067  67.175  1.00  0.00     0.000 HD 
HETATM    3  H1  UNL     1      -9.684   9.303  67.058  1.00  0.00     0.000 HD 
HETATM    4  CA  UNL     1      -9.588  11.426  67.171  1.00  0.00    -0.179 C  
HETATM    5  C   UNL     1      -8.116  11.415  67.621  1.00  0.00    -0.124 C  
HETATM    6  OXT UNL     1      -7.365  12.377  67.599  1.00  0.00    -0.109 OA 
HETATM    7  O   UNL     1      -7.734  10.180  68.038  1.00  0.00    -0.088 OA 
ENDROOT
BRANCH   4   8
HETATM    8  C   UNL     1     -10.359  12.611  67.784  1.00  0.00    -0.221 C  
BRANCH   8   9
HETATM    9  C   UNL     1     -10.745  13.689  66.793  1.00  0.00    -0.272 A  
HETATM   10  C   UNL     1     -11.469  13.354  65.635  1.00  0.00    -0.335 A  
HETATM   11  C   UNL     1     -11.748  14.333  64.688  1.00  0.00    -0.430 A  
HETATM   12  O   UNL     1     -12.436  14.050  63.541  1.00  0.00    -1.043 OA 
HETATM   13  C   UNL     1     -11.321  15.641  64.885  1.00  0.00    -0.315 A  
HETATM   14  H   UNL     1     -12.627  14.719  62.895  1.00  0.00     0.000 HD 
HETATM   15  O   UNL     1     -11.573  16.591  63.936  1.00  0.00    -1.598 OA 
HETATM   16  C   UNL     1     -10.629  15.998  66.032  1.00  0.00    -0.324 A  
HETATM   17  C   UNL     1     -10.349  15.023  66.992  1.00  0.00    -0.269 A  
HETATM   18  H   UNL     1     -11.280  17.485  64.070  1.00  0.00     0.000 HD 
ENDBRANCH   8   9
ENDBRANCH   4   8
TORSDOF 2
ENDMDL
MODEL       64
REMARK 921   NORMALIZED FREE ENERGY PREDICTED BY IDOCK:   -4.95 KCAL/MOL
REMARK 922        TOTAL FREE ENERGY PREDICTED BY IDOCK:   -5.71 KCAL/MOL
REMARK 923 INTER-LIGAND FREE ENERGY PREDICTED BY IDOCK:   -5.54 KCAL/MOL
REMARK 924 INTRA-LIGAND FREE ENERGY PREDICTED BY IDOCK:   -0.17 KCAL/MOL
REMARK 927      BINDING AFFINITY PREDICTED BY RF-SCORE:    0.00 PKD
ROOT
HETATM    1  N   UNL     1     -11.612  12.944  69.588  1.00  0.00    -0.431 NA 
HETATM    2  H2  UNL     1     -11.560  12.052  69.096  1.00  0.00     0.000 HD 
HETATM    3  H1  UNL     1     -11.077  12.906  70.456  1.00  0.00     0.000 HD 
HETATM    4  CA  UNL     1     -11.220  14.069  68.680  1.00  0.00    -0.268 C  
HETATM    5  C   UNL     1     -11.311  15.393  69.458  1.00  0.00    -0.301 C  
HETATM    6  OXT UNL     1     -11.138  16.504  68.983  1.00  0.00    -0.319 OA 
HETATM    7  O   UNL     1     -11.595  15.179  70.770  1.00  0.00    -0.273 OA 
ENDROOT
BRANCH   4   8
HETATM    8  C   UNL     1     -12.028  14.126  67.368  1.00  0.00    -0.439 C  
BRANCH   8   9
HETATM    9  C   UNL     1     -11.486  13.249  66.259  1.00  0.00    -0.358 A  
HETATM   10  C   UNL     1     -12.298  12.926  65.157  1.00  0.00    -0.547 A  
HETATM   11  C   UNL     1     -11.825  12.053  64.183  1.00  0.00    -0.373 A  
HETATM   12  O   UNL     1     -12.584  11.700  63.103  1.00  0.00    -0.926 OA 
HETATM   13  C   UNL     1     -10.552  11.505  64.291  1.00  0.00    -0.347 A  
HETATM   14  H   UNL     1     -12.261  11.104  62.437  1.00  0.00     0.000 HD 
HETATM   15  O   UNL     1     -10.105  10.625  63.346  1.00  0.00    -0.455 OA 
HETATM   16  C   UNL     1      -9.726  11.831  65.356  1.00  0.00    -0.242 A  
HETATM   17  C   UNL     1     -10.189  12.711  66.336  1.00  0.00    -0.263 A  
HETATM   18  H   UNL     1      -9.236  10.250  63.421  1.00  0.00     0.000 HD 
ENDBRANCH   8   9
ENDBRANCH   4   8
TORSDOF 2
ENDMDL
MODEL       65
REMARK 921   NORMALIZED FREE ENERGY PREDICTED BY IDOCK:   -4.93 KCAL/MOL
REMARK 922        TOTAL FREE ENERGY PREDICTED BY IDOCK:   -5.70 KCAL/MOL
REMARK 923 INTER-LIGAND FREE ENERGY PREDICTED BY IDOCK:   -5.46 KCAL/MOL
REMARK 924 INTRA-LIGAND FREE ENERGY PREDICTED BY IDOCK:   -0.23 KCAL/MOL
REMARK 927      BINDING AFFINITY PREDICTED BY RF-SCORE:    0.00 PKD
ROOT
HETATM    1  N   UNL     1     -12.305  14.291  68.302  1.00  0.00    -0.580 NA 
HETATM    2  H2  UNL     1     -12.396  14.828  69.164  1.00  0.00     0.000 HD 
HETATM    3  H1  UNL     1     -13.215  13.944  67.998  1.00  0.00     0.000 HD 
HETATM    4  CA  UNL     1     -11.578  15.087  67.262  1.00  0.00    -0.273 C  
HETATM    5  C   UNL     1     -11.462  14.243  65.980  1.00  0.00    -0.347 C  
HETATM    6  OXT UNL     1     -10.853  14.569  64.974  1.00  0.00    -0.362 OA 
HETATM    7  O   UNL     1     -12.148  13.075  66.091  1.00  0.00    -0.412 OA 
ENDROOT
BRANCH   4   8
HETATM    8  C   UNL     1     -10.203  15.612  67.721  1.00  0.00    -0.252 C  
BRANCH   8   9
HETATM    9  C   UNL     1     -10.041  17.114  67.624  1.00  0.00    -0.305 A  
HETATM   10  C   UNL     1     -10.150  17.910  68.778  1.00  0.00    -0.384 A  
HETATM   11  C   UNL     1     -10.083  19.294  68.671  1.00  0.00    -0.419 A  
HETATM   12  O   UNL     1     -10.199  20.108  69.763  1.00  0.00    -0.476 OA 
HETATM   13  C   UNL     1      -9.902  19.894  67.429  1.00  0.00    -0.409 A  
HETATM   14  H   UNL     1     -10.152  21.053  69.690  1.00  0.00     0.000 HD 
HETATM   15  O   UNL     1      -9.867  21.255  67.328  1.00  0.00    -0.503 OA 
HETATM   16  C   UNL     1      -9.765  19.126  66.283  1.00  0.00    -0.412 A  
HETATM   17  C   UNL     1      -9.825  17.735  66.381  1.00  0.00    -0.328 A  
HETATM   18  H   UNL     1      -9.744  21.665  66.479  1.00  0.00     0.000 HD 
ENDBRANCH   8   9
ENDBRANCH   4   8
TORSDOF 2
ENDMDL
MODEL       66
REMARK 921   NORMALIZED FREE ENERGY PREDICTED BY IDOCK:   -4.93 KCAL/MOL
REMARK 922        TOTAL FREE ENERGY PREDICTED BY IDOCK:   -5.69 KCAL/MOL
REMARK 923 INTER-LIGAND FREE ENERGY PREDICTED BY IDOCK:   -5.80 KCAL/MOL
REMARK 924 INTRA-LIGAND FREE ENERGY PREDICTED BY IDOCK:    0.11 KCAL/MOL
REMARK 927      BINDING AFFINITY PREDICTED BY RF-SCORE:    0.00 PKD
ROOT
HETATM    1  N   UNL     1      -8.884  12.955  68.597  1.00  0.00    -0.375 NA 
HETATM    2  H2  UNL     1      -7.880  13.050  68.441  1.00  0.00     0.000 HD 
HETATM    3  H1  UNL     1      -9.075  12.732  69.574  1.00  0.00     0.000 HD 
HETATM    4  CA  UNL     1      -9.611  14.163  68.093  1.00  0.00    -0.218 C  
HETATM    5  C   UNL     1     -11.118  13.980  68.347  1.00  0.00    -0.253 C  
HETATM    6  OXT UNL     1     -11.993  14.747  67.980  1.00  0.00    -0.316 OA 
HETATM    7  O   UNL     1     -11.367  12.851  69.060  1.00  0.00    -0.261 OA 
ENDROOT
BRANCH   4   8
HETATM    8  C   UNL     1      -9.322  14.499  66.617  1.00  0.00    -0.301 C  
BRANCH   8   9
HETATM    9  C   UNL     1     -10.079  13.648  65.619  1.00  0.00    -0.299 A  
HETATM   10  C   UNL     1     -10.979  14.247  64.721  1.00  0.00    -0.408 A  
HETATM   11  C   UNL     1     -11.732  13.452  63.864  1.00  0.00    -0.404 A  
HETATM   12  O   UNL     1     -12.629  13.991  62.984  1.00  0.00    -1.027 OA 
HETATM   13  C   UNL     1     -11.595  12.069  63.889  1.00  0.00    -0.449 A  
HETATM   14  H   UNL     1     -13.143  13.449  62.399  1.00  0.00     0.000 HD 
HETATM   15  O   UNL     1     -12.360  11.293  63.065  1.00  0.00    -0.856 OA 
HETATM   16  C   UNL     1     -10.694  11.460  64.748  1.00  0.00    -0.362 A  
HETATM   17  C   UNL     1      -9.929  12.250  65.608  1.00  0.00    -0.271 A  
HETATM   18  H   UNL     1     -12.267  10.348  63.083  1.00  0.00     0.000 HD 
ENDBRANCH   8   9
ENDBRANCH   4   8
TORSDOF 2
ENDMDL
MODEL       67
REMARK 921   NORMALIZED FREE ENERGY PREDICTED BY IDOCK:   -4.87 KCAL/MOL
REMARK 922        TOTAL FREE ENERGY PREDICTED BY IDOCK:   -5.63 KCAL/MOL
REMARK 923 INTER-LIGAND FREE ENERGY PREDICTED BY IDOCK:   -5.39 KCAL/MOL
REMARK 924 INTRA-LIGAND FREE ENERGY PREDICTED BY IDOCK:   -0.24 KCAL/MOL
REMARK 927      BINDING AFFINITY PREDICTED BY RF-SCORE:    0.00 PKD
ROOT
HETATM    1  N   UNL     1     -10.636  11.398  63.071  1.00  0.00    -0.727 NA 
HETATM    2  H2  UNL     1      -9.623  11.284  63.081  1.00  0.00     0.000 HD 
HETATM    3  H1  UNL     1     -11.099  10.492  62.994  1.00  0.00     0.000 HD 
HETATM    4  CA  UNL     1     -11.085  12.214  64.244  1.00  0.00    -0.346 C  
HETATM    5  C   UNL     1     -12.616  12.363  64.191  1.00  0.00    -0.403 C  
HETATM    6  OXT UNL     1     -13.286  13.040  64.956  1.00  0.00    -0.739 OA 
HETATM    7  O   UNL     1     -13.152  11.623  63.185  1.00  0.00    -0.497 OA 
ENDROOT
BRANCH   4   8
HETATM    8  C   UNL     1     -10.387  13.583  64.360  1.00  0.00    -0.306 C  
BRANCH   8   9
HETATM    9  C   UNL     1     -10.056  14.001  65.777  1.00  0.00    -0.345 A  
HETATM   10  C   UNL     1      -9.730  13.030  66.740  1.00  0.00    -0.248 A  
HETATM   11  C   UNL     1      -9.508  13.411  68.059  1.00  0.00    -0.218 A  
HETATM   12  O   UNL     1      -9.203  12.500  69.030  1.00  0.00    -0.362 OA 
HETATM   13  C   UNL     1      -9.602  14.748  68.427  1.00  0.00    -0.213 A  
HETATM   14  H   UNL     1      -9.051  12.760  69.931  1.00  0.00     0.000 HD 
HETATM   15  O   UNL     1      -9.413  15.112  69.730  1.00  0.00    -0.436 OA 
HETATM   16  C   UNL     1      -9.896  15.725  67.488  1.00  0.00    -0.229 A  
HETATM   17  C   UNL     1     -10.114  15.353  66.160  1.00  0.00    -0.325 A  
HETATM   18  H   UNL     1      -9.478  16.026  69.982  1.00  0.00     0.000 HD 
ENDBRANCH   8   9
ENDBRANCH   4   8
TORSDOF 2
ENDMDL
MODEL       68
REMARK 921   NORMALIZED FREE ENERGY PREDICTED BY IDOCK:   -4.87 KCAL/MOL
REMARK 922        TOTAL FREE ENERGY PREDICTED BY IDOCK:   -5.62 KCAL/MOL
REMARK 923 INTER-LIGAND FREE ENERGY PREDICTED BY IDOCK:   -5.43 KCAL/MOL
REMARK 924 INTRA-LIGAND FREE ENERGY PREDICTED BY IDOCK:   -0.19 KCAL/MOL
REMARK 927      BINDING AFFINITY PREDICTED BY RF-SCORE:    0.00 PKD
ROOT
HETATM    1  N   UNL     1     -10.072  16.719  65.588  1.00  0.00    -0.580 NA 
HETATM    2  H2  UNL     1      -9.356  16.730  66.314  1.00  0.00     0.000 HD 
HETATM    3  H1  UNL     1      -9.688  17.041  64.700  1.00  0.00     0.000 HD 
HETATM    4  CA  UNL     1     -10.726  15.373  65.516  1.00  0.00    -0.384 C  
HETATM    5  C   UNL     1     -11.798  15.398  64.412  1.00  0.00    -0.256 C  
HETATM    6  OXT UNL     1     -12.568  14.486  64.155  1.00  0.00    -0.730 OA 
HETATM    7  O   UNL     1     -11.777  16.572  63.727  1.00  0.00    -1.086 OA 
ENDROOT
BRANCH   4   8
HETATM    8  C   UNL     1     -11.307  14.885  66.858  1.00  0.00    -0.338 C  
BRANCH   8   9
HETATM    9  C   UNL     1     -10.945  13.460  67.218  1.00  0.00    -0.286 A  
HETATM   10  C   UNL     1      -9.870  13.204  68.087  1.00  0.00    -0.228 A  
HETATM   11  C   UNL     1      -9.490  11.892  68.348  1.00  0.00    -0.189 A  
HETATM   12  O   UNL     1      -8.442  11.597  69.174  1.00  0.00    -0.369 OA 
HETATM   13  C   UNL     1     -10.171  10.834  67.758  1.00  0.00    -0.182 A  
HETATM   14  H   UNL     1      -8.182  10.701  69.353  1.00  0.00     0.000 HD 
HETATM   15  O   UNL     1      -9.773   9.549  67.995  1.00  0.00    -0.143 OA 
HETATM   16  C   UNL     1     -11.251  11.064  66.919  1.00  0.00    -0.210 A  
HETATM   17  C   UNL     1     -11.644  12.377  66.655  1.00  0.00    -0.447 A  
HETATM   18  H   UNL     1     -10.239   8.826  67.591  1.00  0.00     0.000 HD 
ENDBRANCH   8   9
ENDBRANCH   4   8
TORSDOF 2
ENDMDL
MODEL       69
REMARK 921   NORMALIZED FREE ENERGY PREDICTED BY IDOCK:   -4.86 KCAL/MOL
REMARK 922        TOTAL FREE ENERGY PREDICTED BY IDOCK:   -5.62 KCAL/MOL
REMARK 923 INTER-LIGAND FREE ENERGY PREDICTED BY IDOCK:   -5.45 KCAL/MOL
REMARK 924 INTRA-LIGAND FREE ENERGY PREDICTED BY IDOCK:   -0.17 KCAL/MOL
REMARK 927      BINDING AFFINITY PREDICTED BY RF-SCORE:    0.00 PKD
ROOT
HETATM    1  N   UNL     1     -11.201   9.175  68.841  1.00  0.00    -0.431 NA 
HETATM    2  H2  UNL     1     -11.983   9.691  68.440  1.00  0.00     0.000 HD 
HETATM    3  H1  UNL     1     -10.497   8.980  68.128  1.00  0.00     0.000 HD 
HETATM    4  CA  UNL     1     -10.666   9.884  70.047  1.00  0.00    -0.292 C  
HETATM    5  C   UNL     1      -9.490   9.075  70.621  1.00  0.00    -0.236 C  
HETATM    6  OXT UNL     1      -8.889   9.337  71.651  1.00  0.00    -0.312 OA 
HETATM    7  O   UNL     1      -9.176   8.022  69.822  1.00  0.00    -0.149 OA 
ENDROOT
BRANCH   4   8
HETATM    8  C   UNL     1     -11.730  10.178  71.124  1.00  0.00    -0.453 C  
BRANCH   8   9
HETATM    9  C   UNL     1     -12.328  11.568  71.053  1.00  0.00    -0.434 A  
HETATM   10  C   UNL     1     -12.009  12.417  69.979  1.00  0.00    -0.372 A  
HETATM   11  C   UNL     1     -12.494  13.720  69.961  1.00  0.00    -0.240 A  
HETATM   12  O   UNL     1     -12.198  14.585  68.945  1.00  0.00    -0.524 OA 
HETATM   13  C   UNL     1     -13.297  14.183  70.997  1.00  0.00    -0.225 A  
HETATM   14  H   UNL     1     -12.530  15.475  68.933  1.00  0.00     0.000 HD 
HETATM   15  O   UNL     1     -13.746  15.473  70.988  1.00  0.00    -0.721 OA 
HETATM   16  C   UNL     1     -13.645  13.354  72.052  1.00  0.00    -0.577 A  
HETATM   17  C   UNL     1     -13.168  12.042  72.076  1.00  0.00    -0.481 A  
HETATM   18  H   UNL     1     -14.294  15.790  71.697  1.00  0.00     0.000 HD 
ENDBRANCH   8   9
ENDBRANCH   4   8
TORSDOF 2
ENDMDL
MODEL       70
REMARK 921   NORMALIZED FREE ENERGY PREDICTED BY IDOCK:   -4.85 KCAL/MOL
REMARK 922        TOTAL FREE ENERGY PREDICTED BY IDOCK:   -5.61 KCAL/MOL
REMARK 923 INTER-LIGAND FREE ENERGY PREDICTED BY IDOCK:   -5.42 KCAL/MOL
REMARK 924 INTRA-LIGAND FREE ENERGY PREDICTED BY IDOCK:   -0.18 KCAL/MOL
REMARK 927      BINDING AFFINITY PREDICTED BY RF-SCORE:    0.00 PKD
ROOT
HETATM    1  N   UNL     1     -10.783  19.410  65.836  1.00  0.00    -0.459 NA 
HETATM    2  H2  UNL     1     -11.402  18.830  65.270  1.00  0.00     0.000 HD 
HETATM    3  H1  UNL     1     -11.278  20.236  66.176  1.00  0.00     0.000 HD 
HETATM    4  CA  UNL     1     -10.143  18.597  66.919  1.00  0.00    -0.366 C  
HETATM    5  C   UNL     1      -9.220  19.507  67.748  1.00  0.00    -0.324 C  
HETATM    6  OXT UNL     1      -8.489  19.136  68.651  1.00  0.00    -0.350 OA 
HETATM    7  O   UNL     1      -9.329  20.806  67.363  1.00  0.00    -0.392 OA 
ENDROOT
BRANCH   4   8
HETATM    8  C   UNL     1      -9.396  17.349  66.406  1.00  0.00    -0.272 C  
BRANCH   8   9
HETATM    9  C   UNL     1     -10.260  16.114  66.265  1.00  0.00    -0.333 A  
HETATM   10  C   UNL     1     -10.919  15.584  67.388  1.00  0.00    -0.306 A  
HETATM   11  C   UNL     1     -11.644  14.403  67.270  1.00  0.00    -0.379 A  
HETATM   12  O   UNL     1     -12.288  13.844  68.338  1.00  0.00    -0.494 OA 
HETATM   13  C   UNL     1     -11.723  13.748  66.046  1.00  0.00    -0.363 A  
HETATM   14  H   UNL     1     -12.783  13.037  68.258  1.00  0.00     0.000 HD 
HETATM   15  O   UNL     1     -12.411  12.572  65.945  1.00  0.00    -0.626 OA 
HETATM   16  C   UNL     1     -11.102  14.268  64.921  1.00  0.00    -0.396 A  
HETATM   17  C   UNL     1     -10.377  15.457  65.028  1.00  0.00    -0.362 A  
HETATM   18  H   UNL     1     -12.464  12.125  65.109  1.00  0.00     0.000 HD 
ENDBRANCH   8   9
ENDBRANCH   4   8
TORSDOF 2
ENDMDL
MODEL       71
REMARK 921   NORMALIZED FREE ENERGY PREDICTED BY IDOCK:   -4.84 KCAL/MOL
REMARK 922        TOTAL FREE ENERGY PREDICTED BY IDOCK:   -5.59 KCAL/MOL
REMARK 923 INTER-LIGAND FREE ENERGY PREDICTED BY IDOCK:   -5.36 KCAL/MOL
REMARK 924 INTRA-LIGAND FREE ENERGY PREDICTED BY IDOCK:   -0.24 KCAL/MOL
REMARK 927      BINDING AFFINITY PREDICTED BY RF-SCORE:    0.00 PKD
ROOT
HETATM    1  N   UNL     1     -10.758  17.767  67.789  1.00  0.00    -0.375 NA 
HETATM    2  H2  UNL     1     -11.751  17.974  67.685  1.00  0.00     0.000 HD 
HETATM    3  H1  UNL     1     -10.240  18.612  68.034  1.00  0.00     0.000 HD 
HETATM    4  CA  UNL     1     -10.555  16.630  68.742  1.00  0.00    -0.340 C  
HETATM    5  C   UNL     1      -9.047  16.351  68.872  1.00  0.00    -0.256 C  
HETATM    6  OXT UNL     1      -8.551  15.433  69.507  1.00  0.00    -0.257 OA 
HETATM    7  O   UNL     1      -8.312  17.274  68.198  1.00  0.00    -0.218 OA 
ENDROOT
BRANCH   4   8
HETATM    8  C   UNL     1     -11.337  15.354  68.373  1.00  0.00    -0.345 C  
BRANCH   8   9
HETATM    9  C   UNL     1     -12.026  14.680  69.540  1.00  0.00    -0.361 A  
HETATM   10  C   UNL     1     -12.731  15.449  70.483  1.00  0.00    -0.455 A  
HETATM   11  C   UNL     1     -13.291  14.834  71.597  1.00  0.00    -0.360 A  
HETATM   12  O   UNL     1     -13.971  15.544  72.546  1.00  0.00    -0.538 OA 
HETATM   13  C   UNL     1     -13.162  13.462  71.779  1.00  0.00    -0.407 A  
HETATM   14  H   UNL     1     -14.354  15.124  73.307  1.00  0.00     0.000 HD 
HETATM   15  O   UNL     1     -13.688  12.869  72.891  1.00  0.00    -0.684 OA 
HETATM   16  C   UNL     1     -12.494  12.681  70.848  1.00  0.00    -0.368 A  
HETATM   17  C   UNL     1     -11.934  13.289  69.722  1.00  0.00    -0.391 A  
HETATM   18  H   UNL     1     -13.600  11.931  73.016  1.00  0.00     0.000 HD 
ENDBRANCH   8   9
ENDBRANCH   4   8
TORSDOF 2
ENDMDL
MODEL       72
REMARK 921   NORMALIZED FREE ENERGY PREDICTED BY IDOCK:   -4.76 KCAL/MOL
REMARK 922        TOTAL FREE ENERGY PREDICTED BY IDOCK:   -5.51 KCAL/MOL
REMARK 923 INTER-LIGAND FREE ENERGY PREDICTED BY IDOCK:   -5.29 KCAL/MOL
REMARK 924 INTRA-LIGAND FREE ENERGY PREDICTED BY IDOCK:   -0.22 KCAL/MOL
REMARK 927      BINDING AFFINITY PREDICTED BY RF-SCORE:    0.00 PKD
ROOT
HETATM    1  N   UNL     1     -11.518  12.735  66.656  1.00  0.00    -0.330 NA 
HETATM    2  H2  UNL     1     -10.930  12.777  67.488  1.00  0.00     0.000 HD 
HETATM    3  H1  UNL     1     -12.445  12.378  66.890  1.00  0.00     0.000 HD 
HETATM    4  CA  UNL     1     -11.534  14.059  65.956  1.00  0.00    -0.338 C  
HETATM    5  C   UNL     1     -12.431  13.953  64.709  1.00  0.00    -0.354 C  
HETATM    6  OXT UNL     1     -12.589  14.833  63.878  1.00  0.00    -0.834 OA 
HETATM    7  O   UNL     1     -13.057  12.749  64.649  1.00  0.00    -0.760 OA 
ENDROOT
BRANCH   4   8
HETATM    8  C   UNL     1     -10.134  14.598  65.602  1.00  0.00    -0.389 C  
BRANCH   8   9
HETATM    9  C   UNL     1      -9.709  15.814  66.398  1.00  0.00    -0.305 A  
HETATM   10  C   UNL     1      -8.449  16.396  66.177  1.00  0.00    -0.329 A  
HETATM   11  C   UNL     1      -8.031  17.460  66.967  1.00  0.00    -0.215 A  
HETATM   12  O   UNL     1      -6.808  18.047  66.797  1.00  0.00    -0.179 OA 
HETATM   13  C   UNL     1      -8.856  17.955  67.971  1.00  0.00    -0.268 A  
HETATM   14  H   UNL     1      -6.523  18.775  67.337  1.00  0.00     0.000 HD 
HETATM   15  O   UNL     1      -8.427  18.981  68.763  1.00  0.00    -0.355 OA 
HETATM   16  C   UNL     1     -10.114  17.413  68.188  1.00  0.00    -0.328 A  
HETATM   17  C   UNL     1     -10.545  16.348  67.395  1.00  0.00    -0.306 A  
HETATM   18  H   UNL     1      -8.991  19.319  69.449  1.00  0.00     0.000 HD 
ENDBRANCH   8   9
ENDBRANCH   4   8
TORSDOF 2
ENDMDL
MODEL       73
REMARK 921   NORMALIZED FREE ENERGY PREDICTED BY IDOCK:   -4.75 KCAL/MOL
REMARK 922        TOTAL FREE ENERGY PREDICTED BY IDOCK:   -5.49 KCAL/MOL
REMARK 923 INTER-LIGAND FREE ENERGY PREDICTED BY IDOCK:   -5.26 KCAL/MOL
REMARK 924 INTRA-LIGAND FREE ENERGY PREDICTED BY IDOCK:   -0.23 KCAL/MOL
REMARK 927      BINDING AFFINITY PREDICTED BY RF-SCORE:    0.00 PKD
ROOT
HETATM    1  N   UNL     1      -8.653  17.694  68.285  1.00  0.00    -0.261 NA 
HETATM    2  H2  UNL     1      -8.483  17.153  69.133  1.00  0.00     0.000 HD 
HETATM    3  H1  UNL     1      -7.772  17.928  67.827  1.00  0.00     0.000 HD 
HETATM    4  CA  UNL     1      -9.632  16.987  67.398  1.00  0.00    -0.246 C  
HETATM    5  C   UNL     1      -9.860  17.833  66.133  1.00  0.00    -0.244 C  
HETATM    6  OXT UNL     1     -10.663  17.578  65.249  1.00  0.00    -0.656 OA 
HETATM    7  O   UNL     1      -9.033  18.911  66.102  1.00  0.00    -0.434 OA 
ENDROOT
BRANCH   4   8
HETATM    8  C   UNL     1     -10.963  16.632  68.090  1.00  0.00    -0.327 C  
BRANCH   8   9
HETATM    9  C   UNL     1     -11.308  15.158  68.069  1.00  0.00    -0.346 A  
HETATM   10  C   UNL     1     -11.659  14.500  69.260  1.00  0.00    -0.339 A  
HETATM   11  C   UNL     1     -11.895  13.130  69.249  1.00  0.00    -0.323 A  
HETATM   12  O   UNL     1     -12.224  12.446  70.386  1.00  0.00    -0.346 OA 
HETATM   13  C   UNL     1     -11.790  12.410  68.064  1.00  0.00    -0.316 A  
HETATM   14  H   UNL     1     -12.385  11.510  70.378  1.00  0.00     0.000 HD 
HETATM   15  O   UNL     1     -11.993  11.059  68.066  1.00  0.00    -0.695 OA 
HETATM   16  C   UNL     1     -11.471  13.044  66.874  1.00  0.00    -0.387 A  
HETATM   17  C   UNL     1     -11.239  14.421  66.873  1.00  0.00    -0.340 A  
HETATM   18  H   UNL     1     -11.920  10.567  67.256  1.00  0.00     0.000 HD 
ENDBRANCH   8   9
ENDBRANCH   4   8
TORSDOF 2
ENDMDL
MODEL       74
REMARK 921   NORMALIZED FREE ENERGY PREDICTED BY IDOCK:   -4.74 KCAL/MOL
REMARK 922        TOTAL FREE ENERGY PREDICTED BY IDOCK:   -5.48 KCAL/MOL
REMARK 923 INTER-LIGAND FREE ENERGY PREDICTED BY IDOCK:   -5.39 KCAL/MOL
REMARK 924 INTRA-LIGAND FREE ENERGY PREDICTED BY IDOCK:   -0.10 KCAL/MOL
REMARK 927      BINDING AFFINITY PREDICTED BY RF-SCORE:    0.00 PKD
ROOT
HETATM    1  N   UNL     1     -11.857  12.778  69.959  1.00  0.00    -0.479 NA 
HETATM    2  H2  UNL     1     -11.184  12.548  69.228  1.00  0.00     0.000 HD 
HETATM    3  H1  UNL     1     -11.730  12.167  70.767  1.00  0.00     0.000 HD 
HETATM    4  CA  UNL     1     -11.801  14.238  70.285  1.00  0.00    -0.307 C  
HETATM    5  C   UNL     1     -12.828  14.542  71.390  1.00  0.00    -0.336 C  
HETATM    6  OXT UNL     1     -13.091  15.653  71.823  1.00  0.00    -0.436 OA 
HETATM    7  O   UNL     1     -13.409  13.404  71.854  1.00  0.00    -0.407 OA 
ENDROOT
BRANCH   4   8
HETATM    8  C   UNL     1     -11.992  15.161  69.065  1.00  0.00    -0.295 C  
BRANCH   8   9
HETATM    9  C   UNL     1     -11.471  14.594  67.762  1.00  0.00    -0.359 A  
HETATM   10  C   UNL     1     -12.364  14.047  66.825  1.00  0.00    -0.368 A  
HETATM   11  C   UNL     1     -11.874  13.453  65.667  1.00  0.00    -0.370 A  
HETATM   12  O   UNL     1     -12.705  12.896  64.736  1.00  0.00    -0.647 OA 
HETATM   13  C   UNL     1     -10.505  13.404  65.430  1.00  0.00    -0.302 A  
HETATM   14  H   UNL     1     -12.370  12.490  63.945  1.00  0.00     0.000 HD 
HETATM   15  O   UNL     1     -10.028  12.792  64.306  1.00  0.00    -0.579 OA 
HETATM   16  C   UNL     1      -9.608  13.961  66.329  1.00  0.00    -0.274 A  
HETATM   17  C   UNL     1     -10.091  14.565  67.491  1.00  0.00    -0.228 A  
HETATM   18  H   UNL     1      -9.093  12.758  64.144  1.00  0.00     0.000 HD 
ENDBRANCH   8   9
ENDBRANCH   4   8
TORSDOF 2
ENDMDL
MODEL       75
REMARK 921   NORMALIZED FREE ENERGY PREDICTED BY IDOCK:   -4.74 KCAL/MOL
REMARK 922        TOTAL FREE ENERGY PREDICTED BY IDOCK:   -5.48 KCAL/MOL
REMARK 923 INTER-LIGAND FREE ENERGY PREDICTED BY IDOCK:   -5.25 KCAL/MOL
REMARK 924 INTRA-LIGAND FREE ENERGY PREDICTED BY IDOCK:   -0.24 KCAL/MOL
REMARK 927      BINDING AFFINITY PREDICTED BY RF-SCORE:    0.00 PKD
ROOT
HETATM    1  N   UNL     1     -12.589  14.881  68.857  1.00  0.00    -0.423 NA 
HETATM    2  H2  UNL     1     -13.193  14.077  69.030  1.00  0.00     0.000 HD 
HETATM    3  H1  UNL     1     -12.240  15.262  69.737  1.00  0.00     0.000 HD 
HETATM    4  CA  UNL     1     -11.514  14.530  67.876  1.00  0.00    -0.325 C  
HETATM    5  C   UNL     1     -10.627  15.766  67.644  1.00  0.00    -0.301 C  
HETATM    6  OXT UNL     1      -9.713  15.837  66.838  1.00  0.00    -0.222 OA 
HETATM    7  O   UNL     1     -10.974  16.787  68.471  1.00  0.00    -0.345 OA 
ENDROOT
BRANCH   4   8
HETATM    8  C   UNL     1     -12.041  13.953  66.547  1.00  0.00    -0.484 C  
BRANCH   8   9
HETATM    9  C   UNL     1     -11.300  12.727  66.056  1.00  0.00    -0.363 A  
HETATM   10  C   UNL     1     -11.301  12.405  64.688  1.00  0.00    -0.364 A  
HETATM   11  C   UNL     1     -10.690  11.234  64.254  1.00  0.00    -0.349 A  
HETATM   12  O   UNL     1     -10.679  10.874  62.935  1.00  0.00    -0.779 OA 
HETATM   13  C   UNL     1     -10.074  10.384  65.166  1.00  0.00    -0.308 A  
HETATM   14  H   UNL     1     -10.261  10.074  62.638  1.00  0.00     0.000 HD 
HETATM   15  O   UNL     1      -9.502   9.221  64.736  1.00  0.00    -0.447 OA 
HETATM   16  C   UNL     1     -10.040  10.697  66.516  1.00  0.00    -0.275 A  
HETATM   17  C   UNL     1     -10.645  11.874  66.961  1.00  0.00    -0.260 A  
HETATM   18  H   UNL     1      -9.082   8.640  65.360  1.00  0.00     0.000 HD 
ENDBRANCH   8   9
ENDBRANCH   4   8
TORSDOF 2
ENDMDL
MODEL       76
REMARK 921   NORMALIZED FREE ENERGY PREDICTED BY IDOCK:   -4.64 KCAL/MOL
REMARK 922        TOTAL FREE ENERGY PREDICTED BY IDOCK:   -5.37 KCAL/MOL
REMARK 923 INTER-LIGAND FREE ENERGY PREDICTED BY IDOCK:   -5.13 KCAL/MOL
REMARK 924 INTRA-LIGAND FREE ENERGY PREDICTED BY IDOCK:   -0.24 KCAL/MOL
REMARK 927      BINDING AFFINITY PREDICTED BY RF-SCORE:    0.00 PKD
ROOT
HETATM    1  N   UNL     1     -10.361  14.233  65.652  1.00  0.00    -0.319 NA 
HETATM    2  H2  UNL     1      -9.630  14.220  66.363  1.00  0.00     0.000 HD 
HETATM    3  H1  UNL     1      -9.954  14.313  64.720  1.00  0.00     0.000 HD 
HETATM    4  CA  UNL     1     -11.276  13.059  65.819  1.00  0.00    -0.289 C  
HETATM    5  C   UNL     1     -12.363  13.115  64.730  1.00  0.00    -0.423 C  
HETATM    6  OXT UNL     1     -13.310  12.351  64.639  1.00  0.00    -0.778 OA 
HETATM    7  O   UNL     1     -12.131  14.124  63.850  1.00  0.00    -0.443 OA 
ENDROOT
BRANCH   4   8
HETATM    8  C   UNL     1     -11.892  12.939  67.227  1.00  0.00    -0.416 C  
BRANCH   8   9
HETATM    9  C   UNL     1     -11.553  11.653  67.952  1.00  0.00    -0.369 A  
HETATM   10  C   UNL     1     -11.889  11.500  69.309  1.00  0.00    -0.414 A  
HETATM   11  C   UNL     1     -11.502  10.353  69.991  1.00  0.00    -0.308 A  
HETATM   12  O   UNL     1     -11.795  10.168  71.314  1.00  0.00    -0.359 OA 
HETATM   13  C   UNL     1     -10.790   9.354  69.337  1.00  0.00    -0.189 A  
HETATM   14  H   UNL     1     -11.531   9.384  71.780  1.00  0.00     0.000 HD 
HETATM   15  O   UNL     1     -10.387   8.243  70.021  1.00  0.00    -0.202 OA 
HETATM   16  C   UNL     1     -10.472   9.473  67.993  1.00  0.00    -0.279 A  
HETATM   17  C   UNL     1     -10.861  10.619  67.297  1.00  0.00    -0.345 A  
HETATM   18  H   UNL     1      -9.900   7.561  69.574  1.00  0.00     0.000 HD 
ENDBRANCH   8   9
ENDBRANCH   4   8
TORSDOF 2
ENDMDL
MODEL       77
REMARK 921   NORMALIZED FREE ENERGY PREDICTED BY IDOCK:   -4.61 KCAL/MOL
REMARK 922        TOTAL FREE ENERGY PREDICTED BY IDOCK:   -5.33 KCAL/MOL
REMARK 923 INTER-LIGAND FREE ENERGY PREDICTED BY IDOCK:   -5.23 KCAL/MOL
REMARK 924 INTRA-LIGAND FREE ENERGY PREDICTED BY IDOCK:   -0.11 KCAL/MOL
REMARK 927      BINDING AFFINITY PREDICTED BY RF-SCORE:    0.00 PKD
ROOT
HETATM    1  N   UNL     1     -12.164  12.877  70.920  1.00  0.00    -0.447 NA 
HETATM    2  H2  UNL     1     -11.368  12.712  70.304  1.00  0.00     0.000 HD 
HETATM    3  H1  UNL     1     -12.151  12.225  71.705  1.00  0.00     0.000 HD 
HETATM    4  CA  UNL     1     -12.225  14.317  71.326  1.00  0.00    -0.350 C  
HETATM    5  C   UNL     1     -13.437  14.523  72.252  1.00  0.00    -0.422 C  
HETATM    6  OXT UNL     1     -13.815  15.598  72.689  1.00  0.00    -0.552 OA 
HETATM    7  O   UNL     1     -14.040  13.343  72.549  1.00  0.00    -0.726 OA 
ENDROOT
BRANCH   4   8
HETATM    8  C   UNL     1     -12.244  15.302  70.140  1.00  0.00    -0.402 C  
BRANCH   8   9
HETATM    9  C   UNL     1     -11.519  14.812  68.904  1.00  0.00    -0.321 A  
HETATM   10  C   UNL     1     -10.117  14.879  68.838  1.00  0.00    -0.236 A  
HETATM   11  C   UNL     1      -9.462  14.505  67.670  1.00  0.00    -0.209 A  
HETATM   12  O   UNL     1      -8.101  14.568  67.555  1.00  0.00    -0.161 OA 
HETATM   13  C   UNL     1     -10.188  14.061  66.570  1.00  0.00    -0.279 A  
HETATM   14  H   UNL     1      -7.654  14.313  66.757  1.00  0.00     0.000 HD 
HETATM   15  O   UNL     1      -9.540  13.724  65.416  1.00  0.00    -0.530 OA 
HETATM   16  C   UNL     1     -11.569  13.963  66.624  1.00  0.00    -0.392 A  
HETATM   17  C   UNL     1     -12.236  14.329  67.795  1.00  0.00    -0.199 A  
HETATM   18  H   UNL     1     -10.036  13.421  64.665  1.00  0.00     0.000 HD 
ENDBRANCH   8   9
ENDBRANCH   4   8
TORSDOF 2
ENDMDL
MODEL       78
REMARK 921   NORMALIZED FREE ENERGY PREDICTED BY IDOCK:   -4.61 KCAL/MOL
REMARK 922        TOTAL FREE ENERGY PREDICTED BY IDOCK:   -5.33 KCAL/MOL
REMARK 923 INTER-LIGAND FREE ENERGY PREDICTED BY IDOCK:   -5.10 KCAL/MOL
REMARK 924 INTRA-LIGAND FREE ENERGY PREDICTED BY IDOCK:   -0.23 KCAL/MOL
REMARK 927      BINDING AFFINITY PREDICTED BY RF-SCORE:    0.00 PKD
ROOT
HETATM    1  N   UNL     1     -11.464  12.546  70.111  1.00  0.00    -0.523 NA 
HETATM    2  H2  UNL     1     -10.732  12.185  69.499  1.00  0.00     0.000 HD 
HETATM    3  H1  UNL     1     -11.265  12.309  71.084  1.00  0.00     0.000 HD 
HETATM    4  CA  UNL     1     -11.677  14.009  69.871  1.00  0.00    -0.303 C  
HETATM    5  C   UNL     1     -12.785  14.512  70.812  1.00  0.00    -0.360 C  
HETATM    6  OXT UNL     1     -13.255  15.639  70.809  1.00  0.00    -0.517 OA 
HETATM    7  O   UNL     1     -13.177  13.543  71.680  1.00  0.00    -0.365 OA 
ENDROOT
BRANCH   4   8
HETATM    8  C   UNL     1     -11.976  14.366  68.402  1.00  0.00    -0.328 C  
BRANCH   8   9
HETATM    9  C   UNL     1     -10.959  15.284  67.759  1.00  0.00    -0.312 A  
HETATM   10  C   UNL     1     -10.789  16.594  68.241  1.00  0.00    -0.356 A  
HETATM   11  C   UNL     1      -9.913  17.460  67.595  1.00  0.00    -0.300 A  
HETATM   12  O   UNL     1      -9.727  18.745  68.020  1.00  0.00    -0.299 OA 
HETATM   13  C   UNL     1      -9.203  17.034  66.479  1.00  0.00    -0.271 A  
HETATM   14  H   UNL     1      -9.129  19.337  67.580  1.00  0.00     0.000 HD 
HETATM   15  O   UNL     1      -8.367  17.900  65.831  1.00  0.00    -0.521 OA 
HETATM   16  C   UNL     1      -9.336  15.739  66.003  1.00  0.00    -0.384 A  
HETATM   17  C   UNL     1     -10.208  14.860  66.649  1.00  0.00    -0.264 A  
HETATM   18  H   UNL     1      -7.882  17.609  65.068  1.00  0.00     0.000 HD 
ENDBRANCH   8   9
ENDBRANCH   4   8
TORSDOF 2
ENDMDL
MODEL       79
REMARK 921   NORMALIZED FREE ENERGY PREDICTED BY IDOCK:   -4.58 KCAL/MOL
REMARK 922        TOTAL FREE ENERGY PREDICTED BY IDOCK:   -5.31 KCAL/MOL
REMARK 923 INTER-LIGAND FREE ENERGY PREDICTED BY IDOCK:   -5.07 KCAL/MOL
REMARK 924 INTRA-LIGAND FREE ENERGY PREDICTED BY IDOCK:   -0.24 KCAL/MOL
REMARK 927      BINDING AFFINITY PREDICTED BY RF-SCORE:    0.00 PKD
ROOT
HETATM    1  N   UNL     1     -12.123  13.268  70.601  1.00  0.00    -0.496 NA 
HETATM    2  H2  UNL     1     -12.427  12.406  70.148  1.00  0.00     0.000 HD 
HETATM    3  H1  UNL     1     -11.569  13.060  71.432  1.00  0.00     0.000 HD 
HETATM    4  CA  UNL     1     -11.436  14.166  69.618  1.00  0.00    -0.273 C  
HETATM    5  C   UNL     1     -10.996  15.451  70.341  1.00  0.00    -0.323 C  
HETATM    6  OXT UNL     1     -10.483  16.421  69.805  1.00  0.00    -0.290 OA 
HETATM    7  O   UNL     1     -11.230  15.374  71.677  1.00  0.00    -0.388 OA 
ENDROOT
BRANCH   4   8
HETATM    8  C   UNL     1     -12.274  14.480  68.363  1.00  0.00    -0.154 C  
BRANCH   8   9
HETATM    9  C   UNL     1     -11.658  14.009  67.063  1.00  0.00    -0.394 A  
HETATM   10  C   UNL     1     -10.443  13.302  67.074  1.00  0.00    -0.249 A  
HETATM   11  C   UNL     1      -9.840  12.945  65.874  1.00  0.00    -0.235 A  
HETATM   12  O   UNL     1      -8.652  12.271  65.837  1.00  0.00    -0.375 OA 
HETATM   13  C   UNL     1     -10.437  13.279  64.663  1.00  0.00    -0.402 A  
HETATM   14  H   UNL     1      -8.240  12.026  65.017  1.00  0.00     0.000 HD 
HETATM   15  O   UNL     1      -9.824  12.951  63.487  1.00  0.00    -0.672 OA 
HETATM   16  C   UNL     1     -11.648  13.952  64.630  1.00  0.00    -0.398 A  
HETATM   17  C   UNL     1     -12.264  14.309  65.831  1.00  0.00    -0.422 A  
HETATM   18  H   UNL     1     -10.231  13.180  62.660  1.00  0.00     0.000 HD 
ENDBRANCH   8   9
ENDBRANCH   4   8
TORSDOF 2
ENDMDL
MODEL       80
REMARK 921   NORMALIZED FREE ENERGY PREDICTED BY IDOCK:   -4.58 KCAL/MOL
REMARK 922        TOTAL FREE ENERGY PREDICTED BY IDOCK:   -5.30 KCAL/MOL
REMARK 923 INTER-LIGAND FREE ENERGY PREDICTED BY IDOCK:   -5.06 KCAL/MOL
REMARK 924 INTRA-LIGAND FREE ENERGY PREDICTED BY IDOCK:   -0.23 KCAL/MOL
REMARK 927      BINDING AFFINITY PREDICTED BY RF-SCORE:    0.00 PKD
ROOT
HETATM    1  N   UNL     1      -9.682   4.700  68.865  1.00  0.00    -0.170 NA 
HETATM    2  H2  UNL     1      -9.609   4.318  69.807  1.00  0.00     0.000 HD 
HETATM    3  H1  UNL     1      -9.980   3.979  68.208  1.00  0.00     0.000 HD 
HETATM    4  CA  UNL     1     -10.545   5.924  68.858  1.00  0.00    -0.288 C  
HETATM    5  C   UNL     1     -10.629   6.468  67.421  1.00  0.00    -0.298 C  
HETATM    6  OXT UNL     1     -11.186   7.502  67.090  1.00  0.00    -0.088 OA 
HETATM    7  O   UNL     1     -10.013   5.637  66.540  1.00  0.00    -0.158 OA 
ENDROOT
BRANCH   4   8
HETATM    8  C   UNL     1     -10.095   7.014  69.851  1.00  0.00    -0.202 C  
BRANCH   8   9
HETATM    9  C   UNL     1     -11.204   7.568  70.721  1.00  0.00    -0.287 A  
HETATM   10  C   UNL     1     -12.218   6.717  71.195  1.00  0.00    -0.413 A  
HETATM   11  C   UNL     1     -13.278   7.246  71.924  1.00  0.00    -0.233 A  
HETATM   12  O   UNL     1     -14.293   6.459  72.392  1.00  0.00    -0.711 OA 
HETATM   13  C   UNL     1     -13.336   8.609  72.189  1.00  0.00    -0.396 A  
HETATM   14  H   UNL     1     -15.017   6.820  72.890  1.00  0.00     0.000 HD 
HETATM   15  O   UNL     1     -14.396   9.126  72.879  1.00  0.00    -1.006 OA 
HETATM   16  C   UNL     1     -12.333   9.461  71.753  1.00  0.00    -0.471 A  
HETATM   17  C   UNL     1     -11.261   8.939  71.026  1.00  0.00    -0.342 A  
HETATM   18  H   UNL     1     -14.435  10.057  73.060  1.00  0.00     0.000 HD 
ENDBRANCH   8   9
ENDBRANCH   4   8
TORSDOF 2
ENDMDL
MODEL       81
REMARK 921   NORMALIZED FREE ENERGY PREDICTED BY IDOCK:   -4.57 KCAL/MOL
REMARK 922        TOTAL FREE ENERGY PREDICTED BY IDOCK:   -5.29 KCAL/MOL
REMARK 923 INTER-LIGAND FREE ENERGY PREDICTED BY IDOCK:   -5.17 KCAL/MOL
REMARK 924 INTRA-LIGAND FREE ENERGY PREDICTED BY IDOCK:   -0.13 KCAL/MOL
REMARK 927      BINDING AFFINITY PREDICTED BY RF-SCORE:    0.00 PKD
ROOT
HETATM    1  N   UNL     1     -11.006   7.393  73.390  1.00  0.00    -0.548 NA 
HETATM    2  H2  UNL     1     -11.745   7.663  74.038  1.00  0.00     0.000 HD 
HETATM    3  H1  UNL     1     -10.259   6.903  73.883  1.00  0.00     0.000 HD 
HETATM    4  CA  UNL     1     -11.573   6.633  72.232  1.00  0.00    -0.278 C  
HETATM    5  C   UNL     1     -10.428   6.245  71.280  1.00  0.00    -0.218 C  
HETATM    6  OXT UNL     1     -10.564   5.691  70.200  1.00  0.00    -0.271 OA 
HETATM    7  O   UNL     1      -9.217   6.579  71.799  1.00  0.00    -0.150 OA 
ENDROOT
BRANCH   4   8
HETATM    8  C   UNL     1     -12.702   7.374  71.487  1.00  0.00    -0.409 C  
BRANCH   8   9
HETATM    9  C   UNL     1     -12.451   8.852  71.279  1.00  0.00    -0.321 A  
HETATM   10  C   UNL     1     -13.199   9.801  71.999  1.00  0.00    -0.557 A  
HETATM   11  C   UNL     1     -13.023  11.157  71.743  1.00  0.00    -0.421 A  
HETATM   12  O   UNL     1     -13.738  12.113  72.408  1.00  0.00    -0.538 OA 
HETATM   13  C   UNL     1     -12.108  11.577  70.785  1.00  0.00    -0.309 A  
HETATM   14  H   UNL     1     -13.618  13.039  72.234  1.00  0.00     0.000 HD 
HETATM   15  O   UNL     1     -11.963  12.909  70.518  1.00  0.00    -0.490 OA 
HETATM   16  C   UNL     1     -11.342  10.659  70.083  1.00  0.00    -0.402 A  
HETATM   17  C   UNL     1     -11.507   9.296  70.337  1.00  0.00    -0.255 A  
HETATM   18  H   UNL     1     -11.338  13.195  69.862  1.00  0.00     0.000 HD 
ENDBRANCH   8   9
ENDBRANCH   4   8
TORSDOF 2
ENDMDL
MODEL       82
REMARK 921   NORMALIZED FREE ENERGY PREDICTED BY IDOCK:   -4.57 KCAL/MOL
REMARK 922        TOTAL FREE ENERGY PREDICTED BY IDOCK:   -5.29 KCAL/MOL
REMARK 923 INTER-LIGAND FREE ENERGY PREDICTED BY IDOCK:   -5.11 KCAL/MOL
REMARK 924 INTRA-LIGAND FREE ENERGY PREDICTED BY IDOCK:   -0.19 KCAL/MOL
REMARK 927      BINDING AFFINITY PREDICTED BY RF-SCORE:    0.00 PKD
ROOT
HETATM    1  N   UNL     1     -10.593  14.857  69.623  1.00  0.00    -0.356 NA 
HETATM    2  H2  UNL     1     -10.066  15.619  70.049  1.00  0.00     0.000 HD 
HETATM    3  H1  UNL     1     -11.374  14.583  70.220  1.00  0.00     0.000 HD 
HETATM    4  CA  UNL     1     -10.991  15.212  68.223  1.00  0.00    -0.276 C  
HETATM    5  C   UNL     1     -11.782  14.040  67.617  1.00  0.00    -0.377 C  
HETATM    6  OXT UNL     1     -12.178  13.977  66.464  1.00  0.00    -0.447 OA 
HETATM    7  O   UNL     1     -12.012  13.067  68.538  1.00  0.00    -0.323 OA 
ENDROOT
BRANCH   4   8
HETATM    8  C   UNL     1      -9.812  15.626  67.321  1.00  0.00    -0.225 C  
BRANCH   8   9
HETATM    9  C   UNL     1      -9.622  17.122  67.182  1.00  0.00    -0.255 A  
HETATM   10  C   UNL     1      -8.618  17.630  66.339  1.00  0.00    -0.269 A  
HETATM   11  C   UNL     1      -8.395  19.000  66.279  1.00  0.00    -0.283 A  
HETATM   12  O   UNL     1      -7.420  19.537  65.485  1.00  0.00    -0.420 OA 
HETATM   13  C   UNL     1      -9.162  19.871  67.045  1.00  0.00    -0.365 A  
HETATM   14  H   UNL     1      -7.267  20.473  65.444  1.00  0.00     0.000 HD 
HETATM   15  O   UNL     1      -8.917  21.214  67.004  1.00  0.00    -0.572 OA 
HETATM   16  C   UNL     1     -10.175  19.393  67.862  1.00  0.00    -0.530 A  
HETATM   17  C   UNL     1     -10.412  18.018  67.924  1.00  0.00    -0.408 A  
HETATM   18  H   UNL     1      -9.441  21.808  67.527  1.00  0.00     0.000 HD 
ENDBRANCH   8   9
ENDBRANCH   4   8
TORSDOF 2
ENDMDL
MODEL       83
REMARK 921   NORMALIZED FREE ENERGY PREDICTED BY IDOCK:   -4.54 KCAL/MOL
REMARK 922        TOTAL FREE ENERGY PREDICTED BY IDOCK:   -5.26 KCAL/MOL
REMARK 923 INTER-LIGAND FREE ENERGY PREDICTED BY IDOCK:   -5.04 KCAL/MOL
REMARK 924 INTRA-LIGAND FREE ENERGY PREDICTED BY IDOCK:   -0.22 KCAL/MOL
REMARK 927      BINDING AFFINITY PREDICTED BY RF-SCORE:    0.00 PKD
ROOT
HETATM    1  N   UNL     1      -9.595  15.840  66.662  1.00  0.00    -0.233 NA 
HETATM    2  H2  UNL     1      -9.120  15.068  67.129  1.00  0.00     0.000 HD 
HETATM    3  H1  UNL     1      -8.937  16.593  66.455  1.00  0.00     0.000 HD 
HETATM    4  CA  UNL     1     -10.350  15.347  65.466  1.00  0.00    -0.387 C  
HETATM    5  C   UNL     1     -11.050  16.540  64.791  1.00  0.00    -0.186 C  
HETATM    6  OXT UNL     1     -11.812  16.465  63.841  1.00  0.00    -1.034 OA 
HETATM    7  O   UNL     1     -10.698  17.716  65.375  1.00  0.00    -0.618 OA 
ENDROOT
BRANCH   4   8
HETATM    8  C   UNL     1     -11.344  14.210  65.778  1.00  0.00    -0.317 C  
BRANCH   8   9
HETATM    9  C   UNL     1     -11.020  12.892  65.107  1.00  0.00    -0.316 A  
HETATM   10  C   UNL     1     -10.684  11.770  65.886  1.00  0.00    -0.328 A  
HETATM   11  C   UNL     1     -10.306  10.586  65.263  1.00  0.00    -0.229 A  
HETATM   12  O   UNL     1      -9.957   9.475  65.980  1.00  0.00    -0.278 OA 
HETATM   13  C   UNL     1     -10.265  10.504  63.876  1.00  0.00    -0.129 A  
HETATM   14  H   UNL     1      -9.700   8.666  65.555  1.00  0.00     0.000 HD 
HETATM   15  O   UNL     1      -9.864   9.347  63.272  1.00  0.00    -0.212 OA 
HETATM   16  C   UNL     1     -10.618  11.591  63.090  1.00  0.00    -0.323 A  
HETATM   17  C   UNL     1     -11.005  12.783  63.706  1.00  0.00    -0.445 A  
HETATM   18  H   UNL     1      -9.836   9.292  62.324  1.00  0.00     0.000 HD 
ENDBRANCH   8   9
ENDBRANCH   4   8
TORSDOF 2
ENDMDL
MODEL       84
REMARK 921   NORMALIZED FREE ENERGY PREDICTED BY IDOCK:   -4.54 KCAL/MOL
REMARK 922        TOTAL FREE ENERGY PREDICTED BY IDOCK:   -5.25 KCAL/MOL
REMARK 923 INTER-LIGAND FREE ENERGY PREDICTED BY IDOCK:   -5.05 KCAL/MOL
REMARK 924 INTRA-LIGAND FREE ENERGY PREDICTED BY IDOCK:   -0.21 KCAL/MOL
REMARK 927      BINDING AFFINITY PREDICTED BY RF-SCORE:    0.00 PKD
ROOT
HETATM    1  N   UNL     1      -9.873   9.210  71.673  1.00  0.00    -0.286 NA 
HETATM    2  H2  UNL     1      -9.262   9.848  71.163  1.00  0.00     0.000 HD 
HETATM    3  H1  UNL     1      -9.541   9.085  72.630  1.00  0.00     0.000 HD 
HETATM    4  CA  UNL     1     -11.299   9.657  71.577  1.00  0.00    -0.350 C  
HETATM    5  C   UNL     1     -12.185   8.671  72.359  1.00  0.00    -0.349 C  
HETATM    6  OXT UNL     1     -13.404   8.704  72.408  1.00  0.00    -0.371 OA 
HETATM    7  O   UNL     1     -11.437   7.749  73.019  1.00  0.00    -0.372 OA 
ENDROOT
BRANCH   4   8
HETATM    8  C   UNL     1     -11.801   9.846  70.131  1.00  0.00    -0.191 C  
BRANCH   8   9
HETATM    9  C   UNL     1     -11.824  11.284  69.658  1.00  0.00    -0.430 A  
HETATM   10  C   UNL     1     -12.150  12.316  70.555  1.00  0.00    -0.371 A  
HETATM   11  C   UNL     1     -12.251  13.624  70.096  1.00  0.00    -0.342 A  
HETATM   12  O   UNL     1     -12.579  14.657  70.930  1.00  0.00    -0.302 OA 
HETATM   13  C   UNL     1     -12.027  13.917  68.756  1.00  0.00    -0.358 A  
HETATM   14  H   UNL     1     -12.648  15.551  70.616  1.00  0.00     0.000 HD 
HETATM   15  O   UNL     1     -12.157  15.200  68.306  1.00  0.00    -0.543 OA 
HETATM   16  C   UNL     1     -11.679  12.918  67.860  1.00  0.00    -0.405 A  
HETATM   17  C   UNL     1     -11.568  11.601  68.312  1.00  0.00    -0.378 A  
HETATM   18  H   UNL     1     -12.004  15.399  67.390  1.00  0.00     0.000 HD 
ENDBRANCH   8   9
ENDBRANCH   4   8
TORSDOF 2
ENDMDL
MODEL       85
REMARK 921   NORMALIZED FREE ENERGY PREDICTED BY IDOCK:   -4.53 KCAL/MOL
REMARK 922        TOTAL FREE ENERGY PREDICTED BY IDOCK:   -5.25 KCAL/MOL
REMARK 923 INTER-LIGAND FREE ENERGY PREDICTED BY IDOCK:   -5.01 KCAL/MOL
REMARK 924 INTRA-LIGAND FREE ENERGY PREDICTED BY IDOCK:   -0.23 KCAL/MOL
REMARK 927      BINDING AFFINITY PREDICTED BY RF-SCORE:    0.00 PKD
ROOT
HETATM    1  N   UNL     1     -13.042   8.565  72.029  1.00  0.00    -0.355 NA 
HETATM    2  H2  UNL     1     -13.937   8.823  71.615  1.00  0.00     0.000 HD 
HETATM    3  H1  UNL     1     -12.956   7.550  72.094  1.00  0.00     0.000 HD 
HETATM    4  CA  UNL     1     -11.914   9.226  71.298  1.00  0.00    -0.340 C  
HETATM    5  C   UNL     1     -10.584   8.810  71.953  1.00  0.00    -0.354 C  
HETATM    6  OXT UNL     1      -9.483   9.240  71.647  1.00  0.00    -0.294 OA 
HETATM    7  O   UNL     1     -10.778   7.875  72.919  1.00  0.00    -0.341 OA 
ENDROOT
BRANCH   4   8
HETATM    8  C   UNL     1     -12.042  10.759  71.200  1.00  0.00    -0.415 C  
BRANCH   8   9
HETATM    9  C   UNL     1     -11.802  11.322  69.815  1.00  0.00    -0.437 A  
HETATM   10  C   UNL     1     -12.112  12.665  69.537  1.00  0.00    -0.253 A  
HETATM   11  C   UNL     1     -11.967  13.153  68.244  1.00  0.00    -0.291 A  
HETATM   12  O   UNL     1     -12.270  14.447  67.925  1.00  0.00    -0.595 OA 
HETATM   13  C   UNL     1     -11.512  12.322  67.227  1.00  0.00    -0.357 A  
HETATM   14  H   UNL     1     -12.171  14.782  67.041  1.00  0.00     0.000 HD 
HETATM   15  O   UNL     1     -11.401  12.801  65.952  1.00  0.00    -0.299 OA 
HETATM   16  C   UNL     1     -11.176  11.002  67.485  1.00  0.00    -0.372 A  
HETATM   17  C   UNL     1     -11.311  10.504  68.782  1.00  0.00    -0.310 A  
HETATM   18  H   UNL     1     -11.091  12.233  65.257  1.00  0.00     0.000 HD 
ENDBRANCH   8   9
ENDBRANCH   4   8
TORSDOF 2
ENDMDL
MODEL       86
REMARK 921   NORMALIZED FREE ENERGY PREDICTED BY IDOCK:   -4.52 KCAL/MOL
REMARK 922        TOTAL FREE ENERGY PREDICTED BY IDOCK:   -5.23 KCAL/MOL
REMARK 923 INTER-LIGAND FREE ENERGY PREDICTED BY IDOCK:   -5.04 KCAL/MOL
REMARK 924 INTRA-LIGAND FREE ENERGY PREDICTED BY IDOCK:   -0.19 KCAL/MOL
REMARK 927      BINDING AFFINITY PREDICTED BY RF-SCORE:    0.00 PKD
ROOT
HETATM    1  N   UNL     1      -8.670   9.230  68.366  1.00  0.00    -0.128 NA 
HETATM    2  H2  UNL     1      -8.648   8.277  68.729  1.00  0.00     0.000 HD 
HETATM    3  H1  UNL     1      -8.529   9.231  67.355  1.00  0.00     0.000 HD 
HETATM    4  CA  UNL     1      -9.915   9.934  68.808  1.00  0.00    -0.173 C  
HETATM    5  C   UNL     1      -9.908  11.364  68.240  1.00  0.00    -0.200 C  
HETATM    6  OXT UNL     1     -10.740  12.224  68.483  1.00  0.00    -0.223 OA 
HETATM    7  O   UNL     1      -8.857  11.560  67.401  1.00  0.00    -0.151 OA 
ENDROOT
BRANCH   4   8
HETATM    8  C   UNL     1     -10.129   9.932  70.335  1.00  0.00    -0.258 C  
BRANCH   8   9
HETATM    9  C   UNL     1     -11.257   9.042  70.810  1.00  0.00    -0.329 A  
HETATM   10  C   UNL     1     -12.258   9.561  71.649  1.00  0.00    -0.477 A  
HETATM   11  C   UNL     1     -13.245   8.719  72.150  1.00  0.00    -0.414 A  
HETATM   12  O   UNL     1     -14.229   9.177  72.981  1.00  0.00    -1.082 OA 
HETATM   13  C   UNL     1     -13.249   7.368  71.820  1.00  0.00    -0.318 A  
HETATM   14  H   UNL     1     -14.904   8.602  73.322  1.00  0.00     0.000 HD 
HETATM   15  O   UNL     1     -14.204   6.542  72.339  1.00  0.00    -0.621 OA 
HETATM   16  C   UNL     1     -12.286   6.842  70.972  1.00  0.00    -0.401 A  
HETATM   17  C   UNL     1     -11.295   7.681  70.459  1.00  0.00    -0.266 A  
HETATM   18  H   UNL     1     -14.206   5.619  72.113  1.00  0.00     0.000 HD 
ENDBRANCH   8   9
ENDBRANCH   4   8
TORSDOF 2
ENDMDL
MODEL       87
REMARK 921   NORMALIZED FREE ENERGY PREDICTED BY IDOCK:   -4.52 KCAL/MOL
REMARK 922        TOTAL FREE ENERGY PREDICTED BY IDOCK:   -5.23 KCAL/MOL
REMARK 923 INTER-LIGAND FREE ENERGY PREDICTED BY IDOCK:   -4.99 KCAL/MOL
REMARK 924 INTRA-LIGAND FREE ENERGY PREDICTED BY IDOCK:   -0.24 KCAL/MOL
REMARK 927      BINDING AFFINITY PREDICTED BY RF-SCORE:    0.00 PKD
ROOT
HETATM    1  N   UNL     1      -9.405   8.910  71.736  1.00  0.00    -0.313 NA 
HETATM    2  H2  UNL     1      -8.677   9.435  71.251  1.00  0.00     0.000 HD 
HETATM    3  H1  UNL     1      -9.225   8.893  72.740  1.00  0.00     0.000 HD 
HETATM    4  CA  UNL     1     -10.761   9.428  71.368  1.00  0.00    -0.337 C  
HETATM    5  C   UNL     1     -11.828   8.612  72.119  1.00  0.00    -0.377 C  
HETATM    6  OXT UNL     1     -13.034   8.727  71.976  1.00  0.00    -0.341 OA 
HETATM    7  O   UNL     1     -11.260   7.740  72.994  1.00  0.00    -0.405 OA 
ENDROOT
BRANCH   4   8
HETATM    8  C   UNL     1     -11.032   9.455  69.851  1.00  0.00    -0.251 C  
BRANCH   8   9
HETATM    9  C   UNL     1     -11.444  10.808  69.310  1.00  0.00    -0.369 A  
HETATM   10  C   UNL     1     -11.549  11.009  67.923  1.00  0.00    -0.306 A  
HETATM   11  C   UNL     1     -11.847  12.275  67.429  1.00  0.00    -0.257 A  
HETATM   12  O   UNL     1     -11.944  12.520  66.088  1.00  0.00    -0.495 OA 
HETATM   13  C   UNL     1     -12.046  13.339  68.301  1.00  0.00    -0.211 A  
HETATM   14  H   UNL     1     -12.148  13.384  65.750  1.00  0.00     0.000 HD 
HETATM   15  O   UNL     1     -12.308  14.585  67.808  1.00  0.00    -0.619 OA 
HETATM   16  C   UNL     1     -11.973  13.155  69.673  1.00  0.00    -0.370 A  
HETATM   17  C   UNL     1     -11.681  11.887  70.179  1.00  0.00    -0.337 A  
HETATM   18  H   UNL     1     -12.444  15.312  68.404  1.00  0.00     0.000 HD 
ENDBRANCH   8   9
ENDBRANCH   4   8
TORSDOF 2
ENDMDL
MODEL       88
REMARK 921   NORMALIZED FREE ENERGY PREDICTED BY IDOCK:   -4.43 KCAL/MOL
REMARK 922        TOTAL FREE ENERGY PREDICTED BY IDOCK:   -5.13 KCAL/MOL
REMARK 923 INTER-LIGAND FREE ENERGY PREDICTED BY IDOCK:   -4.89 KCAL/MOL
REMARK 924 INTRA-LIGAND FREE ENERGY PREDICTED BY IDOCK:   -0.25 KCAL/MOL
REMARK 927      BINDING AFFINITY PREDICTED BY RF-SCORE:    0.00 PKD
ROOT
HETATM    1  N   UNL     1     -11.005   9.710  67.280  1.00  0.00    -0.321 NA 
HETATM    2  H2  UNL     1     -10.598   8.775  67.263  1.00  0.00     0.000 HD 
HETATM    3  H1  UNL     1     -11.833   9.751  66.685  1.00  0.00     0.000 HD 
HETATM    4  CA  UNL     1     -11.246  10.154  68.690  1.00  0.00    -0.168 C  
HETATM    5  C   UNL     1     -11.859  11.565  68.671  1.00  0.00    -0.318 C  
HETATM    6  OXT UNL     1     -12.097  12.244  69.657  1.00  0.00    -0.279 OA 
HETATM    7  O   UNL     1     -12.130  11.971  67.403  1.00  0.00    -0.566 OA 
ENDROOT
BRANCH   4   8
HETATM    8  C   UNL     1      -9.996  10.091  69.589  1.00  0.00    -0.263 C  
BRANCH   8   9
HETATM    9  C   UNL     1     -10.148   9.217  70.816  1.00  0.00    -0.358 A  
HETATM   10  C   UNL     1     -11.422   8.771  71.209  1.00  0.00    -0.355 A  
HETATM   11  C   UNL     1     -11.565   8.038  72.382  1.00  0.00    -0.390 A  
HETATM   12  O   UNL     1     -12.786   7.596  72.810  1.00  0.00    -0.417 OA 
HETATM   13  C   UNL     1     -10.455   7.742  73.165  1.00  0.00    -0.349 A  
HETATM   14  H   UNL     1     -12.884   7.096  73.612  1.00  0.00     0.000 HD 
HETATM   15  O   UNL     1     -10.608   7.049  74.331  1.00  0.00    -0.519 OA 
HETATM   16  C   UNL     1      -9.187   8.151  72.782  1.00  0.00    -0.341 A  
HETATM   17  C   UNL     1      -9.031   8.881  71.602  1.00  0.00    -0.243 A  
HETATM   18  H   UNL     1      -9.849   6.847  74.866  1.00  0.00     0.000 HD 
ENDBRANCH   8   9
ENDBRANCH   4   8
TORSDOF 2
ENDMDL
MODEL       89
REMARK 921   NORMALIZED FREE ENERGY PREDICTED BY IDOCK:   -4.42 KCAL/MOL
REMARK 922        TOTAL FREE ENERGY PREDICTED BY IDOCK:   -5.12 KCAL/MOL
REMARK 923 INTER-LIGAND FREE ENERGY PREDICTED BY IDOCK:   -4.89 KCAL/MOL
REMARK 924 INTRA-LIGAND FREE ENERGY PREDICTED BY IDOCK:   -0.23 KCAL/MOL
REMARK 927      BINDING AFFINITY PREDICTED BY RF-SCORE:    0.00 PKD
ROOT
HETATM    1  N   UNL     1     -14.116   8.983  73.099  1.00  0.00    -1.223 NA 
HETATM    2  H2  UNL     1     -14.055   9.952  73.414  1.00  0.00     0.000 HD 
HETATM    3  H1  UNL     1     -15.092   8.705  72.987  1.00  0.00     0.000 HD 
HETATM    4  CA  UNL     1     -13.278   8.773  71.876  1.00  0.00    -0.381 C  
HETATM    5  C   UNL     1     -13.399   7.303  71.436  1.00  0.00    -0.331 C  
HETATM    6  OXT UNL     1     -12.775   6.787  70.522  1.00  0.00    -0.137 OA 
HETATM    7  O   UNL     1     -14.315   6.635  72.184  1.00  0.00    -0.191 OA 
ENDROOT
BRANCH   4   8
HETATM    8  C   UNL     1     -11.805   9.194  72.046  1.00  0.00    -0.407 C  
BRANCH   8   9
HETATM    9  C   UNL     1     -11.209   9.892  70.842  1.00  0.00    -0.433 A  
HETATM   10  C   UNL     1      -9.955   9.492  70.345  1.00  0.00    -0.325 A  
HETATM   11  C   UNL     1      -9.375  10.190  69.292  1.00  0.00    -0.215 A  
HETATM   12  O   UNL     1      -8.153   9.847  68.787  1.00  0.00    -0.095 OA 
HETATM   13  C   UNL     1     -10.031  11.277  68.725  1.00  0.00    -0.193 A  
HETATM   14  H   UNL     1      -7.756  10.323  68.067  1.00  0.00     0.000 HD 
HETATM   15  O   UNL     1      -9.442  11.977  67.710  1.00  0.00    -0.179 OA 
HETATM   16  C   UNL     1     -11.279  11.671  69.182  1.00  0.00    -0.325 A  
HETATM   17  C   UNL     1     -11.873  10.972  70.235  1.00  0.00    -0.456 A  
HETATM   18  H   UNL     1      -9.890  12.719  67.324  1.00  0.00     0.000 HD 
ENDBRANCH   8   9
ENDBRANCH   4   8
TORSDOF 2
ENDMDL
MODEL       90
REMARK 921   NORMALIZED FREE ENERGY PREDICTED BY IDOCK:   -4.40 KCAL/MOL
REMARK 922        TOTAL FREE ENERGY PREDICTED BY IDOCK:   -5.10 KCAL/MOL
REMARK 923 INTER-LIGAND FREE ENERGY PREDICTED BY IDOCK:   -4.91 KCAL/MOL
REMARK 924 INTRA-LIGAND FREE ENERGY PREDICTED BY IDOCK:   -0.19 KCAL/MOL
REMARK 927      BINDING AFFINITY PREDICTED BY RF-SCORE:    0.00 PKD
ROOT
HETATM    1  N   UNL     1      -9.854  10.484  69.787  1.00  0.00    -0.431 NA 
HETATM    2  H2  UNL     1      -9.360  10.992  69.054  1.00  0.00     0.000 HD 
HETATM    3  H1  UNL     1      -9.286  10.434  70.633  1.00  0.00     0.000 HD 
HETATM    4  CA  UNL     1     -11.217  11.066  70.003  1.00  0.00    -0.224 C  
HETATM    5  C   UNL     1     -11.927  10.273  71.115  1.00  0.00    -0.376 C  
HETATM    6  OXT UNL     1     -13.082  10.440  71.473  1.00  0.00    -0.390 OA 
HETATM    7  O   UNL     1     -11.097   9.357  71.679  1.00  0.00    -0.369 OA 
ENDROOT
BRANCH   4   8
HETATM    8  C   UNL     1     -12.076  11.143  68.725  1.00  0.00    -0.232 C  
BRANCH   8   9
HETATM    9  C   UNL     1     -11.475  11.977  67.614  1.00  0.00    -0.392 A  
HETATM   10  C   UNL     1     -11.398  13.374  67.745  1.00  0.00    -0.325 A  
HETATM   11  C   UNL     1     -10.922  14.142  66.688  1.00  0.00    -0.303 A  
HETATM   12  O   UNL     1     -10.844  15.504  66.765  1.00  0.00    -0.311 OA 
HETATM   13  C   UNL     1     -10.517  13.533  65.506  1.00  0.00    -0.299 A  
HETATM   14  H   UNL     1     -10.518  16.029  66.043  1.00  0.00     0.000 HD 
HETATM   15  O   UNL     1     -10.078  14.295  64.461  1.00  0.00    -0.628 OA 
HETATM   16  C   UNL     1     -10.559  12.154  65.366  1.00  0.00    -0.309 A  
HETATM   17  C   UNL     1     -11.030  11.374  66.424  1.00  0.00    -0.315 A  
HETATM   18  H   UNL     1      -9.802  13.879  63.653  1.00  0.00     0.000 HD 
ENDBRANCH   8   9
ENDBRANCH   4   8
TORSDOF 2
ENDMDL
MODEL       91
REMARK 921   NORMALIZED FREE ENERGY PREDICTED BY IDOCK:   -4.37 KCAL/MOL
REMARK 922        TOTAL FREE ENERGY PREDICTED BY IDOCK:   -5.07 KCAL/MOL
REMARK 923 INTER-LIGAND FREE ENERGY PREDICTED BY IDOCK:   -4.93 KCAL/MOL
REMARK 924 INTRA-LIGAND FREE ENERGY PREDICTED BY IDOCK:   -0.14 KCAL/MOL
REMARK 927      BINDING AFFINITY PREDICTED BY RF-SCORE:    0.00 PKD
ROOT
HETATM    1  N   UNL     1     -10.860   8.337  67.155  1.00  0.00    -0.446 NA 
HETATM    2  H2  UNL     1     -10.814   8.097  66.165  1.00  0.00     0.000 HD 
HETATM    3  H1  UNL     1     -11.181   7.538  67.703  1.00  0.00     0.000 HD 
HETATM    4  CA  UNL     1      -9.556   8.909  67.620  1.00  0.00    -0.148 C  
HETATM    5  C   UNL     1      -9.669   9.257  69.115  1.00  0.00    -0.164 C  
HETATM    6  OXT UNL     1      -8.809   9.817  69.775  1.00  0.00    -0.193 OA 
HETATM    7  O   UNL     1     -10.855   8.843  69.632  1.00  0.00    -0.233 OA 
ENDROOT
BRANCH   4   8
HETATM    8  C   UNL     1      -9.071  10.116  66.792  1.00  0.00    -0.159 C  
BRANCH   8   9
HETATM    9  C   UNL     1     -10.179  11.002  66.265  1.00  0.00    -0.295 A  
HETATM   10  C   UNL     1     -10.439  11.059  64.884  1.00  0.00    -0.371 A  
HETATM   11  C   UNL     1     -11.402  11.936  64.398  1.00  0.00    -0.326 A  
HETATM   12  O   UNL     1     -11.677  12.035  63.063  1.00  0.00    -0.683 OA 
HETATM   13  C   UNL     1     -12.111  12.753  65.271  1.00  0.00    -0.457 A  
HETATM   14  H   UNL     1     -12.335  12.634  62.730  1.00  0.00     0.000 HD 
HETATM   15  O   UNL     1     -13.034  13.634  64.783  1.00  0.00    -0.685 OA 
HETATM   16  C   UNL     1     -11.889  12.694  66.638  1.00  0.00    -0.449 A  
HETATM   17  C   UNL     1     -10.929  11.811  67.137  1.00  0.00    -0.326 A  
HETATM   18  H   UNL     1     -13.518  14.192  65.380  1.00  0.00     0.000 HD 
ENDBRANCH   8   9
ENDBRANCH   4   8
TORSDOF 2
ENDMDL
MODEL       92
REMARK 921   NORMALIZED FREE ENERGY PREDICTED BY IDOCK:   -4.37 KCAL/MOL
REMARK 922        TOTAL FREE ENERGY PREDICTED BY IDOCK:   -5.06 KCAL/MOL
REMARK 923 INTER-LIGAND FREE ENERGY PREDICTED BY IDOCK:   -4.94 KCAL/MOL
REMARK 924 INTRA-LIGAND FREE ENERGY PREDICTED BY IDOCK:   -0.12 KCAL/MOL
REMARK 927      BINDING AFFINITY PREDICTED BY RF-SCORE:    0.00 PKD
ROOT
HETATM    1  N   UNL     1     -11.064   7.385  73.548  1.00  0.00    -0.587 NA 
HETATM    2  H2  UNL     1     -11.887   7.711  74.053  1.00  0.00     0.000 HD 
HETATM    3  H1  UNL     1     -10.367   7.019  74.196  1.00  0.00     0.000 HD 
HETATM    4  CA  UNL     1     -11.456   6.425  72.468  1.00  0.00    -0.247 C  
HETATM    5  C   UNL     1     -10.187   5.958  71.731  1.00  0.00    -0.203 C  
HETATM    6  OXT UNL     1     -10.169   5.238  70.745  1.00  0.00    -0.220 OA 
HETATM    7  O   UNL     1      -9.064   6.435  72.327  1.00  0.00    -0.140 OA 
ENDROOT
BRANCH   4   8
HETATM    8  C   UNL     1     -12.509   6.978  71.488  1.00  0.00    -0.426 C  
BRANCH   8   9
HETATM    9  C   UNL     1     -12.442   8.476  71.274  1.00  0.00    -0.275 A  
HETATM   10  C   UNL     1     -11.392   9.034  70.524  1.00  0.00    -0.282 A  
HETATM   11  C   UNL     1     -11.289  10.415  70.401  1.00  0.00    -0.337 A  
HETATM   12  O   UNL     1     -10.277  11.002  69.694  1.00  0.00    -0.435 OA 
HETATM   13  C   UNL     1     -12.222  11.245  71.011  1.00  0.00    -0.311 A  
HETATM   14  H   UNL     1     -10.207  11.945  69.609  1.00  0.00     0.000 HD 
HETATM   15  O   UNL     1     -12.098  12.601  70.911  1.00  0.00    -0.456 OA 
HETATM   16  C   UNL     1     -13.280  10.714  71.733  1.00  0.00    -0.526 A  
HETATM   17  C   UNL     1     -13.396   9.328  71.857  1.00  0.00    -0.498 A  
HETATM   18  H   UNL     1     -12.736  13.168  71.329  1.00  0.00     0.000 HD 
ENDBRANCH   8   9
ENDBRANCH   4   8
TORSDOF 2
ENDMDL
MODEL       93
REMARK 921   NORMALIZED FREE ENERGY PREDICTED BY IDOCK:   -4.36 KCAL/MOL
REMARK 922        TOTAL FREE ENERGY PREDICTED BY IDOCK:   -5.06 KCAL/MOL
REMARK 923 INTER-LIGAND FREE ENERGY PREDICTED BY IDOCK:   -4.83 KCAL/MOL
REMARK 924 INTRA-LIGAND FREE ENERGY PREDICTED BY IDOCK:   -0.23 KCAL/MOL
REMARK 927      BINDING AFFINITY PREDICTED BY RF-SCORE:    0.00 PKD
ROOT
HETATM    1  N   UNL     1      -8.491   6.499  68.585  1.00  0.00    -0.121 NA 
HETATM    2  H2  UNL     1      -8.266   6.064  69.480  1.00  0.00     0.000 HD 
HETATM    3  H1  UNL     1      -8.505   5.800  67.842  1.00  0.00     0.000 HD 
HETATM    4  CA  UNL     1      -9.751   7.301  68.691  1.00  0.00    -0.146 C  
HETATM    5  C   UNL     1     -10.053   7.938  67.323  1.00  0.00    -0.238 C  
HETATM    6  OXT UNL     1     -10.963   8.719  67.094  1.00  0.00    -0.105 OA 
HETATM    7  O   UNL     1      -9.183   7.507  66.373  1.00  0.00    -0.166 OA 
ENDROOT
BRANCH   4   8
HETATM    8  C   UNL     1      -9.729   8.357  69.815  1.00  0.00    -0.180 C  
BRANCH   8   9
HETATM    9  C   UNL     1     -11.016   8.459  70.605  1.00  0.00    -0.266 A  
HETATM   10  C   UNL     1     -11.529   9.720  70.956  1.00  0.00    -0.458 A  
HETATM   11  C   UNL     1     -12.666   9.807  71.752  1.00  0.00    -0.426 A  
HETATM   12  O   UNL     1     -13.190  11.011  72.130  1.00  0.00    -0.591 OA 
HETATM   13  C   UNL     1     -13.300   8.653  72.197  1.00  0.00    -0.396 A  
HETATM   14  H   UNL     1     -13.967  11.071  72.673  1.00  0.00     0.000 HD 
HETATM   15  O   UNL     1     -14.398   8.745  73.003  1.00  0.00    -1.089 OA 
HETATM   16  C   UNL     1     -12.826   7.400  71.840  1.00  0.00    -0.305 A  
HETATM   17  C   UNL     1     -11.689   7.302  71.036  1.00  0.00    -0.340 A  
HETATM   18  H   UNL     1     -14.831   7.956  73.308  1.00  0.00     0.000 HD 
ENDBRANCH   8   9
ENDBRANCH   4   8
TORSDOF 2
ENDMDL
MODEL       94
REMARK 921   NORMALIZED FREE ENERGY PREDICTED BY IDOCK:   -4.33 KCAL/MOL
REMARK 922        TOTAL FREE ENERGY PREDICTED BY IDOCK:   -5.03 KCAL/MOL
REMARK 923 INTER-LIGAND FREE ENERGY PREDICTED BY IDOCK:   -4.78 KCAL/MOL
REMARK 924 INTRA-LIGAND FREE ENERGY PREDICTED BY IDOCK:   -0.24 KCAL/MOL
REMARK 927      BINDING AFFINITY PREDICTED BY RF-SCORE:    0.00 PKD
ROOT
HETATM    1  N   UNL     1      -9.641  20.697  66.822  1.00  0.00    -0.665 NA 
HETATM    2  H2  UNL     1     -10.633  20.763  66.598  1.00  0.00     0.000 HD 
HETATM    3  H1  UNL     1      -9.368  21.441  67.464  1.00  0.00     0.000 HD 
HETATM    4  CA  UNL     1      -9.301  19.320  67.305  1.00  0.00    -0.306 C  
HETATM    5  C   UNL     1      -7.798  19.263  67.631  1.00  0.00    -0.262 C  
HETATM    6  OXT UNL     1      -7.187  18.261  67.969  1.00  0.00    -0.226 OA 
HETATM    7  O   UNL     1      -7.219  20.487  67.517  1.00  0.00    -0.293 OA 
ENDROOT
BRANCH   4   8
HETATM    8  C   UNL     1      -9.713  18.195  66.335  1.00  0.00    -0.329 C  
BRANCH   8   9
HETATM    9  C   UNL     1     -10.336  16.987  67.002  1.00  0.00    -0.304 A  
HETATM   10  C   UNL     1     -10.461  15.779  66.295  1.00  0.00    -0.315 A  
HETATM   11  C   UNL     1     -11.108  14.698  66.883  1.00  0.00    -0.333 A  
HETATM   12  O   UNL     1     -11.266  13.509  66.228  1.00  0.00    -0.292 OA 
HETATM   13  C   UNL     1     -11.626  14.806  68.169  1.00  0.00    -0.332 A  
HETATM   14  H   UNL     1     -11.708  12.771  66.629  1.00  0.00     0.000 HD 
HETATM   15  O   UNL     1     -12.287  13.750  68.729  1.00  0.00    -0.425 OA 
HETATM   16  C   UNL     1     -11.490  15.980  68.893  1.00  0.00    -0.362 A  
HETATM   17  C   UNL     1     -10.836  17.069  68.313  1.00  0.00    -0.341 A  
HETATM   18  H   UNL     1     -12.641  13.824  69.608  1.00  0.00     0.000 HD 
ENDBRANCH   8   9
ENDBRANCH   4   8
TORSDOF 2
ENDMDL
MODEL       95
REMARK 921   NORMALIZED FREE ENERGY PREDICTED BY IDOCK:   -4.33 KCAL/MOL
REMARK 922        TOTAL FREE ENERGY PREDICTED BY IDOCK:   -5.02 KCAL/MOL
REMARK 923 INTER-LIGAND FREE ENERGY PREDICTED BY IDOCK:   -4.78 KCAL/MOL
REMARK 924 INTRA-LIGAND FREE ENERGY PREDICTED BY IDOCK:   -0.24 KCAL/MOL
REMARK 927      BINDING AFFINITY PREDICTED BY RF-SCORE:    0.00 PKD
ROOT
HETATM    1  N   UNL     1     -13.736  15.349  70.852  1.00  0.00    -0.814 NA 
HETATM    2  H2  UNL     1     -14.551  14.949  70.389  1.00  0.00     0.000 HD 
HETATM    3  H1  UNL     1     -13.720  15.089  71.838  1.00  0.00     0.000 HD 
HETATM    4  CA  UNL     1     -12.483  14.996  70.109  1.00  0.00    -0.311 C  
HETATM    5  C   UNL     1     -11.279  15.618  70.839  1.00  0.00    -0.369 C  
HETATM    6  OXT UNL     1     -10.124  15.588  70.446  1.00  0.00    -0.206 OA 
HETATM    7  O   UNL     1     -11.655  16.201  72.007  1.00  0.00    -0.455 OA 
ENDROOT
BRANCH   4   8
HETATM    8  C   UNL     1     -12.507  15.388  68.619  1.00  0.00     0.363 C  
BRANCH   8   9
HETATM    9  C   UNL     1     -12.011  14.311  67.678  1.00  0.00    -0.400 A  
HETATM   10  C   UNL     1     -11.715  14.625  66.340  1.00  0.00    -0.329 A  
HETATM   11  C   UNL     1     -11.340  13.616  65.460  1.00  0.00    -0.298 A  
HETATM   12  O   UNL     1     -11.058  13.873  64.148  1.00  0.00    -0.583 OA 
HETATM   13  C   UNL     1     -11.251  12.300  65.899  1.00  0.00    -0.340 A  
HETATM   14  H   UNL     1     -10.802  13.184  63.546  1.00  0.00     0.000 HD 
HETATM   15  O   UNL     1     -10.912  11.309  65.022  1.00  0.00    -0.248 OA 
HETATM   16  C   UNL     1     -11.513  11.973  67.221  1.00  0.00    -0.403 A  
HETATM   17  C   UNL     1     -11.884  12.980  68.114  1.00  0.00    -0.381 A  
HETATM   18  H   UNL     1     -10.851  10.410  65.322  1.00  0.00     0.000 HD 
ENDBRANCH   8   9
ENDBRANCH   4   8
TORSDOF 2
ENDMDL
MODEL       96
REMARK 921   NORMALIZED FREE ENERGY PREDICTED BY IDOCK:   -4.28 KCAL/MOL
REMARK 922        TOTAL FREE ENERGY PREDICTED BY IDOCK:   -4.97 KCAL/MOL
REMARK 923 INTER-LIGAND FREE ENERGY PREDICTED BY IDOCK:   -4.97 KCAL/MOL
REMARK 924 INTRA-LIGAND FREE ENERGY PREDICTED BY IDOCK:    0.00 KCAL/MOL
REMARK 927      BINDING AFFINITY PREDICTED BY RF-SCORE:    0.00 PKD
ROOT
HETATM    1  N   UNL     1     -11.745   6.713  70.969  1.00  0.00    -0.344 NA 
HETATM    2  H2  UNL     1     -10.777   6.396  70.910  1.00  0.00     0.000 HD 
HETATM    3  H1  UNL     1     -12.372   5.924  71.125  1.00  0.00     0.000 HD 
HETATM    4  CA  UNL     1     -11.879   7.808  71.982  1.00  0.00    -0.307 C  
HETATM    5  C   UNL     1     -13.350   8.257  72.039  1.00  0.00    -0.313 C  
HETATM    6  OXT UNL     1     -13.778   9.187  72.704  1.00  0.00    -0.470 OA 
HETATM    7  O   UNL     1     -14.139   7.469  71.263  1.00  0.00    -0.382 OA 
ENDROOT
BRANCH   4   8
HETATM    8  C   UNL     1     -10.931   9.000  71.747  1.00  0.00    -0.443 C  
BRANCH   8   9
HETATM    9  C   UNL     1     -11.197   9.771  70.471  1.00  0.00    -0.381 A  
HETATM   10  C   UNL     1     -10.729   9.278  69.240  1.00  0.00    -0.211 A  
HETATM   11  C   UNL     1     -10.904  10.031  68.084  1.00  0.00    -0.255 A  
HETATM   12  O   UNL     1     -10.452   9.598  66.868  1.00  0.00    -0.242 OA 
HETATM   13  C   UNL     1     -11.543  11.264  68.139  1.00  0.00    -0.289 A  
HETATM   14  H   UNL     1     -10.572  10.111  66.078  1.00  0.00     0.000 HD 
HETATM   15  O   UNL     1     -11.684  12.011  67.004  1.00  0.00    -0.510 OA 
HETATM   16  C   UNL     1     -12.035  11.756  69.338  1.00  0.00    -0.361 A  
HETATM   17  C   UNL     1     -11.870  11.005  70.504  1.00  0.00    -0.464 A  
HETATM   18  H   UNL     1     -12.120  12.854  67.042  1.00  0.00     0.000 HD 
ENDBRANCH   8   9
ENDBRANCH   4   8
TORSDOF 2
ENDMDL
MODEL       97
REMARK 921   NORMALIZED FREE ENERGY PREDICTED BY IDOCK:   -4.28 KCAL/MOL
REMARK 922        TOTAL FREE ENERGY PREDICTED BY IDOCK:   -4.97 KCAL/MOL
REMARK 923 INTER-LIGAND FREE ENERGY PREDICTED BY IDOCK:   -4.77 KCAL/MOL
REMARK 924 INTRA-LIGAND FREE ENERGY PREDICTED BY IDOCK:   -0.20 KCAL/MOL
REMARK 927      BINDING AFFINITY PREDICTED BY RF-SCORE:    0.00 PKD
ROOT
HETATM    1  N   UNL     1     -11.900  12.418  65.735  1.00  0.00    -0.478 NA 
HETATM    2  H2  UNL     1     -12.762  12.844  66.074  1.00  0.00     0.000 HD 
HETATM    3  H1  UNL     1     -11.489  12.982  64.991  1.00  0.00     0.000 HD 
HETATM    4  CA  UNL     1     -10.968  12.140  66.875  1.00  0.00    -0.270 C  
HETATM    5  C   UNL     1      -9.682  11.499  66.323  1.00  0.00    -0.215 C  
HETATM    6  OXT UNL     1      -8.758  11.077  66.999  1.00  0.00    -0.136 OA 
HETATM    7  O   UNL     1      -9.685  11.473  64.964  1.00  0.00    -0.242 OA 
ENDROOT
BRANCH   4   8
HETATM    8  C   UNL     1     -11.588  11.288  67.999  1.00  0.00    -0.343 C  
BRANCH   8   9
HETATM    9  C   UNL     1     -11.995  12.072  69.229  1.00  0.00    -0.329 A  
HETATM   10  C   UNL     1     -12.491  11.400  70.361  1.00  0.00    -0.345 A  
HETATM   11  C   UNL     1     -12.940  12.130  71.455  1.00  0.00    -0.295 A  
HETATM   12  O   UNL     1     -13.444  11.520  72.570  1.00  0.00    -0.529 OA 
HETATM   13  C   UNL     1     -12.896  13.519  71.438  1.00  0.00    -0.355 A  
HETATM   14  H   UNL     1     -13.750  12.018  73.318  1.00  0.00     0.000 HD 
HETATM   15  O   UNL     1     -13.367  14.230  72.505  1.00  0.00    -0.426 OA 
HETATM   16  C   UNL     1     -12.386  14.200  70.344  1.00  0.00    -0.428 A  
HETATM   17  C   UNL     1     -11.926  13.476  69.242  1.00  0.00    -0.378 A  
HETATM   18  H   UNL     1     -13.337  15.180  72.493  1.00  0.00     0.000 HD 
ENDBRANCH   8   9
ENDBRANCH   4   8
TORSDOF 2
ENDMDL
MODEL       98
REMARK 921   NORMALIZED FREE ENERGY PREDICTED BY IDOCK:   -4.28 KCAL/MOL
REMARK 922        TOTAL FREE ENERGY PREDICTED BY IDOCK:   -4.97 KCAL/MOL
REMARK 923 INTER-LIGAND FREE ENERGY PREDICTED BY IDOCK:   -4.78 KCAL/MOL
REMARK 924 INTRA-LIGAND FREE ENERGY PREDICTED BY IDOCK:   -0.19 KCAL/MOL
REMARK 927      BINDING AFFINITY PREDICTED BY RF-SCORE:    0.00 PKD
ROOT
HETATM    1  N   UNL     1      -7.732  10.699  70.090  1.00  0.00    -0.407 NA 
HETATM    2  H2  UNL     1      -7.862  10.839  71.091  1.00  0.00     0.000 HD 
HETATM    3  H1  UNL     1      -6.787  10.368  69.893  1.00  0.00     0.000 HD 
HETATM    4  CA  UNL     1      -8.813   9.821  69.537  1.00  0.00    -0.193 C  
HETATM    5  C   UNL     1      -8.581   9.635  68.027  1.00  0.00    -0.119 C  
HETATM    6  OXT UNL     1      -9.330   9.044  67.266  1.00  0.00    -0.135 OA 
HETATM    7  O   UNL     1      -7.411  10.202  67.631  1.00  0.00    -0.089 OA 
ENDROOT
BRANCH   4   8
HETATM    8  C   UNL     1     -10.240  10.321  69.834  1.00  0.00    -0.250 C  
BRANCH   8   9
HETATM    9  C   UNL     1     -11.157   9.280  70.441  1.00  0.00    -0.300 A  
HETATM   10  C   UNL     1     -12.040   9.637  71.475  1.00  0.00    -0.482 A  
HETATM   11  C   UNL     1     -12.819   8.660  72.085  1.00  0.00    -0.391 A  
HETATM   12  O   UNL     1     -13.680   8.958  73.104  1.00  0.00    -1.009 OA 
HETATM   13  C   UNL     1     -12.733   7.335  71.673  1.00  0.00    -0.375 A  
HETATM   14  H   UNL     1     -14.213   8.291  73.521  1.00  0.00     0.000 HD 
HETATM   15  O   UNL     1     -13.480   6.377  72.296  1.00  0.00    -0.486 OA 
HETATM   16  C   UNL     1     -11.889   6.968  70.637  1.00  0.00    -0.377 A  
HETATM   17  C   UNL     1     -11.107   7.942  70.013  1.00  0.00    -0.165 A  
HETATM   18  H   UNL     1     -13.420   5.471  72.015  1.00  0.00     0.000 HD 
ENDBRANCH   8   9
ENDBRANCH   4   8
TORSDOF 2
ENDMDL
MODEL       99
REMARK 921   NORMALIZED FREE ENERGY PREDICTED BY IDOCK:   -4.28 KCAL/MOL
REMARK 922        TOTAL FREE ENERGY PREDICTED BY IDOCK:   -4.96 KCAL/MOL
REMARK 923 INTER-LIGAND FREE ENERGY PREDICTED BY IDOCK:   -4.78 KCAL/MOL
REMARK 924 INTRA-LIGAND FREE ENERGY PREDICTED BY IDOCK:   -0.18 KCAL/MOL
REMARK 927      BINDING AFFINITY PREDICTED BY RF-SCORE:    0.00 PKD
ROOT
HETATM    1  N   UNL     1      -8.342  12.880  68.679  1.00  0.00    -0.344 NA 
HETATM    2  H2  UNL     1      -9.068  12.399  68.148  1.00  0.00     0.000 HD 
HETATM    3  H1  UNL     1      -7.427  12.472  68.485  1.00  0.00     0.000 HD 
HETATM    4  CA  UNL     1      -8.412  14.358  68.447  1.00  0.00    -0.165 C  
HETATM    5  C   UNL     1      -7.302  15.044  69.264  1.00  0.00    -0.184 C  
HETATM    6  OXT UNL     1      -7.140  16.250  69.360  1.00  0.00    -0.217 OA 
HETATM    7  O   UNL     1      -6.493  14.133  69.865  1.00  0.00    -0.139 OA 
ENDROOT
BRANCH   4   8
HETATM    8  C   UNL     1      -9.794  14.974  68.740  1.00  0.00    -0.233 C  
BRANCH   8   9
HETATM    9  C   UNL     1     -10.178  16.118  67.825  1.00  0.00    -0.267 A  
HETATM   10  C   UNL     1     -10.509  15.865  66.482  1.00  0.00    -0.305 A  
HETATM   11  C   UNL     1     -10.780  16.926  65.626  1.00  0.00    -0.167 A  
HETATM   12  O   UNL     1     -11.091  16.728  64.310  1.00  0.00    -1.301 OA 
HETATM   13  C   UNL     1     -10.731  18.234  66.093  1.00  0.00    -0.159 A  
HETATM   14  H   UNL     1     -11.277  17.453  63.725  1.00  0.00     0.000 HD 
HETATM   15  O   UNL     1     -10.969  19.273  65.239  1.00  0.00    -0.487 OA 
HETATM   16  C   UNL     1     -10.433  18.504  67.420  1.00  0.00    -0.455 A  
HETATM   17  C   UNL     1     -10.166  17.445  68.289  1.00  0.00    -0.362 A  
HETATM   18  H   UNL     1     -10.935  20.167  65.558  1.00  0.00     0.000 HD 
ENDBRANCH   8   9
ENDBRANCH   4   8
TORSDOF 2
ENDMDL
MODEL      100
REMARK 921   NORMALIZED FREE ENERGY PREDICTED BY IDOCK:   -4.25 KCAL/MOL
REMARK 922        TOTAL FREE ENERGY PREDICTED BY IDOCK:   -4.94 KCAL/MOL
REMARK 923 INTER-LIGAND FREE ENERGY PREDICTED BY IDOCK:   -4.72 KCAL/MOL
REMARK 924 INTRA-LIGAND FREE ENERGY PREDICTED BY IDOCK:   -0.21 KCAL/MOL
REMARK 927      BINDING AFFINITY PREDICTED BY RF-SCORE:    0.00 PKD
ROOT
HETATM    1  N   UNL     1      -7.862  10.937  68.853  1.00  0.00    -0.134 NA 
HETATM    2  H2  UNL     1      -7.560  11.552  68.097  1.00  0.00     0.000 HD 
HETATM    3  H1  UNL     1      -7.648  11.352  69.760  1.00  0.00     0.000 HD 
HETATM    4  CA  UNL     1      -9.302  10.559  68.680  1.00  0.00    -0.172 C  
HETATM    5  C   UNL     1      -9.717   9.634  69.837  1.00  0.00    -0.231 C  
HETATM    6  OXT UNL     1     -10.801   9.083  69.945  1.00  0.00    -0.228 OA 
HETATM    7  O   UNL     1      -8.723   9.512  70.755  1.00  0.00    -0.204 OA 
ENDROOT
BRANCH   4   8
HETATM    8  C   UNL     1      -9.625   9.933  67.309  1.00  0.00    -0.195 C  
BRANCH   8   9
HETATM    9  C   UNL     1     -10.400  10.836  66.373  1.00  0.00    -0.306 A  
HETATM   10  C   UNL     1     -10.185  10.763  64.985  1.00  0.00    -0.373 A  
HETATM   11  C   UNL     1     -10.838  11.651  64.138  1.00  0.00    -0.372 A  
HETATM   12  O   UNL     1     -10.647  11.626  62.784  1.00  0.00    -0.627 OA 
HETATM   13  C   UNL     1     -11.705  12.606  64.656  1.00  0.00    -0.357 A  
HETATM   14  H   UNL     1     -11.093  12.233  62.205  1.00  0.00     0.000 HD 
HETATM   15  O   UNL     1     -12.320  13.494  63.820  1.00  0.00    -0.661 OA 
HETATM   16  C   UNL     1     -11.952  12.677  66.018  1.00  0.00    -0.478 A  
HETATM   17  C   UNL     1     -11.306  11.785  66.877  1.00  0.00    -0.386 A  
HETATM   18  H   UNL     1     -12.912  14.147  64.174  1.00  0.00     0.000 HD 
ENDBRANCH   8   9
ENDBRANCH   4   8
TORSDOF 2
ENDMDL
MODEL      101
REMARK 921   NORMALIZED FREE ENERGY PREDICTED BY IDOCK:   -4.22 KCAL/MOL
REMARK 922        TOTAL FREE ENERGY PREDICTED BY IDOCK:   -4.90 KCAL/MOL
REMARK 923 INTER-LIGAND FREE ENERGY PREDICTED BY IDOCK:   -4.98 KCAL/MOL
REMARK 924 INTRA-LIGAND FREE ENERGY PREDICTED BY IDOCK:    0.08 KCAL/MOL
REMARK 927      BINDING AFFINITY PREDICTED BY RF-SCORE:    0.00 PKD
ROOT
HETATM    1  N   UNL     1     -12.322  10.612  68.746  1.00  0.00    -0.784 NA 
HETATM    2  H2  UNL     1     -13.242  10.562  68.310  1.00  0.00     0.000 HD 
HETATM    3  H1  UNL     1     -11.926   9.678  68.856  1.00  0.00     0.000 HD 
HETATM    4  CA  UNL     1     -11.437  11.565  68.002  1.00  0.00    -0.311 C  
HETATM    5  C   UNL     1     -10.062  11.610  68.691  1.00  0.00    -0.198 C  
HETATM    6  OXT UNL     1      -9.142  12.351  68.382  1.00  0.00    -0.195 OA 
HETATM    7  O   UNL     1      -9.979  10.696  69.694  1.00  0.00    -0.177 OA 
ENDROOT
BRANCH   4   8
HETATM    8  C   UNL     1     -12.035  12.976  67.837  1.00  0.00    -0.338 C  
BRANCH   8   9
HETATM    9  C   UNL     1     -11.943  13.845  69.073  1.00  0.00    -0.402 A  
HETATM   10  C   UNL     1     -12.583  13.450  70.261  1.00  0.00    -0.187 A  
HETATM   11  C   UNL     1     -12.565  14.291  71.368  1.00  0.00    -0.360 A  
HETATM   12  O   UNL     1     -13.186  13.953  72.539  1.00  0.00    -0.462 OA 
HETATM   13  C   UNL     1     -11.915  15.518  71.307  1.00  0.00    -0.388 A  
HETATM   14  H   UNL     1     -13.174  14.528  73.295  1.00  0.00     0.000 HD 
HETATM   15  O   UNL     1     -11.927  16.352  72.388  1.00  0.00    -0.530 OA 
HETATM   16  C   UNL     1     -11.256  15.915  70.154  1.00  0.00    -0.368 A  
HETATM   17  C   UNL     1     -11.262  15.074  69.039  1.00  0.00    -0.279 A  
HETATM   18  H   UNL     1     -11.483  17.190  72.346  1.00  0.00     0.000 HD 
ENDBRANCH   8   9
ENDBRANCH   4   8
TORSDOF 2
ENDMDL
MODEL      102
REMARK 921   NORMALIZED FREE ENERGY PREDICTED BY IDOCK:   -4.19 KCAL/MOL
REMARK 922        TOTAL FREE ENERGY PREDICTED BY IDOCK:   -4.86 KCAL/MOL
REMARK 923 INTER-LIGAND FREE ENERGY PREDICTED BY IDOCK:   -4.63 KCAL/MOL
REMARK 924 INTRA-LIGAND FREE ENERGY PREDICTED BY IDOCK:   -0.23 KCAL/MOL
REMARK 927      BINDING AFFINITY PREDICTED BY RF-SCORE:    0.00 PKD
ROOT
HETATM    1  N   UNL     1     -12.951  15.425  69.863  1.00  0.00    -0.581 NA 
HETATM    2  H2  UNL     1     -13.772  14.827  69.948  1.00  0.00     0.000 HD 
HETATM    3  H1  UNL     1     -12.833  15.994  70.702  1.00  0.00     0.000 HD 
HETATM    4  CA  UNL     1     -11.744  14.614  69.502  1.00  0.00    -0.324 C  
HETATM    5  C   UNL     1     -10.530  15.552  69.383  1.00  0.00    -0.253 C  
HETATM    6  OXT UNL     1      -9.413  15.218  69.022  1.00  0.00    -0.207 OA 
HETATM    7  O   UNL     1     -10.845  16.821  69.754  1.00  0.00    -0.325 OA 
ENDROOT
BRANCH   4   8
HETATM    8  C   UNL     1     -11.922  13.755  68.235  1.00  0.00    -0.392 C  
BRANCH   8   9
HETATM    9  C   UNL     1     -11.690  12.273  68.443  1.00  0.00    -0.390 A  
HETATM   10  C   UNL     1     -11.805  11.716  69.729  1.00  0.00    -0.428 A  
HETATM   11  C   UNL     1     -11.509  10.372  69.929  1.00  0.00    -0.297 A  
HETATM   12  O   UNL     1     -11.593   9.792  71.164  1.00  0.00    -0.331 OA 
HETATM   13  C   UNL     1     -11.107   9.577  68.862  1.00  0.00    -0.013 A  
HETATM   14  H   UNL     1     -11.391   8.874  71.300  1.00  0.00     0.000 HD 
HETATM   15  O   UNL     1     -10.789   8.265  69.071  1.00  0.00    -0.401 OA 
HETATM   16  C   UNL     1     -11.013  10.100  67.582  1.00  0.00    -0.331 A  
HETATM   17  C   UNL     1     -11.314  11.447  67.370  1.00  0.00    -0.359 A  
HETATM   18  H   UNL     1     -10.514   7.722  68.342  1.00  0.00     0.000 HD 
ENDBRANCH   8   9
ENDBRANCH   4   8
TORSDOF 2
ENDMDL
MODEL      103
REMARK 921   NORMALIZED FREE ENERGY PREDICTED BY IDOCK:   -4.18 KCAL/MOL
REMARK 922        TOTAL FREE ENERGY PREDICTED BY IDOCK:   -4.86 KCAL/MOL
REMARK 923 INTER-LIGAND FREE ENERGY PREDICTED BY IDOCK:   -4.61 KCAL/MOL
REMARK 924 INTRA-LIGAND FREE ENERGY PREDICTED BY IDOCK:   -0.25 KCAL/MOL
REMARK 927      BINDING AFFINITY PREDICTED BY RF-SCORE:    0.00 PKD
ROOT
HETATM    1  N   UNL     1     -11.136   7.148  66.736  1.00  0.00    -0.548 NA 
HETATM    2  H2  UNL     1     -12.125   7.245  66.968  1.00  0.00     0.000 HD 
HETATM    3  H1  UNL     1     -11.024   6.686  65.833  1.00  0.00     0.000 HD 
HETATM    4  CA  UNL     1     -10.440   8.470  66.835  1.00  0.00    -0.275 C  
HETATM    5  C   UNL     1      -8.955   8.280  66.478  1.00  0.00    -0.156 C  
HETATM    6  OXT UNL     1      -8.098   9.146  66.542  1.00  0.00    -0.106 OA 
HETATM    7  O   UNL     1      -8.706   7.013  66.054  1.00  0.00    -0.144 OA 
ENDROOT
BRANCH   4   8
HETATM    8  C   UNL     1     -10.610   9.168  68.199  1.00  0.00    -0.235 C  
BRANCH   8   9
HETATM    9  C   UNL     1     -10.994  10.630  68.113  1.00  0.00    -0.321 A  
HETATM   10  C   UNL     1     -11.148  11.388  69.287  1.00  0.00    -0.313 A  
HETATM   11  C   UNL     1     -11.581  12.706  69.206  1.00  0.00    -0.318 A  
HETATM   12  O   UNL     1     -11.759  13.476  70.322  1.00  0.00    -0.471 OA 
HETATM   13  C   UNL     1     -11.857  13.279  67.970  1.00  0.00    -0.355 A  
HETATM   14  H   UNL     1     -12.055  14.376  70.267  1.00  0.00     0.000 HD 
HETATM   15  O   UNL     1     -12.311  14.566  67.900  1.00  0.00    -0.615 OA 
HETATM   16  C   UNL     1     -11.686  12.558  66.799  1.00  0.00    -0.453 A  
HETATM   17  C   UNL     1     -11.245  11.235  66.869  1.00  0.00    -0.300 A  
HETATM   18  H   UNL     1     -12.500  14.957  67.055  1.00  0.00     0.000 HD 
ENDBRANCH   8   9
ENDBRANCH   4   8
TORSDOF 2
ENDMDL
MODEL      104
REMARK 921   NORMALIZED FREE ENERGY PREDICTED BY IDOCK:   -4.15 KCAL/MOL
REMARK 922        TOTAL FREE ENERGY PREDICTED BY IDOCK:   -4.82 KCAL/MOL
REMARK 923 INTER-LIGAND FREE ENERGY PREDICTED BY IDOCK:   -4.72 KCAL/MOL
REMARK 924 INTRA-LIGAND FREE ENERGY PREDICTED BY IDOCK:   -0.10 KCAL/MOL
REMARK 927      BINDING AFFINITY PREDICTED BY RF-SCORE:    0.00 PKD
ROOT
HETATM    1  N   UNL     1      -8.335  15.379  66.531  1.00  0.00    -0.378 NA 
HETATM    2  H2  UNL     1      -8.283  14.471  66.071  1.00  0.00     0.000 HD 
HETATM    3  H1  UNL     1      -7.412  15.814  66.571  1.00  0.00     0.000 HD 
HETATM    4  CA  UNL     1      -9.384  16.235  65.891  1.00  0.00    -0.264 C  
HETATM    5  C   UNL     1      -9.430  17.593  66.613  1.00  0.00    -0.279 C  
HETATM    6  OXT UNL     1     -10.233  18.484  66.389  1.00  0.00    -0.376 OA 
HETATM    7  O   UNL     1      -8.439  17.696  67.537  1.00  0.00    -0.216 OA 
ENDROOT
BRANCH   4   8
HETATM    8  C   UNL     1     -10.777  15.578  65.830  1.00  0.00    -0.362 C  
BRANCH   8   9
HETATM    9  C   UNL     1     -11.181  14.843  67.091  1.00  0.00    -0.345 A  
HETATM   10  C   UNL     1     -11.558  15.565  68.236  1.00  0.00    -0.344 A  
HETATM   11  C   UNL     1     -11.847  14.887  69.415  1.00  0.00    -0.324 A  
HETATM   12  O   UNL     1     -12.204  15.548  70.557  1.00  0.00    -0.352 OA 
HETATM   13  C   UNL     1     -11.769  13.500  69.464  1.00  0.00    -0.322 A  
HETATM   14  H   UNL     1     -12.402  15.085  71.363  1.00  0.00     0.000 HD 
HETATM   15  O   UNL     1     -12.025  12.843  70.634  1.00  0.00    -0.508 OA 
HETATM   16  C   UNL     1     -11.425  12.768  68.338  1.00  0.00    -0.349 A  
HETATM   17  C   UNL     1     -11.139  13.439  67.148  1.00  0.00    -0.303 A  
HETATM   18  H   UNL     1     -11.972  11.895  70.667  1.00  0.00     0.000 HD 
ENDBRANCH   8   9
ENDBRANCH   4   8
TORSDOF 2
ENDMDL
MODEL      105
REMARK 921   NORMALIZED FREE ENERGY PREDICTED BY IDOCK:   -4.14 KCAL/MOL
REMARK 922        TOTAL FREE ENERGY PREDICTED BY IDOCK:   -4.81 KCAL/MOL
REMARK 923 INTER-LIGAND FREE ENERGY PREDICTED BY IDOCK:   -4.63 KCAL/MOL
REMARK 924 INTRA-LIGAND FREE ENERGY PREDICTED BY IDOCK:   -0.18 KCAL/MOL
REMARK 927      BINDING AFFINITY PREDICTED BY RF-SCORE:    0.00 PKD
ROOT
HETATM    1  N   UNL     1      -9.055   9.920  70.186  1.00  0.00    -0.364 NA 
HETATM    2  H2  UNL     1      -8.509  10.375  69.455  1.00  0.00     0.000 HD 
HETATM    3  H1  UNL     1      -8.658  10.118  71.105  1.00  0.00     0.000 HD 
HETATM    4  CA  UNL     1     -10.504  10.275  70.060  1.00  0.00    -0.241 C  
HETATM    5  C   UNL     1     -11.290   9.570  71.180  1.00  0.00    -0.370 C  
HETATM    6  OXT UNL     1     -12.504   9.586  71.307  1.00  0.00    -0.315 OA 
HETATM    7  O   UNL     1     -10.458   8.929  72.042  1.00  0.00    -0.338 OA 
ENDROOT
BRANCH   4   8
HETATM    8  C   UNL     1     -11.105   9.976  68.672  1.00  0.00    -0.223 C  
BRANCH   8   9
HETATM    9  C   UNL     1     -11.053  11.137  67.702  1.00  0.00    -0.348 A  
HETATM   10  C   UNL     1     -10.318  11.025  66.508  1.00  0.00    -0.295 A  
HETATM   11  C   UNL     1     -10.205  12.122  65.661  1.00  0.00    -0.256 A  
HETATM   12  O   UNL     1      -9.490  12.063  64.498  1.00  0.00    -0.447 OA 
HETATM   13  C   UNL     1     -10.820  13.326  65.987  1.00  0.00    -0.273 A  
HETATM   14  H   UNL     1      -9.413  12.812  63.919  1.00  0.00     0.000 HD 
HETATM   15  O   UNL     1     -10.679  14.408  65.165  1.00  0.00    -0.347 OA 
HETATM   16  C   UNL     1     -11.570  13.449  67.146  1.00  0.00    -0.399 A  
HETATM   17  C   UNL     1     -11.695  12.352  68.000  1.00  0.00    -0.414 A  
HETATM   18  H   UNL     1     -11.099  15.230  65.388  1.00  0.00     0.000 HD 
ENDBRANCH   8   9
ENDBRANCH   4   8
TORSDOF 2
ENDMDL
MODEL      106
REMARK 921   NORMALIZED FREE ENERGY PREDICTED BY IDOCK:   -4.08 KCAL/MOL
REMARK 922        TOTAL FREE ENERGY PREDICTED BY IDOCK:   -4.75 KCAL/MOL
REMARK 923 INTER-LIGAND FREE ENERGY PREDICTED BY IDOCK:   -4.70 KCAL/MOL
REMARK 924 INTRA-LIGAND FREE ENERGY PREDICTED BY IDOCK:   -0.05 KCAL/MOL
REMARK 927      BINDING AFFINITY PREDICTED BY RF-SCORE:    0.00 PKD
ROOT
HETATM    1  N   UNL     1      -8.664  12.520  68.661  1.00  0.00    -0.373 NA 
HETATM    2  H2  UNL     1      -8.706  11.561  69.007  1.00  0.00     0.000 HD 
HETATM    3  H1  UNL     1      -7.704  12.864  68.677  1.00  0.00     0.000 HD 
HETATM    4  CA  UNL     1      -9.328  12.627  67.323  1.00  0.00    -0.195 C  
HETATM    5  C   UNL     1      -9.242  14.085  66.839  1.00  0.00    -0.260 C  
HETATM    6  OXT UNL     1      -9.760  14.523  65.824  1.00  0.00    -0.314 OA 
HETATM    7  O   UNL     1      -8.491  14.843  67.680  1.00  0.00    -0.150 OA 
ENDROOT
BRANCH   4   8
HETATM    8  C   UNL     1     -10.779  12.106  67.300  1.00  0.00    -0.264 C  
BRANCH   8   9
HETATM    9  C   UNL     1     -11.400  11.916  68.667  1.00  0.00    -0.331 A  
HETATM   10  C   UNL     1     -11.654  10.621  69.152  1.00  0.00    -0.342 A  
HETATM   11  C   UNL     1     -12.300  10.454  70.371  1.00  0.00    -0.286 A  
HETATM   12  O   UNL     1     -12.581   9.214  70.874  1.00  0.00    -0.480 OA 
HETATM   13  C   UNL     1     -12.691  11.562  71.116  1.00  0.00    -0.356 A  
HETATM   14  H   UNL     1     -13.022   9.100  71.707  1.00  0.00     0.000 HD 
HETATM   15  O   UNL     1     -13.352  11.390  72.298  1.00  0.00    -0.629 OA 
HETATM   16  C   UNL     1     -12.426  12.847  70.669  1.00  0.00    -0.333 A  
HETATM   17  C   UNL     1     -11.772  13.025  69.448  1.00  0.00    -0.386 A  
HETATM   18  H   UNL     1     -13.619  12.147  72.807  1.00  0.00     0.000 HD 
ENDBRANCH   8   9
ENDBRANCH   4   8
TORSDOF 2
ENDMDL
MODEL      107
REMARK 921   NORMALIZED FREE ENERGY PREDICTED BY IDOCK:   -4.07 KCAL/MOL
REMARK 922        TOTAL FREE ENERGY PREDICTED BY IDOCK:   -4.73 KCAL/MOL
REMARK 923 INTER-LIGAND FREE ENERGY PREDICTED BY IDOCK:   -4.52 KCAL/MOL
REMARK 924 INTRA-LIGAND FREE ENERGY PREDICTED BY IDOCK:   -0.21 KCAL/MOL
REMARK 927      BINDING AFFINITY PREDICTED BY RF-SCORE:    0.00 PKD
ROOT
HETATM    1  N   UNL     1      -9.621  20.747  66.990  1.00  0.00    -0.681 NA 
HETATM    2  H2  UNL     1     -10.612  20.514  66.939  1.00  0.00     0.000 HD 
HETATM    3  H1  UNL     1      -9.473  21.556  67.593  1.00  0.00     0.000 HD 
HETATM    4  CA  UNL     1      -8.817  19.544  67.376  1.00  0.00    -0.308 C  
HETATM    5  C   UNL     1      -7.330  19.937  67.441  1.00  0.00    -0.256 C  
HETATM    6  OXT UNL     1      -6.405  19.167  67.647  1.00  0.00    -0.204 OA 
HETATM    7  O   UNL     1      -7.162  21.273  67.258  1.00  0.00    -0.508 OA 
ENDROOT
BRANCH   4   8
HETATM    8  C   UNL     1      -9.040  18.321  66.464  1.00  0.00    -0.291 C  
BRANCH   8   9
HETATM    9  C   UNL     1      -9.439  17.057  67.195  1.00  0.00    -0.245 A  
HETATM   10  C   UNL     1      -8.640  16.567  68.243  1.00  0.00    -0.200 A  
HETATM   11  C   UNL     1      -8.966  15.362  68.855  1.00  0.00    -0.208 A  
HETATM   12  O   UNL     1      -8.209  14.840  69.867  1.00  0.00    -0.415 OA 
HETATM   13  C   UNL     1     -10.081  14.643  68.439  1.00  0.00    -0.237 A  
HETATM   14  H   UNL     1      -8.432  14.017  70.286  1.00  0.00     0.000 HD 
HETATM   15  O   UNL     1     -10.378  13.446  69.025  1.00  0.00    -0.411 OA 
HETATM   16  C   UNL     1     -10.897  15.122  67.426  1.00  0.00    -0.302 A  
HETATM   17  C   UNL     1     -10.582  16.334  66.810  1.00  0.00    -0.257 A  
HETATM   18  H   UNL     1     -11.140  12.955  68.740  1.00  0.00     0.000 HD 
ENDBRANCH   8   9
ENDBRANCH   4   8
TORSDOF 2
ENDMDL
MODEL      108
REMARK 921   NORMALIZED FREE ENERGY PREDICTED BY IDOCK:   -4.06 KCAL/MOL
REMARK 922        TOTAL FREE ENERGY PREDICTED BY IDOCK:   -4.72 KCAL/MOL
REMARK 923 INTER-LIGAND FREE ENERGY PREDICTED BY IDOCK:   -4.48 KCAL/MOL
REMARK 924 INTRA-LIGAND FREE ENERGY PREDICTED BY IDOCK:   -0.24 KCAL/MOL
REMARK 927      BINDING AFFINITY PREDICTED BY RF-SCORE:    0.00 PKD
ROOT
HETATM    1  N   UNL     1      -8.122  10.687  62.868  1.00  0.00    -0.282 NA 
HETATM    2  H2  UNL     1      -8.033  11.592  62.406  1.00  0.00     0.000 HD 
HETATM    3  H1  UNL     1      -7.203  10.308  63.095  1.00  0.00     0.000 HD 
HETATM    4  CA  UNL     1      -9.047  10.786  64.043  1.00  0.00    -0.197 C  
HETATM    5  C   UNL     1      -9.154   9.404  64.711  1.00  0.00    -0.193 C  
HETATM    6  OXT UNL     1      -9.891   9.126  65.643  1.00  0.00    -0.264 OA 
HETATM    7  O   UNL     1      -8.299   8.512  64.144  1.00  0.00    -0.157 OA 
ENDROOT
BRANCH   4   8
HETATM    8  C   UNL     1     -10.437  11.358  63.701  1.00  0.00    -0.472 C  
BRANCH   8   9
HETATM    9  C   UNL     1     -10.950  12.389  64.684  1.00  0.00    -0.344 A  
HETATM   10  C   UNL     1     -10.161  12.768  65.784  1.00  0.00    -0.302 A  
HETATM   11  C   UNL     1     -10.672  13.652  66.728  1.00  0.00    -0.272 A  
HETATM   12  O   UNL     1      -9.946  14.036  67.821  1.00  0.00    -0.228 OA 
HETATM   13  C   UNL     1     -11.955  14.166  66.585  1.00  0.00    -0.444 A  
HETATM   14  H   UNL     1     -10.294  14.640  68.465  1.00  0.00     0.000 HD 
HETATM   15  O   UNL     1     -12.461  15.011  67.532  1.00  0.00    -0.310 OA 
HETATM   16  C   UNL     1     -12.739  13.826  65.494  1.00  0.00    -0.530 A  
HETATM   17  C   UNL     1     -12.234  12.944  64.537  1.00  0.00    -0.489 A  
HETATM   18  H   UNL     1     -13.338  15.362  67.435  1.00  0.00     0.000 HD 
ENDBRANCH   8   9
ENDBRANCH   4   8
TORSDOF 2
ENDMDL
MODEL      109
REMARK 921   NORMALIZED FREE ENERGY PREDICTED BY IDOCK:   -4.04 KCAL/MOL
REMARK 922        TOTAL FREE ENERGY PREDICTED BY IDOCK:   -4.70 KCAL/MOL
REMARK 923 INTER-LIGAND FREE ENERGY PREDICTED BY IDOCK:   -4.51 KCAL/MOL
REMARK 924 INTRA-LIGAND FREE ENERGY PREDICTED BY IDOCK:   -0.20 KCAL/MOL
REMARK 927      BINDING AFFINITY PREDICTED BY RF-SCORE:    0.00 PKD
ROOT
HETATM    1  N   UNL     1     -11.941  14.851  68.141  1.00  0.00    -0.545 NA 
HETATM    2  H2  UNL     1     -12.882  14.464  68.212  1.00  0.00     0.000 HD 
HETATM    3  H1  UNL     1     -11.669  15.295  69.018  1.00  0.00     0.000 HD 
HETATM    4  CA  UNL     1     -10.978  13.810  67.660  1.00  0.00    -0.264 C  
HETATM    5  C   UNL     1      -9.574  14.434  67.566  1.00  0.00    -0.215 C  
HETATM    6  OXT UNL     1      -8.582  13.874  67.129  1.00  0.00    -0.208 OA 
HETATM    7  O   UNL     1      -9.561  15.701  68.055  1.00  0.00    -0.202 OA 
ENDROOT
BRANCH   4   8
HETATM    8  C   UNL     1     -11.389  13.138  66.335  1.00  0.00    -0.349 C  
BRANCH   8   9
HETATM    9  C   UNL     1     -10.909  11.711  66.178  1.00  0.00    -0.343 A  
HETATM   10  C   UNL     1     -11.129  10.777  67.206  1.00  0.00    -0.339 A  
HETATM   11  C   UNL     1     -10.613   9.491  67.092  1.00  0.00    -0.225 A  
HETATM   12  O   UNL     1     -10.790   8.555  68.073  1.00  0.00    -0.456 OA 
HETATM   13  C   UNL     1      -9.886   9.124  65.966  1.00  0.00    -0.272 A  
HETATM   14  H   UNL     1     -10.438   7.676  67.995  1.00  0.00     0.000 HD 
HETATM   15  O   UNL     1      -9.357   7.868  65.875  1.00  0.00    -0.375 OA 
HETATM   16  C   UNL     1      -9.680  10.021  64.930  1.00  0.00    -0.377 A  
HETATM   17  C   UNL     1     -10.200  11.313  65.031  1.00  0.00    -0.339 A  
HETATM   18  H   UNL     1      -8.860   7.617  65.105  1.00  0.00     0.000 HD 
ENDBRANCH   8   9
ENDBRANCH   4   8
TORSDOF 2
ENDMDL
MODEL      110
REMARK 921   NORMALIZED FREE ENERGY PREDICTED BY IDOCK:   -4.04 KCAL/MOL
REMARK 922        TOTAL FREE ENERGY PREDICTED BY IDOCK:   -4.70 KCAL/MOL
REMARK 923 INTER-LIGAND FREE ENERGY PREDICTED BY IDOCK:   -4.49 KCAL/MOL
REMARK 924 INTRA-LIGAND FREE ENERGY PREDICTED BY IDOCK:   -0.21 KCAL/MOL
REMARK 927      BINDING AFFINITY PREDICTED BY RF-SCORE:    0.00 PKD
ROOT
HETATM    1  N   UNL     1      -9.379   9.526  66.443  1.00  0.00    -0.166 NA 
HETATM    2  H2  UNL     1      -9.193   9.161  67.377  1.00  0.00     0.000 HD 
HETATM    3  H1  UNL     1      -9.671   8.775  65.817  1.00  0.00     0.000 HD 
HETATM    4  CA  UNL     1     -10.341  10.672  66.509  1.00  0.00    -0.241 C  
HETATM    5  C   UNL     1     -10.595  11.192  65.082  1.00  0.00    -0.253 C  
HETATM    6  OXT UNL     1     -11.265  12.172  64.798  1.00  0.00    -0.307 OA 
HETATM    7  O   UNL     1      -9.990  10.407  64.153  1.00  0.00    -0.328 OA 
ENDROOT
BRANCH   4   8
HETATM    8  C   UNL     1      -9.901  11.807  67.455  1.00  0.00    -0.189 C  
BRANCH   8   9
HETATM    9  C   UNL     1     -10.870  12.095  68.582  1.00  0.00    -0.268 A  
HETATM   10  C   UNL     1     -11.372  13.396  68.764  1.00  0.00    -0.332 A  
HETATM   11  C   UNL     1     -12.195  13.673  69.849  1.00  0.00    -0.304 A  
HETATM   12  O   UNL     1     -12.694  14.926  70.073  1.00  0.00    -0.543 OA 
HETATM   13  C   UNL     1     -12.528  12.670  70.752  1.00  0.00    -0.270 A  
HETATM   14  H   UNL     1     -13.256  15.116  70.815  1.00  0.00     0.000 HD 
HETATM   15  O   UNL     1     -13.313  12.956  71.832  1.00  0.00    -0.458 OA 
HETATM   16  C   UNL     1     -12.065  11.375  70.576  1.00  0.00    -0.487 A  
HETATM   17  C   UNL     1     -11.243  11.085  69.485  1.00  0.00    -0.343 A  
HETATM   18  H   UNL     1     -13.539  12.270  72.449  1.00  0.00     0.000 HD 
ENDBRANCH   8   9
ENDBRANCH   4   8
TORSDOF 2
ENDMDL
MODEL      111
REMARK 921   NORMALIZED FREE ENERGY PREDICTED BY IDOCK:   -4.04 KCAL/MOL
REMARK 922        TOTAL FREE ENERGY PREDICTED BY IDOCK:   -4.70 KCAL/MOL
REMARK 923 INTER-LIGAND FREE ENERGY PREDICTED BY IDOCK:   -4.58 KCAL/MOL
REMARK 924 INTRA-LIGAND FREE ENERGY PREDICTED BY IDOCK:   -0.12 KCAL/MOL
REMARK 927      BINDING AFFINITY PREDICTED BY RF-SCORE:    0.00 PKD
ROOT
HETATM    1  N   UNL     1      -8.561  11.052  69.476  1.00  0.00    -0.346 NA 
HETATM    2  H2  UNL     1      -8.711  11.824  70.125  1.00  0.00     0.000 HD 
HETATM    3  H1  UNL     1      -7.592  10.734  69.515  1.00  0.00     0.000 HD 
HETATM    4  CA  UNL     1      -9.567   9.967  69.708  1.00  0.00    -0.231 C  
HETATM    5  C   UNL     1      -9.307   8.824  68.711  1.00  0.00    -0.141 C  
HETATM    6  OXT UNL     1     -10.001   7.829  68.582  1.00  0.00    -0.171 OA 
HETATM    7  O   UNL     1      -8.178   9.045  67.987  1.00  0.00    -0.109 OA 
ENDROOT
BRANCH   4   8
HETATM    8  C   UNL     1     -11.031  10.446  69.650  1.00  0.00    -0.325 C  
BRANCH   8   9
HETATM    9  C   UNL     1     -11.297  11.529  68.626  1.00  0.00    -0.330 A  
HETATM   10  C   UNL     1     -11.675  12.817  69.045  1.00  0.00    -0.371 A  
HETATM   11  C   UNL     1     -11.998  13.784  68.100  1.00  0.00    -0.358 A  
HETATM   12  O   UNL     1     -12.384  15.044  68.462  1.00  0.00    -0.586 OA 
HETATM   13  C   UNL     1     -11.945  13.484  66.744  1.00  0.00    -0.404 A  
HETATM   14  H   UNL     1     -12.605  15.705  67.817  1.00  0.00     0.000 HD 
HETATM   15  O   UNL     1     -12.294  14.430  65.822  1.00  0.00    -0.393 OA 
HETATM   16  C   UNL     1     -11.550  12.228  66.309  1.00  0.00    -0.446 A  
HETATM   17  C   UNL     1     -11.217  11.253  67.250  1.00  0.00    -0.364 A  
HETATM   18  H   UNL     1     -12.258  14.224  64.895  1.00  0.00     0.000 HD 
ENDBRANCH   8   9
ENDBRANCH   4   8
TORSDOF 2
ENDMDL
MODEL      112
REMARK 921   NORMALIZED FREE ENERGY PREDICTED BY IDOCK:   -4.03 KCAL/MOL
REMARK 922        TOTAL FREE ENERGY PREDICTED BY IDOCK:   -4.69 KCAL/MOL
REMARK 923 INTER-LIGAND FREE ENERGY PREDICTED BY IDOCK:   -4.46 KCAL/MOL
REMARK 924 INTRA-LIGAND FREE ENERGY PREDICTED BY IDOCK:   -0.23 KCAL/MOL
REMARK 927      BINDING AFFINITY PREDICTED BY RF-SCORE:    0.00 PKD
ROOT
HETATM    1  N   UNL     1     -10.917   7.692  66.838  1.00  0.00    -0.491 NA 
HETATM    2  H2  UNL     1     -11.923   7.637  66.993  1.00  0.00     0.000 HD 
HETATM    3  H1  UNL     1     -10.677   7.339  65.911  1.00  0.00     0.000 HD 
HETATM    4  CA  UNL     1     -10.416   9.077  67.111  1.00  0.00    -0.263 C  
HETATM    5  C   UNL     1      -8.897   9.116  66.866  1.00  0.00    -0.123 C  
HETATM    6  OXT UNL     1      -8.173  10.075  67.079  1.00  0.00    -0.116 OA 
HETATM    7  O   UNL     1      -8.447   7.940  66.356  1.00  0.00    -0.124 OA 
ENDROOT
BRANCH   4   8
HETATM    8  C   UNL     1     -10.778   9.610  68.511  1.00  0.00    -0.239 C  
BRANCH   8   9
HETATM    9  C   UNL     1     -11.237  11.053  68.535  1.00  0.00    -0.329 A  
HETATM   10  C   UNL     1     -11.384  11.765  67.331  1.00  0.00    -0.376 A  
HETATM   11  C   UNL     1     -11.724  13.112  67.363  1.00  0.00    -0.370 A  
HETATM   12  O   UNL     1     -11.864  13.847  66.219  1.00  0.00    -0.367 OA 
HETATM   13  C   UNL     1     -11.926  13.756  68.579  1.00  0.00    -0.367 A  
HETATM   14  H   UNL     1     -12.097  14.768  66.240  1.00  0.00     0.000 HD 
HETATM   15  O   UNL     1     -12.231  15.087  68.603  1.00  0.00    -0.570 OA 
HETATM   16  C   UNL     1     -11.812  13.066  69.775  1.00  0.00    -0.381 A  
HETATM   17  C   UNL     1     -11.476  11.711  69.754  1.00  0.00    -0.339 A  
HETATM   18  H   UNL     1     -12.368  15.527  69.434  1.00  0.00     0.000 HD 
ENDBRANCH   8   9
ENDBRANCH   4   8
TORSDOF 2
ENDMDL
MODEL      113
REMARK 921   NORMALIZED FREE ENERGY PREDICTED BY IDOCK:   -4.02 KCAL/MOL
REMARK 922        TOTAL FREE ENERGY PREDICTED BY IDOCK:   -4.68 KCAL/MOL
REMARK 923 INTER-LIGAND FREE ENERGY PREDICTED BY IDOCK:   -4.50 KCAL/MOL
REMARK 924 INTRA-LIGAND FREE ENERGY PREDICTED BY IDOCK:   -0.18 KCAL/MOL
REMARK 927      BINDING AFFINITY PREDICTED BY RF-SCORE:    0.00 PKD
ROOT
HETATM    1  N   UNL     1     -10.430   8.072  69.210  1.00  0.00    -0.221 NA 
HETATM    2  H2  UNL     1     -10.670   8.082  70.201  1.00  0.00     0.000 HD 
HETATM    3  H1  UNL     1     -10.761   7.213  68.769  1.00  0.00     0.000 HD 
HETATM    4  CA  UNL     1     -10.910   9.324  68.541  1.00  0.00    -0.074 C  
HETATM    5  C   UNL     1     -10.529   9.270  67.051  1.00  0.00    -0.233 C  
HETATM    6  OXT UNL     1     -10.702  10.171  66.246  1.00  0.00    -0.108 OA 
HETATM    7  O   UNL     1      -9.984   8.070  66.721  1.00  0.00    -0.232 OA 
ENDROOT
BRANCH   4   8
HETATM    8  C   UNL     1     -10.411  10.621  69.207  1.00  0.00    -0.240 C  
BRANCH   8   9
HETATM    9  C   UNL     1     -11.459  11.356  70.015  1.00  0.00    -0.331 A  
HETATM   10  C   UNL     1     -11.688  12.725  69.793  1.00  0.00    -0.352 A  
HETATM   11  C   UNL     1     -12.592  13.413  70.594  1.00  0.00    -0.253 A  
HETATM   12  O   UNL     1     -12.835  14.747  70.424  1.00  0.00    -0.476 OA 
HETATM   13  C   UNL     1     -13.274  12.752  71.610  1.00  0.00    -0.317 A  
HETATM   14  H   UNL     1     -13.453  15.218  70.971  1.00  0.00     0.000 HD 
HETATM   15  O   UNL     1     -14.138  13.441  72.412  1.00  0.00    -0.639 OA 
HETATM   16  C   UNL     1     -13.082  11.396  71.828  1.00  0.00    -0.523 A  
HETATM   17  C   UNL     1     -12.181  10.695  71.024  1.00  0.00    -0.498 A  
HETATM   18  H   UNL     1     -14.604  12.989  73.106  1.00  0.00     0.000 HD 
ENDBRANCH   8   9
ENDBRANCH   4   8
TORSDOF 2
ENDMDL
MODEL      114
REMARK 921   NORMALIZED FREE ENERGY PREDICTED BY IDOCK:   -4.02 KCAL/MOL
REMARK 922        TOTAL FREE ENERGY PREDICTED BY IDOCK:   -4.67 KCAL/MOL
REMARK 923 INTER-LIGAND FREE ENERGY PREDICTED BY IDOCK:   -4.47 KCAL/MOL
REMARK 924 INTRA-LIGAND FREE ENERGY PREDICTED BY IDOCK:   -0.20 KCAL/MOL
REMARK 927      BINDING AFFINITY PREDICTED BY RF-SCORE:    0.00 PKD
ROOT
HETATM    1  N   UNL     1     -12.394  15.008  68.040  1.00  0.00    -0.430 NA 
HETATM    2  H2  UNL     1     -12.991  15.824  67.908  1.00  0.00     0.000 HD 
HETATM    3  H1  UNL     1     -12.622  14.284  67.357  1.00  0.00     0.000 HD 
HETATM    4  CA  UNL     1     -10.951  15.408  68.045  1.00  0.00    -0.307 C  
HETATM    5  C   UNL     1     -10.086  14.151  68.245  1.00  0.00    -0.241 C  
HETATM    6  OXT UNL     1      -8.873  14.144  68.379  1.00  0.00    -0.181 OA 
HETATM    7  O   UNL     1     -10.842  13.022  68.236  1.00  0.00    -0.229 OA 
ENDROOT
BRANCH   4   8
HETATM    8  C   UNL     1     -10.607  16.502  69.075  1.00  0.00    -0.324 C  
BRANCH   8   9
HETATM    9  C   UNL     1      -9.704  17.598  68.550  1.00  0.00    -0.328 A  
HETATM   10  C   UNL     1     -10.258  18.718  67.905  1.00  0.00    -0.448 A  
HETATM   11  C   UNL     1      -9.421  19.681  67.352  1.00  0.00    -0.329 A  
HETATM   12  O   UNL     1      -9.915  20.778  66.704  1.00  0.00    -0.570 OA 
HETATM   13  C   UNL     1      -8.040  19.542  67.437  1.00  0.00    -0.280 A  
HETATM   14  H   UNL     1      -9.343  21.436  66.326  1.00  0.00     0.000 HD 
HETATM   15  O   UNL     1      -7.224  20.476  66.864  1.00  0.00    -0.270 OA 
HETATM   16  C   UNL     1      -7.474  18.459  68.091  1.00  0.00    -0.279 A  
HETATM   17  C   UNL     1      -8.306  17.490  68.656  1.00  0.00    -0.258 A  
HETATM   18  H   UNL     1      -6.281  20.381  66.923  1.00  0.00     0.000 HD 
ENDBRANCH   8   9
ENDBRANCH   4   8
TORSDOF 2
ENDMDL
MODEL      115
REMARK 921   NORMALIZED FREE ENERGY PREDICTED BY IDOCK:   -4.00 KCAL/MOL
REMARK 922        TOTAL FREE ENERGY PREDICTED BY IDOCK:   -4.66 KCAL/MOL
REMARK 923 INTER-LIGAND FREE ENERGY PREDICTED BY IDOCK:   -4.70 KCAL/MOL
REMARK 924 INTRA-LIGAND FREE ENERGY PREDICTED BY IDOCK:    0.04 KCAL/MOL
REMARK 927      BINDING AFFINITY PREDICTED BY RF-SCORE:    0.00 PKD
ROOT
HETATM    1  N   UNL     1      -8.387   9.491  67.174  1.00  0.00    -0.130 NA 
HETATM    2  H2  UNL     1      -7.467   9.851  66.924  1.00  0.00     0.000 HD 
HETATM    3  H1  UNL     1      -8.310   8.557  67.576  1.00  0.00     0.000 HD 
HETATM    4  CA  UNL     1      -9.116  10.470  68.044  1.00  0.00    -0.138 C  
HETATM    5  C   UNL     1     -10.497   9.890  68.398  1.00  0.00    -0.208 C  
HETATM    6  OXT UNL     1     -11.368  10.474  69.023  1.00  0.00    -0.249 OA 
HETATM    7  O   UNL     1     -10.632   8.617  67.941  1.00  0.00    -0.222 OA 
ENDROOT
BRANCH   4   8
HETATM    8  C   UNL     1      -9.233  11.882  67.437  1.00  0.00    -0.177 C  
BRANCH   8   9
HETATM    9  C   UNL     1     -10.162  11.978  66.245  1.00  0.00    -0.251 A  
HETATM   10  C   UNL     1     -11.330  12.757  66.323  1.00  0.00    -0.365 A  
HETATM   11  C   UNL     1     -12.220  12.775  65.256  1.00  0.00    -0.483 A  
HETATM   12  O   UNL     1     -13.375  13.506  65.294  1.00  0.00    -0.618 OA 
HETATM   13  C   UNL     1     -11.958  12.032  64.111  1.00  0.00    -0.369 A  
HETATM   14  H   UNL     1     -13.984  13.518  64.565  1.00  0.00     0.000 HD 
HETATM   15  O   UNL     1     -12.852  12.031  63.078  1.00  0.00    -0.766 OA 
HETATM   16  C   UNL     1     -10.799  11.279  64.003  1.00  0.00    -0.414 A  
HETATM   17  C   UNL     1      -9.895  11.259  65.067  1.00  0.00    -0.307 A  
HETATM   18  H   UNL     1     -12.673  11.523  62.296  1.00  0.00     0.000 HD 
ENDBRANCH   8   9
ENDBRANCH   4   8
TORSDOF 2
ENDMDL
MODEL      116
REMARK 921   NORMALIZED FREE ENERGY PREDICTED BY IDOCK:   -4.00 KCAL/MOL
REMARK 922        TOTAL FREE ENERGY PREDICTED BY IDOCK:   -4.66 KCAL/MOL
REMARK 923 INTER-LIGAND FREE ENERGY PREDICTED BY IDOCK:   -4.42 KCAL/MOL
REMARK 924 INTRA-LIGAND FREE ENERGY PREDICTED BY IDOCK:   -0.23 KCAL/MOL
REMARK 927      BINDING AFFINITY PREDICTED BY RF-SCORE:    0.00 PKD
ROOT
HETATM    1  N   UNL     1     -12.148  13.045  64.874  1.00  0.00    -0.387 NA 
HETATM    2  H2  UNL     1     -12.711  13.847  64.590  1.00  0.00     0.000 HD 
HETATM    3  H1  UNL     1     -11.914  12.468  64.065  1.00  0.00     0.000 HD 
HETATM    4  CA  UNL     1     -10.959  13.491  65.668  1.00  0.00    -0.289 C  
HETATM    5  C   UNL     1     -10.139  12.254  66.075  1.00  0.00    -0.248 C  
HETATM    6  OXT UNL     1      -9.155  12.267  66.798  1.00  0.00    -0.202 OA 
HETATM    7  O   UNL     1     -10.633  11.123  65.508  1.00  0.00    -0.263 OA 
ENDROOT
BRANCH   4   8
HETATM    8  C   UNL     1     -11.312  14.363  66.889  1.00  0.00    -0.357 C  
BRANCH   8   9
HETATM    9  C   UNL     1     -10.459  15.605  67.042  1.00  0.00    -0.303 A  
HETATM   10  C   UNL     1     -10.764  16.551  68.036  1.00  0.00    -0.343 A  
HETATM   11  C   UNL     1     -10.029  17.728  68.118  1.00  0.00    -0.342 A  
HETATM   12  O   UNL     1     -10.299  18.682  69.059  1.00  0.00    -0.483 OA 
HETATM   13  C   UNL     1      -8.992  17.972  67.224  1.00  0.00    -0.251 A  
HETATM   14  H   UNL     1      -9.797  19.486  69.116  1.00  0.00     0.000 HD 
HETATM   15  O   UNL     1      -8.294  19.144  67.292  1.00  0.00    -0.271 OA 
HETATM   16  C   UNL     1      -8.659  17.040  66.253  1.00  0.00    -0.298 A  
HETATM   17  C   UNL     1      -9.387  15.852  66.167  1.00  0.00    -0.385 A  
HETATM   18  H   UNL     1      -7.586  19.310  66.681  1.00  0.00     0.000 HD 
ENDBRANCH   8   9
ENDBRANCH   4   8
TORSDOF 2
ENDMDL
MODEL      117
REMARK 921   NORMALIZED FREE ENERGY PREDICTED BY IDOCK:   -3.96 KCAL/MOL
REMARK 922        TOTAL FREE ENERGY PREDICTED BY IDOCK:   -4.61 KCAL/MOL
REMARK 923 INTER-LIGAND FREE ENERGY PREDICTED BY IDOCK:   -4.59 KCAL/MOL
REMARK 924 INTRA-LIGAND FREE ENERGY PREDICTED BY IDOCK:   -0.02 KCAL/MOL
REMARK 927      BINDING AFFINITY PREDICTED BY RF-SCORE:    0.00 PKD
ROOT
HETATM    1  N   UNL     1      -8.896  18.849  65.905  1.00  0.00    -0.416 NA 
HETATM    2  H2  UNL     1      -9.754  18.694  66.432  1.00  0.00     0.000 HD 
HETATM    3  H1  UNL     1      -8.857  19.808  65.558  1.00  0.00     0.000 HD 
HETATM    4  CA  UNL     1      -7.701  18.445  66.713  1.00  0.00    -0.229 C  
HETATM    5  C   UNL     1      -6.429  18.694  65.883  1.00  0.00    -0.243 C  
HETATM    6  OXT UNL     1      -5.296  18.393  66.221  1.00  0.00    -0.135 OA 
HETATM    7  O   UNL     1      -6.717  19.320  64.712  1.00  0.00    -0.434 OA 
ENDROOT
BRANCH   4   8
HETATM    8  C   UNL     1      -7.760  16.996  67.238  1.00  0.00    -0.196 C  
BRANCH   8   9
HETATM    9  C   UNL     1      -9.094  16.309  67.037  1.00  0.00    -0.226 A  
HETATM   10  C   UNL     1     -10.080  16.379  68.037  1.00  0.00    -0.248 A  
HETATM   11  C   UNL     1     -11.270  15.677  67.883  1.00  0.00    -0.328 A  
HETATM   12  O   UNL     1     -12.250  15.704  68.835  1.00  0.00    -0.587 OA 
HETATM   13  C   UNL     1     -11.492  14.913  66.743  1.00  0.00    -0.301 A  
HETATM   14  H   UNL     1     -13.064  15.225  68.730  1.00  0.00     0.000 HD 
HETATM   15  O   UNL     1     -12.651  14.203  66.612  1.00  0.00    -0.549 OA 
HETATM   16  C   UNL     1     -10.544  14.853  65.733  1.00  0.00    -0.342 A  
HETATM   17  C   UNL     1      -9.347  15.559  65.875  1.00  0.00    -0.355 A  
HETATM   18  H   UNL     1     -12.802  13.680  65.833  1.00  0.00     0.000 HD 
ENDBRANCH   8   9
ENDBRANCH   4   8
TORSDOF 2
ENDMDL
MODEL      118
REMARK 921   NORMALIZED FREE ENERGY PREDICTED BY IDOCK:   -3.96 KCAL/MOL
REMARK 922        TOTAL FREE ENERGY PREDICTED BY IDOCK:   -4.60 KCAL/MOL
REMARK 923 INTER-LIGAND FREE ENERGY PREDICTED BY IDOCK:   -4.36 KCAL/MOL
REMARK 924 INTRA-LIGAND FREE ENERGY PREDICTED BY IDOCK:   -0.25 KCAL/MOL
REMARK 927      BINDING AFFINITY PREDICTED BY RF-SCORE:    0.00 PKD
ROOT
HETATM    1  N   UNL     1      -8.711  15.037  66.305  1.00  0.00    -0.461 NA 
HETATM    2  H2  UNL     1      -7.733  14.917  66.043  1.00  0.00     0.000 HD 
HETATM    3  H1  UNL     1      -9.057  14.207  66.788  1.00  0.00     0.000 HD 
HETATM    4  CA  UNL     1      -8.898  16.310  67.072  1.00  0.00    -0.205 C  
HETATM    5  C   UNL     1     -10.384  16.452  67.448  1.00  0.00    -0.295 C  
HETATM    6  OXT UNL     1     -10.881  17.419  68.003  1.00  0.00    -0.384 OA 
HETATM    7  O   UNL     1     -11.091  15.345  67.101  1.00  0.00    -0.327 OA 
ENDROOT
BRANCH   4   8
HETATM    8  C   UNL     1      -8.376  17.564  66.343  1.00  0.00    -0.297 C  
BRANCH   8   9
HETATM    9  C   UNL     1      -7.574  18.508  67.214  1.00  0.00    -0.228 A  
HETATM   10  C   UNL     1      -7.043  18.060  68.436  1.00  0.00    -0.247 A  
HETATM   11  C   UNL     1      -6.379  18.953  69.270  1.00  0.00    -0.275 A  
HETATM   12  O   UNL     1      -5.860  18.564  70.473  1.00  0.00    -0.190 OA 
HETATM   13  C   UNL     1      -6.235  20.284  68.898  1.00  0.00    -0.330 A  
HETATM   14  H   UNL     1      -5.406  19.174  71.042  1.00  0.00     0.000 HD 
HETATM   15  O   UNL     1      -5.608  21.162  69.735  1.00  0.00    -0.462 OA 
HETATM   16  C   UNL     1      -6.728  20.741  67.685  1.00  0.00    -0.394 A  
HETATM   17  C   UNL     1      -7.390  19.850  66.838  1.00  0.00    -0.259 A  
HETATM   18  H   UNL     1      -5.510  22.073  69.481  1.00  0.00     0.000 HD 
ENDBRANCH   8   9
ENDBRANCH   4   8
TORSDOF 2
ENDMDL
MODEL      119
REMARK 921   NORMALIZED FREE ENERGY PREDICTED BY IDOCK:   -3.95 KCAL/MOL
REMARK 922        TOTAL FREE ENERGY PREDICTED BY IDOCK:   -4.60 KCAL/MOL
REMARK 923 INTER-LIGAND FREE ENERGY PREDICTED BY IDOCK:   -4.37 KCAL/MOL
REMARK 924 INTRA-LIGAND FREE ENERGY PREDICTED BY IDOCK:   -0.23 KCAL/MOL
REMARK 927      BINDING AFFINITY PREDICTED BY RF-SCORE:    0.00 PKD
ROOT
HETATM    1  N   UNL     1     -10.728   7.685  66.942  1.00  0.00    -0.491 NA 
HETATM    2  H2  UNL     1     -11.724   7.534  67.103  1.00  0.00     0.000 HD 
HETATM    3  H1  UNL     1     -10.560   7.967  65.976  1.00  0.00     0.000 HD 
HETATM    4  CA  UNL     1     -10.168   8.631  67.959  1.00  0.00    -0.210 C  
HETATM    5  C   UNL     1      -8.667   8.830  67.682  1.00  0.00    -0.135 C  
HETATM    6  OXT UNL     1      -7.901   9.476  68.379  1.00  0.00    -0.085 OA 
HETATM    7  O   UNL     1      -8.288   8.207  66.535  1.00  0.00    -0.107 OA 
ENDROOT
BRANCH   4   8
HETATM    8  C   UNL     1     -10.423   8.205  69.419  1.00  0.00    -0.223 C  
BRANCH   8   9
HETATM    9  C   UNL     1     -11.320   9.142  70.199  1.00  0.00    -0.164 A  
HETATM   10  C   UNL     1     -11.306  10.521  69.925  1.00  0.00    -0.380 A  
HETATM   11  C   UNL     1     -12.070  11.387  70.700  1.00  0.00    -0.372 A  
HETATM   12  O   UNL     1     -12.076  12.736  70.479  1.00  0.00    -0.442 OA 
HETATM   13  C   UNL     1     -12.851  10.894  71.739  1.00  0.00    -0.404 A  
HETATM   14  H   UNL     1     -12.598  13.327  71.008  1.00  0.00     0.000 HD 
HETATM   15  O   UNL     1     -13.575  11.754  72.515  1.00  0.00    -0.521 OA 
HETATM   16  C   UNL     1     -12.899   9.535  72.009  1.00  0.00    -0.499 A  
HETATM   17  C   UNL     1     -12.140   8.657  71.232  1.00  0.00    -0.333 A  
HETATM   18  H   UNL     1     -14.108  11.417  73.226  1.00  0.00     0.000 HD 
ENDBRANCH   8   9
ENDBRANCH   4   8
TORSDOF 2
ENDMDL
MODEL      120
REMARK 921   NORMALIZED FREE ENERGY PREDICTED BY IDOCK:   -3.90 KCAL/MOL
REMARK 922        TOTAL FREE ENERGY PREDICTED BY IDOCK:   -4.54 KCAL/MOL
REMARK 923 INTER-LIGAND FREE ENERGY PREDICTED BY IDOCK:   -4.38 KCAL/MOL
REMARK 924 INTRA-LIGAND FREE ENERGY PREDICTED BY IDOCK:   -0.17 KCAL/MOL
REMARK 927      BINDING AFFINITY PREDICTED BY RF-SCORE:    0.00 PKD
ROOT
HETATM    1  N   UNL     1      -8.366   8.226  67.892  1.00  0.00    -0.127 NA 
HETATM    2  H2  UNL     1      -7.910   8.827  67.206  1.00  0.00     0.000 HD 
HETATM    3  H1  UNL     1      -7.694   7.902  68.587  1.00  0.00     0.000 HD 
HETATM    4  CA  UNL     1      -9.565   8.908  68.475  1.00  0.00    -0.157 C  
HETATM    5  C   UNL     1     -10.223   7.969  69.502  1.00  0.00    -0.209 C  
HETATM    6  OXT UNL     1     -11.266   8.192  70.094  1.00  0.00    -0.232 OA 
HETATM    7  O   UNL     1      -9.481   6.847  69.694  1.00  0.00    -0.148 OA 
ENDROOT
BRANCH   4   8
HETATM    8  C   UNL     1     -10.581   9.398  67.424  1.00  0.00    -0.326 C  
BRANCH   8   9
HETATM    9  C   UNL     1     -11.024  10.835  67.601  1.00  0.00    -0.365 A  
HETATM   10  C   UNL     1     -11.116  11.390  68.889  1.00  0.00    -0.290 A  
HETATM   11  C   UNL     1     -11.602  12.683  69.051  1.00  0.00    -0.317 A  
HETATM   12  O   UNL     1     -11.722  13.257  70.286  1.00  0.00    -0.502 OA 
HETATM   13  C   UNL     1     -11.992  13.429  67.945  1.00  0.00    -0.323 A  
HETATM   14  H   UNL     1     -12.054  14.140  70.397  1.00  0.00     0.000 HD 
HETATM   15  O   UNL     1     -12.497  14.687  68.115  1.00  0.00    -0.587 OA 
HETATM   16  C   UNL     1     -11.885  12.910  66.665  1.00  0.00    -0.461 A  
HETATM   17  C   UNL     1     -11.391  11.615  66.491  1.00  0.00    -0.331 A  
HETATM   18  H   UNL     1     -12.764  15.197  67.359  1.00  0.00     0.000 HD 
ENDBRANCH   8   9
ENDBRANCH   4   8
TORSDOF 2
ENDMDL
MODEL      121
REMARK 921   NORMALIZED FREE ENERGY PREDICTED BY IDOCK:   -3.90 KCAL/MOL
REMARK 922        TOTAL FREE ENERGY PREDICTED BY IDOCK:   -4.54 KCAL/MOL
REMARK 923 INTER-LIGAND FREE ENERGY PREDICTED BY IDOCK:   -4.33 KCAL/MOL
REMARK 924 INTRA-LIGAND FREE ENERGY PREDICTED BY IDOCK:   -0.21 KCAL/MOL
REMARK 927      BINDING AFFINITY PREDICTED BY RF-SCORE:    0.00 PKD
ROOT
HETATM    1  N   UNL     1      -9.901  14.086  64.994  1.00  0.00    -0.588 NA 
HETATM    2  H2  UNL     1      -9.622  13.145  64.716  1.00  0.00     0.000 HD 
HETATM    3  H1  UNL     1     -10.515  14.500  64.292  1.00  0.00     0.000 HD 
HETATM    4  CA  UNL     1     -10.477  14.077  66.377  1.00  0.00    -0.284 C  
HETATM    5  C   UNL     1     -10.884  15.511  66.758  1.00  0.00    -0.291 C  
HETATM    6  OXT UNL     1     -11.308  15.858  67.848  1.00  0.00    -0.330 OA 
HETATM    7  O   UNL     1     -10.733  16.364  65.710  1.00  0.00    -0.313 OA 
ENDROOT
BRANCH   4   8
HETATM    8  C   UNL     1      -9.550  13.451  67.438  1.00  0.00    -0.223 C  
BRANCH   8   9
HETATM    9  C   UNL     1      -9.998  12.096  67.944  1.00  0.00    -0.200 A  
HETATM   10  C   UNL     1     -11.215  11.971  68.637  1.00  0.00    -0.309 A  
HETATM   11  C   UNL     1     -11.583  10.741  69.171  1.00  0.00    -0.305 A  
HETATM   12  O   UNL     1     -12.749  10.577  69.864  1.00  0.00    -0.533 OA 
HETATM   13  C   UNL     1     -10.755   9.635  69.018  1.00  0.00    -0.211 A  
HETATM   14  H   UNL     1     -13.000   9.737  70.229  1.00  0.00     0.000 HD 
HETATM   15  O   UNL     1     -11.108   8.437  69.572  1.00  0.00    -0.429 OA 
HETATM   16  C   UNL     1      -9.564   9.731  68.316  1.00  0.00    -0.155 A  
HETATM   17  C   UNL     1      -9.189  10.960  67.770  1.00  0.00    -0.155 A  
HETATM   18  H   UNL     1     -10.542   7.681  69.467  1.00  0.00     0.000 HD 
ENDBRANCH   8   9
ENDBRANCH   4   8
TORSDOF 2
ENDMDL
MODEL      122
REMARK 921   NORMALIZED FREE ENERGY PREDICTED BY IDOCK:   -3.89 KCAL/MOL
REMARK 922        TOTAL FREE ENERGY PREDICTED BY IDOCK:   -4.53 KCAL/MOL
REMARK 923 INTER-LIGAND FREE ENERGY PREDICTED BY IDOCK:   -4.34 KCAL/MOL
REMARK 924 INTRA-LIGAND FREE ENERGY PREDICTED BY IDOCK:   -0.19 KCAL/MOL
REMARK 927      BINDING AFFINITY PREDICTED BY RF-SCORE:    0.00 PKD
ROOT
HETATM    1  N   UNL     1     -11.375   6.903  66.916  1.00  0.00    -0.713 NA 
HETATM    2  H2  UNL     1     -11.705   7.503  66.160  1.00  0.00     0.000 HD 
HETATM    3  H1  UNL     1     -11.197   5.959  66.573  1.00  0.00     0.000 HD 
HETATM    4  CA  UNL     1     -10.204   7.528  67.611  1.00  0.00    -0.213 C  
HETATM    5  C   UNL     1      -9.738   6.594  68.741  1.00  0.00    -0.130 C  
HETATM    6  OXT UNL     1      -8.859   6.849  69.549  1.00  0.00    -0.133 OA 
HETATM    7  O   UNL     1     -10.419   5.418  68.725  1.00  0.00    -0.197 OA 
ENDROOT
BRANCH   4   8
HETATM    8  C   UNL     1     -10.472   8.955  68.129  1.00  0.00    -0.254 C  
BRANCH   8   9
HETATM    9  C   UNL     1     -10.397  10.033  67.068  1.00  0.00    -0.305 A  
HETATM   10  C   UNL     1      -9.464   9.928  66.022  1.00  0.00    -0.258 A  
HETATM   11  C   UNL     1      -9.342  10.960  65.098  1.00  0.00    -0.218 A  
HETATM   12  O   UNL     1      -8.439  10.906  64.074  1.00  0.00    -0.362 OA 
HETATM   13  C   UNL     1     -10.142  12.092  65.202  1.00  0.00    -0.266 A  
HETATM   14  H   UNL     1      -8.355  11.611  63.443  1.00  0.00     0.000 HD 
HETATM   15  O   UNL     1      -9.996  13.115  64.309  1.00  0.00    -0.620 OA 
HETATM   16  C   UNL     1     -11.086  12.204  66.211  1.00  0.00    -0.353 A  
HETATM   17  C   UNL     1     -11.221  11.170  67.139  1.00  0.00    -0.320 A  
HETATM   18  H   UNL     1     -10.542  13.888  64.380  1.00  0.00     0.000 HD 
ENDBRANCH   8   9
ENDBRANCH   4   8
TORSDOF 2
ENDMDL
MODEL      123
REMARK 921   NORMALIZED FREE ENERGY PREDICTED BY IDOCK:   -3.86 KCAL/MOL
REMARK 922        TOTAL FREE ENERGY PREDICTED BY IDOCK:   -4.50 KCAL/MOL
REMARK 923 INTER-LIGAND FREE ENERGY PREDICTED BY IDOCK:   -4.59 KCAL/MOL
REMARK 924 INTRA-LIGAND FREE ENERGY PREDICTED BY IDOCK:    0.09 KCAL/MOL
REMARK 927      BINDING AFFINITY PREDICTED BY RF-SCORE:    0.00 PKD
ROOT
HETATM    1  N   UNL     1      -9.379   6.658  71.221  1.00  0.00    -0.159 NA 
HETATM    2  H2  UNL     1      -8.591   6.868  71.833  1.00  0.00     0.000 HD 
HETATM    3  H1  UNL     1      -9.307   5.708  70.856  1.00  0.00     0.000 HD 
HETATM    4  CA  UNL     1     -10.675   6.947  71.914  1.00  0.00    -0.218 C  
HETATM    5  C   UNL     1     -11.836   6.618  70.959  1.00  0.00    -0.372 C  
HETATM    6  OXT UNL     1     -13.018   6.820  71.189  1.00  0.00    -0.282 OA 
HETATM    7  O   UNL     1     -11.387   6.044  69.812  1.00  0.00    -0.409 OA 
ENDROOT
BRANCH   4   8
HETATM    8  C   UNL     1     -10.785   8.383  72.465  1.00  0.00    -0.372 C  
BRANCH   8   9
HETATM    9  C   UNL     1     -11.154   9.425  71.431  1.00  0.00    -0.450 A  
HETATM   10  C   UNL     1     -10.294   9.681  70.349  1.00  0.00    -0.350 A  
HETATM   11  C   UNL     1     -10.597  10.696  69.450  1.00  0.00    -0.239 A  
HETATM   12  O   UNL     1      -9.782  10.989  68.392  1.00  0.00    -0.166 OA 
HETATM   13  C   UNL     1     -11.750  11.456  69.612  1.00  0.00    -0.345 A  
HETATM   14  H   UNL     1      -9.989  11.682  67.777  1.00  0.00     0.000 HD 
HETATM   15  O   UNL     1     -12.026  12.471  68.742  1.00  0.00    -0.310 OA 
HETATM   16  C   UNL     1     -12.626  11.203  70.657  1.00  0.00    -0.408 A  
HETATM   17  C   UNL     1     -12.333  10.181  71.562  1.00  0.00    -0.505 A  
HETATM   18  H   UNL     1     -12.814  12.991  68.853  1.00  0.00     0.000 HD 
ENDBRANCH   8   9
ENDBRANCH   4   8
TORSDOF 2
ENDMDL
MODEL      124
REMARK 921   NORMALIZED FREE ENERGY PREDICTED BY IDOCK:   -3.84 KCAL/MOL
REMARK 922        TOTAL FREE ENERGY PREDICTED BY IDOCK:   -4.48 KCAL/MOL
REMARK 923 INTER-LIGAND FREE ENERGY PREDICTED BY IDOCK:   -4.47 KCAL/MOL
REMARK 924 INTRA-LIGAND FREE ENERGY PREDICTED BY IDOCK:   -0.01 KCAL/MOL
REMARK 927      BINDING AFFINITY PREDICTED BY RF-SCORE:    0.00 PKD
ROOT
HETATM    1  N   UNL     1     -11.021  12.130  66.422  1.00  0.00    -0.274 NA 
HETATM    2  H2  UNL     1     -10.977  12.392  67.406  1.00  0.00     0.000 HD 
HETATM    3  H1  UNL     1     -11.253  11.141  66.324  1.00  0.00     0.000 HD 
HETATM    4  CA  UNL     1     -11.939  13.047  65.673  1.00  0.00    -0.429 C  
HETATM    5  C   UNL     1     -11.977  12.618  64.196  1.00  0.00    -0.426 C  
HETATM    6  OXT UNL     1     -12.565  13.210  63.305  1.00  0.00    -0.700 OA 
HETATM    7  O   UNL     1     -11.282  11.468  63.996  1.00  0.00    -0.369 OA 
ENDROOT
BRANCH   4   8
HETATM    8  C   UNL     1     -11.589  14.541  65.821  1.00  0.00    -0.347 C  
BRANCH   8   9
HETATM    9  C   UNL     1     -10.485  14.833  66.815  1.00  0.00    -0.282 A  
HETATM   10  C   UNL     1      -9.150  14.914  66.381  1.00  0.00    -0.293 A  
HETATM   11  C   UNL     1      -8.132  15.099  67.309  1.00  0.00    -0.201 A  
HETATM   12  O   UNL     1      -6.819  15.169  66.934  1.00  0.00    -0.287 OA 
HETATM   13  C   UNL     1      -8.428  15.209  68.663  1.00  0.00    -0.170 A  
HETATM   14  H   UNL     1      -6.123  15.295  67.568  1.00  0.00     0.000 HD 
HETATM   15  O   UNL     1      -7.421  15.360  69.572  1.00  0.00    -0.204 OA 
HETATM   16  C   UNL     1      -9.740  15.158  69.109  1.00  0.00    -0.232 A  
HETATM   17  C   UNL     1     -10.770  14.980  68.183  1.00  0.00    -0.256 A  
HETATM   18  H   UNL     1      -7.624  15.435  70.497  1.00  0.00     0.000 HD 
ENDBRANCH   8   9
ENDBRANCH   4   8
TORSDOF 2
ENDMDL
MODEL      125
REMARK 921   NORMALIZED FREE ENERGY PREDICTED BY IDOCK:   -3.84 KCAL/MOL
REMARK 922        TOTAL FREE ENERGY PREDICTED BY IDOCK:   -4.47 KCAL/MOL
REMARK 923 INTER-LIGAND FREE ENERGY PREDICTED BY IDOCK:   -4.39 KCAL/MOL
REMARK 924 INTRA-LIGAND FREE ENERGY PREDICTED BY IDOCK:   -0.09 KCAL/MOL
REMARK 927      BINDING AFFINITY PREDICTED BY RF-SCORE:    0.00 PKD
ROOT
HETATM    1  N   UNL     1     -11.164  13.941  69.971  1.00  0.00    -0.480 NA 
HETATM    2  H2  UNL     1     -11.411  14.897  70.224  1.00  0.00     0.000 HD 
HETATM    3  H1  UNL     1     -11.221  13.328  70.785  1.00  0.00     0.000 HD 
HETATM    4  CA  UNL     1     -11.980  13.479  68.803  1.00  0.00    -0.339 C  
HETATM    5  C   UNL     1     -11.578  12.035  68.454  1.00  0.00    -0.311 C  
HETATM    6  OXT UNL     1     -11.997  11.397  67.500  1.00  0.00    -0.626 OA 
HETATM    7  O   UNL     1     -10.699  11.532  69.359  1.00  0.00    -0.179 OA 
ENDROOT
BRANCH   4   8
HETATM    8  C   UNL     1     -11.895  14.404  67.573  1.00  0.00    -0.418 C  
BRANCH   8   9
HETATM    9  C   UNL     1     -10.703  15.337  67.571  1.00  0.00    -0.285 A  
HETATM   10  C   UNL     1      -9.450  14.879  67.127  1.00  0.00    -0.231 A  
HETATM   11  C   UNL     1      -8.342  15.714  67.205  1.00  0.00    -0.208 A  
HETATM   12  O   UNL     1      -7.102  15.305  66.799  1.00  0.00    -0.277 OA 
HETATM   13  C   UNL     1      -8.468  17.001  67.714  1.00  0.00    -0.198 A  
HETATM   14  H   UNL     1      -6.345  15.876  66.852  1.00  0.00     0.000 HD 
HETATM   15  O   UNL     1      -7.369  17.806  67.816  1.00  0.00    -0.195 OA 
HETATM   16  C   UNL     1      -9.699  17.482  68.133  1.00  0.00    -0.302 A  
HETATM   17  C   UNL     1     -10.820  16.653  68.052  1.00  0.00    -0.337 A  
HETATM   18  H   UNL     1      -7.456  18.685  68.165  1.00  0.00     0.000 HD 
ENDBRANCH   8   9
ENDBRANCH   4   8
TORSDOF 2
ENDMDL
MODEL      126
REMARK 921   NORMALIZED FREE ENERGY PREDICTED BY IDOCK:   -3.84 KCAL/MOL
REMARK 922        TOTAL FREE ENERGY PREDICTED BY IDOCK:   -4.47 KCAL/MOL
REMARK 923 INTER-LIGAND FREE ENERGY PREDICTED BY IDOCK:   -4.25 KCAL/MOL
REMARK 924 INTRA-LIGAND FREE ENERGY PREDICTED BY IDOCK:   -0.22 KCAL/MOL
REMARK 927      BINDING AFFINITY PREDICTED BY RF-SCORE:    0.00 PKD
ROOT
HETATM    1  N   UNL     1     -10.168  13.787  66.214  1.00  0.00    -0.290 NA 
HETATM    2  H2  UNL     1      -9.350  13.415  66.697  1.00  0.00     0.000 HD 
HETATM    3  H1  UNL     1      -9.884  14.403  65.452  1.00  0.00     0.000 HD 
HETATM    4  CA  UNL     1     -11.080  12.676  65.792  1.00  0.00    -0.297 C  
HETATM    5  C   UNL     1     -12.298  13.278  65.069  1.00  0.00    -0.448 C  
HETATM    6  OXT UNL     1     -13.266  12.649  64.675  1.00  0.00    -0.828 OA 
HETATM    7  O   UNL     1     -12.160  14.619  64.899  1.00  0.00    -0.401 OA 
ENDROOT
BRANCH   4   8
HETATM    8  C   UNL     1     -11.508  11.744  66.943  1.00  0.00    -0.364 C  
BRANCH   8   9
HETATM    9  C   UNL     1     -10.878  10.368  66.905  1.00  0.00    -0.229 A  
HETATM   10  C   UNL     1     -10.970   9.520  68.022  1.00  0.00    -0.155 A  
HETATM   11  C   UNL     1     -10.319   8.291  68.012  1.00  0.00    -0.213 A  
HETATM   12  O   UNL     1     -10.369   7.441  69.081  1.00  0.00    -0.198 OA 
HETATM   13  C   UNL     1      -9.583   7.896  66.900  1.00  0.00    -0.203 A  
HETATM   14  H   UNL     1      -9.925   6.602  69.075  1.00  0.00     0.000 HD 
HETATM   15  O   UNL     1      -8.922   6.701  66.910  1.00  0.00    -0.120 OA 
HETATM   16  C   UNL     1      -9.502   8.706  65.778  1.00  0.00    -0.192 A  
HETATM   17  C   UNL     1     -10.157   9.939  65.776  1.00  0.00    -0.317 A  
HETATM   18  H   UNL     1      -8.419   6.432  66.150  1.00  0.00     0.000 HD 
ENDBRANCH   8   9
ENDBRANCH   4   8
TORSDOF 2
ENDMDL
MODEL      127
REMARK 921   NORMALIZED FREE ENERGY PREDICTED BY IDOCK:   -3.83 KCAL/MOL
REMARK 922        TOTAL FREE ENERGY PREDICTED BY IDOCK:   -4.46 KCAL/MOL
REMARK 923 INTER-LIGAND FREE ENERGY PREDICTED BY IDOCK:   -4.28 KCAL/MOL
REMARK 924 INTRA-LIGAND FREE ENERGY PREDICTED BY IDOCK:   -0.18 KCAL/MOL
REMARK 927      BINDING AFFINITY PREDICTED BY RF-SCORE:    0.00 PKD
ROOT
HETATM    1  N   UNL     1     -11.078  12.157  69.709  1.00  0.00    -0.477 NA 
HETATM    2  H2  UNL     1     -10.402  12.645  69.123  1.00  0.00     0.000 HD 
HETATM    3  H1  UNL     1     -10.621  11.420  70.247  1.00  0.00     0.000 HD 
HETATM    4  CA  UNL     1     -11.852  13.130  70.544  1.00  0.00    -0.101 C  
HETATM    5  C   UNL     1     -12.860  12.355  71.410  1.00  0.00    -0.260 C  
HETATM    6  OXT UNL     1     -13.698  12.859  72.140  1.00  0.00    -0.501 OA 
HETATM    7  O   UNL     1     -12.693  11.012  71.282  1.00  0.00    -0.387 OA 
ENDROOT
BRANCH   4   8
HETATM    8  C   UNL     1     -12.543  14.243  69.730  1.00  0.00    -0.152 C  
BRANCH   8   9
HETATM    9  C   UNL     1     -11.594  15.161  68.989  1.00  0.00    -0.350 A  
HETATM   10  C   UNL     1     -11.481  15.076  67.591  1.00  0.00    -0.344 A  
HETATM   11  C   UNL     1     -10.548  15.863  66.924  1.00  0.00    -0.309 A  
HETATM   12  O   UNL     1     -10.393  15.802  65.567  1.00  0.00    -0.355 OA 
HETATM   13  C   UNL     1      -9.732  16.736  67.634  1.00  0.00    -0.251 A  
HETATM   14  H   UNL     1      -9.756  16.340  65.112  1.00  0.00     0.000 HD 
HETATM   15  O   UNL     1      -8.797  17.484  66.976  1.00  0.00    -0.228 OA 
HETATM   16  C   UNL     1      -9.846  16.854  69.011  1.00  0.00    -0.247 A  
HETATM   17  C   UNL     1     -10.784  16.073  69.688  1.00  0.00    -0.316 A  
HETATM   18  H   UNL     1      -8.240  18.080  67.462  1.00  0.00     0.000 HD 
ENDBRANCH   8   9
ENDBRANCH   4   8
TORSDOF 2
ENDMDL
MODEL      128
REMARK 921   NORMALIZED FREE ENERGY PREDICTED BY IDOCK:   -3.82 KCAL/MOL
REMARK 922        TOTAL FREE ENERGY PREDICTED BY IDOCK:   -4.45 KCAL/MOL
REMARK 923 INTER-LIGAND FREE ENERGY PREDICTED BY IDOCK:   -4.20 KCAL/MOL
REMARK 924 INTRA-LIGAND FREE ENERGY PREDICTED BY IDOCK:   -0.25 KCAL/MOL
REMARK 927      BINDING AFFINITY PREDICTED BY RF-SCORE:    0.00 PKD
ROOT
HETATM    1  N   UNL     1     -11.736  13.048  65.430  1.00  0.00    -0.345 NA 
HETATM    2  H2  UNL     1     -12.419  13.766  65.188  1.00  0.00     0.000 HD 
HETATM    3  H1  UNL     1     -11.458  12.524  64.600  1.00  0.00     0.000 HD 
HETATM    4  CA  UNL     1     -10.590  13.646  66.186  1.00  0.00    -0.291 C  
HETATM    5  C   UNL     1      -9.585  12.533  66.531  1.00  0.00    -0.242 C  
HETATM    6  OXT UNL     1      -8.584  12.674  67.215  1.00  0.00    -0.180 OA 
HETATM    7  O   UNL     1      -9.938  11.352  65.959  1.00  0.00    -0.215 OA 
ENDROOT
BRANCH   4   8
HETATM    8  C   UNL     1     -11.011  14.438  67.440  1.00  0.00    -0.303 C  
BRANCH   8   9
HETATM    9  C   UNL     1     -10.510  15.866  67.479  1.00  0.00    -0.298 A  
HETATM   10  C   UNL     1      -9.580  16.312  66.524  1.00  0.00    -0.286 A  
HETATM   11  C   UNL     1      -9.060  17.599  66.613  1.00  0.00    -0.264 A  
HETATM   12  O   UNL     1      -8.143  18.069  65.716  1.00  0.00    -0.525 OA 
HETATM   13  C   UNL     1      -9.461  18.447  67.640  1.00  0.00    -0.272 A  
HETATM   14  H   UNL     1      -7.788  18.948  65.777  1.00  0.00     0.000 HD 
HETATM   15  O   UNL     1      -8.924  19.698  67.739  1.00  0.00    -0.308 OA 
HETATM   16  C   UNL     1     -10.397  18.035  68.576  1.00  0.00    -0.359 A  
HETATM   17  C   UNL     1     -10.929  16.747  68.491  1.00  0.00    -0.312 A  
HETATM   18  H   UNL     1      -9.197  20.277  68.441  1.00  0.00     0.000 HD 
ENDBRANCH   8   9
ENDBRANCH   4   8
TORSDOF 2
ENDMDL
MODEL      129
REMARK 921   NORMALIZED FREE ENERGY PREDICTED BY IDOCK:   -3.82 KCAL/MOL
REMARK 922        TOTAL FREE ENERGY PREDICTED BY IDOCK:   -4.45 KCAL/MOL
REMARK 923 INTER-LIGAND FREE ENERGY PREDICTED BY IDOCK:   -4.22 KCAL/MOL
REMARK 924 INTRA-LIGAND FREE ENERGY PREDICTED BY IDOCK:   -0.23 KCAL/MOL
REMARK 927      BINDING AFFINITY PREDICTED BY RF-SCORE:    0.00 PKD
ROOT
HETATM    1  N   UNL     1     -11.233   5.009  65.826  1.00  0.00    -0.867 NA 
HETATM    2  H2  UNL     1     -12.177   5.028  66.210  1.00  0.00     0.000 HD 
HETATM    3  H1  UNL     1     -11.239   5.292  64.845  1.00  0.00     0.000 HD 
HETATM    4  CA  UNL     1     -10.299   5.806  66.684  1.00  0.00    -0.243 C  
HETATM    5  C   UNL     1      -8.888   5.752  66.070  1.00  0.00    -0.148 C  
HETATM    6  OXT UNL     1      -7.883   6.229  66.570  1.00  0.00    -0.101 OA 
HETATM    7  O   UNL     1      -8.894   5.114  64.870  1.00  0.00    -0.154 OA 
ENDROOT
BRANCH   4   8
HETATM    8  C   UNL     1     -10.289   5.379  68.165  1.00  0.00    -0.210 C  
BRANCH   8   9
HETATM    9  C   UNL     1     -10.716   6.461  69.133  1.00  0.00    -0.339 A  
HETATM   10  C   UNL     1     -11.637   6.168  70.155  1.00  0.00    -0.260 A  
HETATM   11  C   UNL     1     -12.089   7.185  70.989  1.00  0.00    -0.350 A  
HETATM   12  O   UNL     1     -12.994   6.949  71.986  1.00  0.00    -0.518 OA 
HETATM   13  C   UNL     1     -11.630   8.486  70.821  1.00  0.00    -0.231 A  
HETATM   14  H   UNL     1     -13.303   7.643  72.556  1.00  0.00     0.000 HD 
HETATM   15  O   UNL     1     -12.101   9.485  71.625  1.00  0.00    -0.354 OA 
HETATM   16  C   UNL     1     -10.702   8.791  69.837  1.00  0.00    -0.228 A  
HETATM   17  C   UNL     1     -10.237   7.776  68.998  1.00  0.00    -0.213 A  
HETATM   18  H   UNL     1     -11.788  10.374  71.510  1.00  0.00     0.000 HD 
ENDBRANCH   8   9
ENDBRANCH   4   8
TORSDOF 2
ENDMDL
MODEL      130
REMARK 921   NORMALIZED FREE ENERGY PREDICTED BY IDOCK:   -3.81 KCAL/MOL
REMARK 922        TOTAL FREE ENERGY PREDICTED BY IDOCK:   -4.44 KCAL/MOL
REMARK 923 INTER-LIGAND FREE ENERGY PREDICTED BY IDOCK:   -4.22 KCAL/MOL
REMARK 924 INTRA-LIGAND FREE ENERGY PREDICTED BY IDOCK:   -0.22 KCAL/MOL
REMARK 927      BINDING AFFINITY PREDICTED BY RF-SCORE:    0.00 PKD
ROOT
HETATM    1  N   UNL     1      -9.238  10.066  68.782  1.00  0.00    -0.152 NA 
HETATM    2  H2  UNL     1     -10.173   9.721  68.566  1.00  0.00     0.000 HD 
HETATM    3  H1  UNL     1      -8.574   9.293  68.833  1.00  0.00     0.000 HD 
HETATM    4  CA  UNL     1      -8.842  11.146  67.822  1.00  0.00    -0.135 C  
HETATM    5  C   UNL     1      -7.429  11.638  68.181  1.00  0.00    -0.103 C  
HETATM    6  OXT UNL     1      -6.849  12.569  67.644  1.00  0.00    -0.106 OA 
HETATM    7  O   UNL     1      -6.879  10.888  69.172  1.00  0.00    -0.067 OA 
ENDROOT
BRANCH   4   8
HETATM    8  C   UNL     1      -9.845  12.314  67.743  1.00  0.00    -0.201 C  
BRANCH   8   9
HETATM    9  C   UNL     1     -10.347  12.618  66.348  1.00  0.00    -0.264 A  
HETATM   10  C   UNL     1     -10.592  13.947  65.961  1.00  0.00    -0.293 A  
HETATM   11  C   UNL     1     -11.131  14.214  64.707  1.00  0.00    -0.387 A  
HETATM   12  O   UNL     1     -11.399  15.489  64.295  1.00  0.00    -0.714 OA 
HETATM   13  C   UNL     1     -11.424  13.172  63.834  1.00  0.00    -0.401 A  
HETATM   14  H   UNL     1     -11.767  15.671  63.439  1.00  0.00     0.000 HD 
HETATM   15  O   UNL     1     -11.982  13.440  62.616  1.00  0.00    -0.618 OA 
HETATM   16  C   UNL     1     -11.166  11.857  64.186  1.00  0.00    -0.446 A  
HETATM   17  C   UNL     1     -10.619  11.579  65.440  1.00  0.00    -0.336 A  
HETATM   18  H   UNL     1     -12.183  12.728  62.020  1.00  0.00     0.000 HD 
ENDBRANCH   8   9
ENDBRANCH   4   8
TORSDOF 2
ENDMDL
MODEL      131
REMARK 921   NORMALIZED FREE ENERGY PREDICTED BY IDOCK:   -3.81 KCAL/MOL
REMARK 922        TOTAL FREE ENERGY PREDICTED BY IDOCK:   -4.44 KCAL/MOL
REMARK 923 INTER-LIGAND FREE ENERGY PREDICTED BY IDOCK:   -4.47 KCAL/MOL
REMARK 924 INTRA-LIGAND FREE ENERGY PREDICTED BY IDOCK:    0.03 KCAL/MOL
REMARK 927      BINDING AFFINITY PREDICTED BY RF-SCORE:    0.00 PKD
ROOT
HETATM    1  N   UNL     1      -8.352   6.467  70.147  1.00  0.00    -0.132 NA 
HETATM    2  H2  UNL     1      -7.537   7.081  70.156  1.00  0.00     0.000 HD 
HETATM    3  H1  UNL     1      -8.188   5.663  69.540  1.00  0.00     0.000 HD 
HETATM    4  CA  UNL     1      -8.752   6.105  71.544  1.00  0.00    -0.135 C  
HETATM    5  C   UNL     1      -9.982   5.181  71.487  1.00  0.00    -0.187 C  
HETATM    6  OXT UNL     1     -10.604   4.774  72.455  1.00  0.00    -0.206 OA 
HETATM    7  O   UNL     1     -10.290   4.845  70.206  1.00  0.00    -0.254 OA 
ENDROOT
BRANCH   4   8
HETATM    8  C   UNL     1      -8.999   7.320  72.460  1.00  0.00    -0.152 C  
BRANCH   8   9
HETATM    9  C   UNL     1     -10.149   8.207  72.031  1.00  0.00    -0.304 A  
HETATM   10  C   UNL     1     -11.375   8.152  72.717  1.00  0.00    -0.406 A  
HETATM   11  C   UNL     1     -12.452   8.908  72.267  1.00  0.00    -0.369 A  
HETATM   12  O   UNL     1     -13.666   8.874  72.894  1.00  0.00    -0.848 OA 
HETATM   13  C   UNL     1     -12.320   9.720  71.147  1.00  0.00    -0.359 A  
HETATM   14  H   UNL     1     -14.402   9.391  72.587  1.00  0.00     0.000 HD 
HETATM   15  O   UNL     1     -13.391  10.436  70.693  1.00  0.00    -0.403 OA 
HETATM   16  C   UNL     1     -11.112   9.808  70.472  1.00  0.00    -0.384 A  
HETATM   17  C   UNL     1     -10.022   9.059  70.920  1.00  0.00    -0.326 A  
HETATM   18  H   UNL     1     -13.300  10.991  69.927  1.00  0.00     0.000 HD 
ENDBRANCH   8   9
ENDBRANCH   4   8
TORSDOF 2
ENDMDL
MODEL      132
REMARK 921   NORMALIZED FREE ENERGY PREDICTED BY IDOCK:   -3.81 KCAL/MOL
REMARK 922        TOTAL FREE ENERGY PREDICTED BY IDOCK:   -4.44 KCAL/MOL
REMARK 923 INTER-LIGAND FREE ENERGY PREDICTED BY IDOCK:   -4.28 KCAL/MOL
REMARK 924 INTRA-LIGAND FREE ENERGY PREDICTED BY IDOCK:   -0.15 KCAL/MOL
REMARK 927      BINDING AFFINITY PREDICTED BY RF-SCORE:    0.00 PKD
ROOT
HETATM    1  N   UNL     1     -11.364   6.704  67.104  1.00  0.00    -0.779 NA 
HETATM    2  H2  UNL     1     -11.385   6.884  66.101  1.00  0.00     0.000 HD 
HETATM    3  H1  UNL     1     -11.224   5.710  67.287  1.00  0.00     0.000 HD 
HETATM    4  CA  UNL     1     -10.366   7.594  67.778  1.00  0.00    -0.219 C  
HETATM    5  C   UNL     1     -10.366   7.291  69.287  1.00  0.00    -0.205 C  
HETATM    6  OXT UNL     1      -9.725   7.900  70.129  1.00  0.00    -0.178 OA 
HETATM    7  O   UNL     1     -11.164   6.230  69.580  1.00  0.00    -0.380 OA 
ENDROOT
BRANCH   4   8
HETATM    8  C   UNL     1     -10.577   9.095  67.502  1.00  0.00    -0.317 C  
BRANCH   8   9
HETATM    9  C   UNL     1     -10.025   9.574  66.176  1.00  0.00    -0.342 A  
HETATM   10  C   UNL     1     -10.504  10.765  65.602  1.00  0.00    -0.255 A  
HETATM   11  C   UNL     1     -10.054  11.156  64.346  1.00  0.00    -0.320 A  
HETATM   12  O   UNL     1     -10.503  12.297  63.743  1.00  0.00    -0.382 OA 
HETATM   13  C   UNL     1      -9.130  10.378  63.658  1.00  0.00    -0.253 A  
HETATM   14  H   UNL     1     -10.196  12.565  62.885  1.00  0.00     0.000 HD 
HETATM   15  O   UNL     1      -8.715  10.752  62.412  1.00  0.00    -0.234 OA 
HETATM   16  C   UNL     1      -8.625   9.214  64.218  1.00  0.00    -0.197 A  
HETATM   17  C   UNL     1      -9.066   8.816  65.482  1.00  0.00    -0.221 A  
HETATM   18  H   UNL     1      -8.084  10.220  61.942  1.00  0.00     0.000 HD 
ENDBRANCH   8   9
ENDBRANCH   4   8
TORSDOF 2
ENDMDL
MODEL      133
REMARK 921   NORMALIZED FREE ENERGY PREDICTED BY IDOCK:   -3.80 KCAL/MOL
REMARK 922        TOTAL FREE ENERGY PREDICTED BY IDOCK:   -4.43 KCAL/MOL
REMARK 923 INTER-LIGAND FREE ENERGY PREDICTED BY IDOCK:   -4.46 KCAL/MOL
REMARK 924 INTRA-LIGAND FREE ENERGY PREDICTED BY IDOCK:    0.03 KCAL/MOL
REMARK 927      BINDING AFFINITY PREDICTED BY RF-SCORE:    0.00 PKD
ROOT
HETATM    1  N   UNL     1     -11.964  11.021  67.997  1.00  0.00    -0.761 NA 
HETATM    2  H2  UNL     1     -12.972  11.038  67.843  1.00  0.00     0.000 HD 
HETATM    3  H1  UNL     1     -11.703  10.218  68.571  1.00  0.00     0.000 HD 
HETATM    4  CA  UNL     1     -11.231  11.102  66.693  1.00  0.00    -0.114 C  
HETATM    5  C   UNL     1      -9.717  11.072  66.970  1.00  0.00    -0.182 C  
HETATM    6  OXT UNL     1      -8.844  11.205  66.127  1.00  0.00    -0.181 OA 
HETATM    7  O   UNL     1      -9.457  10.857  68.286  1.00  0.00    -0.156 OA 
ENDROOT
BRANCH   4   8
HETATM    8  C   UNL     1     -11.625  12.314  65.827  1.00  0.00    -0.443 C  
BRANCH   8   9
HETATM    9  C   UNL     1     -11.059  13.636  66.301  1.00  0.00    -0.304 A  
HETATM   10  C   UNL     1     -11.515  14.206  67.502  1.00  0.00    -0.365 A  
HETATM   11  C   UNL     1     -11.053  15.459  67.891  1.00  0.00    -0.323 A  
HETATM   12  O   UNL     1     -11.479  16.058  69.043  1.00  0.00    -0.348 OA 
HETATM   13  C   UNL     1     -10.139  16.146  67.100  1.00  0.00    -0.269 A  
HETATM   14  H   UNL     1     -11.164  16.914  69.309  1.00  0.00     0.000 HD 
HETATM   15  O   UNL     1      -9.713  17.389  67.472  1.00  0.00    -0.256 OA 
HETATM   16  C   UNL     1      -9.657  15.590  65.925  1.00  0.00    -0.383 A  
HETATM   17  C   UNL     1     -10.110  14.329  65.529  1.00  0.00    -0.370 A  
HETATM   18  H   UNL     1      -9.089  17.858  66.931  1.00  0.00     0.000 HD 
ENDBRANCH   8   9
ENDBRANCH   4   8
TORSDOF 2
ENDMDL
MODEL      134
REMARK 921   NORMALIZED FREE ENERGY PREDICTED BY IDOCK:   -3.78 KCAL/MOL
REMARK 922        TOTAL FREE ENERGY PREDICTED BY IDOCK:   -4.41 KCAL/MOL
REMARK 923 INTER-LIGAND FREE ENERGY PREDICTED BY IDOCK:   -4.61 KCAL/MOL
REMARK 924 INTRA-LIGAND FREE ENERGY PREDICTED BY IDOCK:    0.20 KCAL/MOL
REMARK 927      BINDING AFFINITY PREDICTED BY RF-SCORE:    0.00 PKD
ROOT
HETATM    1  N   UNL     1      -9.802  13.582  65.700  1.00  0.00    -0.461 NA 
HETATM    2  H2  UNL     1      -8.833  13.378  65.458  1.00  0.00     0.000 HD 
HETATM    3  H1  UNL     1      -9.974  14.588  65.673  1.00  0.00     0.000 HD 
HETATM    4  CA  UNL     1     -10.738  12.782  64.847  1.00  0.00    -0.305 C  
HETATM    5  C   UNL     1     -12.186  13.119  65.244  1.00  0.00    -0.455 C  
HETATM    6  OXT UNL     1     -13.184  12.577  64.797  1.00  0.00    -0.839 OA 
HETATM    7  O   UNL     1     -12.229  14.126  66.155  1.00  0.00    -0.424 OA 
ENDROOT
BRANCH   4   8
HETATM    8  C   UNL     1     -10.479  11.263  64.887  1.00  0.00    -0.375 C  
BRANCH   8   9
HETATM    9  C   UNL     1     -10.305  10.692  66.279  1.00  0.00    -0.296 A  
HETATM   10  C   UNL     1      -9.237   9.821  66.554  1.00  0.00    -0.194 A  
HETATM   11  C   UNL     1      -9.130   9.234  67.810  1.00  0.00    -0.126 A  
HETATM   12  O   UNL     1      -8.117   8.370  68.118  1.00  0.00    -0.117 OA 
HETATM   13  C   UNL     1     -10.072   9.510  68.795  1.00  0.00    -0.188 A  
HETATM   14  H   UNL     1      -8.044   7.970  68.976  1.00  0.00     0.000 HD 
HETATM   15  O   UNL     1      -9.978   8.906  70.017  1.00  0.00    -0.179 OA 
HETATM   16  C   UNL     1     -11.118  10.386  68.552  1.00  0.00    -0.318 A  
HETATM   17  C   UNL     1     -11.230  10.985  67.296  1.00  0.00    -0.330 A  
HETATM   18  H   UNL     1     -10.622   9.095  70.690  1.00  0.00     0.000 HD 
ENDBRANCH   8   9
ENDBRANCH   4   8
TORSDOF 2
ENDMDL
MODEL      135
REMARK 921   NORMALIZED FREE ENERGY PREDICTED BY IDOCK:   -3.78 KCAL/MOL
REMARK 922        TOTAL FREE ENERGY PREDICTED BY IDOCK:   -4.41 KCAL/MOL
REMARK 923 INTER-LIGAND FREE ENERGY PREDICTED BY IDOCK:   -4.27 KCAL/MOL
REMARK 924 INTRA-LIGAND FREE ENERGY PREDICTED BY IDOCK:   -0.13 KCAL/MOL
REMARK 927      BINDING AFFINITY PREDICTED BY RF-SCORE:    0.00 PKD
ROOT
HETATM    1  N   UNL     1     -13.110  10.100  70.610  1.00  0.00    -0.585 NA 
HETATM    2  H2  UNL     1     -13.414  10.601  69.776  1.00  0.00     0.000 HD 
HETATM    3  H1  UNL     1     -13.863   9.513  70.970  1.00  0.00     0.000 HD 
HETATM    4  CA  UNL     1     -11.835   9.360  70.344  1.00  0.00    -0.090 C  
HETATM    5  C   UNL     1     -11.412   8.619  71.625  1.00  0.00    -0.305 C  
HETATM    6  OXT UNL     1     -10.375   7.991  71.767  1.00  0.00    -0.200 OA 
HETATM    7  O   UNL     1     -12.356   8.729  72.596  1.00  0.00    -0.346 OA 
ENDROOT
BRANCH   4   8
HETATM    8  C   UNL     1     -10.697  10.246  69.801  1.00  0.00    -0.328 C  
BRANCH   8   9
HETATM    9  C   UNL     1     -10.917  10.755  68.392  1.00  0.00    -0.299 A  
HETATM   10  C   UNL     1     -10.507   9.982  67.291  1.00  0.00    -0.313 A  
HETATM   11  C   UNL     1     -10.635  10.490  66.004  1.00  0.00    -0.093 A  
HETATM   12  O   UNL     1     -10.236   9.780  64.906  1.00  0.00    -0.310 OA 
HETATM   13  C   UNL     1     -11.171  11.757  65.800  1.00  0.00    -0.281 A  
HETATM   14  H   UNL     1     -10.324  10.127  64.026  1.00  0.00     0.000 HD 
HETATM   15  O   UNL     1     -11.265  12.262  64.534  1.00  0.00    -0.302 OA 
HETATM   16  C   UNL     1     -11.605  12.525  66.869  1.00  0.00    -0.436 A  
HETATM   17  C   UNL     1     -11.487  12.020  68.166  1.00  0.00    -0.383 A  
HETATM   18  H   UNL     1     -11.631  13.127  64.395  1.00  0.00     0.000 HD 
ENDBRANCH   8   9
ENDBRANCH   4   8
TORSDOF 2
ENDMDL
MODEL      136
REMARK 921   NORMALIZED FREE ENERGY PREDICTED BY IDOCK:   -3.77 KCAL/MOL
REMARK 922        TOTAL FREE ENERGY PREDICTED BY IDOCK:   -4.40 KCAL/MOL
REMARK 923 INTER-LIGAND FREE ENERGY PREDICTED BY IDOCK:   -4.17 KCAL/MOL
REMARK 924 INTRA-LIGAND FREE ENERGY PREDICTED BY IDOCK:   -0.23 KCAL/MOL
REMARK 927      BINDING AFFINITY PREDICTED BY RF-SCORE:    0.00 PKD
ROOT
HETATM    1  N   UNL     1     -10.293   8.723  69.114  1.00  0.00    -0.215 NA 
HETATM    2  H2  UNL     1     -11.261   9.042  69.105  1.00  0.00     0.000 HD 
HETATM    3  H1  UNL     1     -10.251   7.704  69.106  1.00  0.00     0.000 HD 
HETATM    4  CA  UNL     1      -9.515   9.374  68.012  1.00  0.00    -0.133 C  
HETATM    5  C   UNL     1      -8.062   8.868  68.060  1.00  0.00    -0.106 C  
HETATM    6  OXT UNL     1      -7.153   9.266  67.350  1.00  0.00    -0.078 OA 
HETATM    7  O   UNL     1      -7.909   7.890  68.990  1.00  0.00    -0.106 OA 
ENDROOT
BRANCH   4   8
HETATM    8  C   UNL     1      -9.579  10.914  68.024  1.00  0.00    -0.170 C  
BRANCH   8   9
HETATM    9  C   UNL     1     -10.204  11.527  66.789  1.00  0.00    -0.254 A  
HETATM   10  C   UNL     1      -9.532  11.465  65.555  1.00  0.00    -0.251 A  
HETATM   11  C   UNL     1     -10.071  12.101  64.442  1.00  0.00    -0.274 A  
HETATM   12  O   UNL     1      -9.446  12.080  63.227  1.00  0.00    -0.628 OA 
HETATM   13  C   UNL     1     -11.273  12.793  64.543  1.00  0.00    -0.333 A  
HETATM   14  H   UNL     1      -9.814  12.514  62.467  1.00  0.00     0.000 HD 
HETATM   15  O   UNL     1     -11.781  13.440  63.454  1.00  0.00    -0.710 OA 
HETATM   16  C   UNL     1     -11.964  12.843  65.744  1.00  0.00    -0.496 A  
HETATM   17  C   UNL     1     -11.434  12.202  66.866  1.00  0.00    -0.414 A  
HETATM   18  H   UNL     1     -12.602  13.913  63.523  1.00  0.00     0.000 HD 
ENDBRANCH   8   9
ENDBRANCH   4   8
TORSDOF 2
ENDMDL
MODEL      137
REMARK 921   NORMALIZED FREE ENERGY PREDICTED BY IDOCK:   -3.77 KCAL/MOL
REMARK 922        TOTAL FREE ENERGY PREDICTED BY IDOCK:   -4.40 KCAL/MOL
REMARK 923 INTER-LIGAND FREE ENERGY PREDICTED BY IDOCK:   -4.40 KCAL/MOL
REMARK 924 INTRA-LIGAND FREE ENERGY PREDICTED BY IDOCK:    0.01 KCAL/MOL
REMARK 927      BINDING AFFINITY PREDICTED BY RF-SCORE:    0.00 PKD
ROOT
HETATM    1  N   UNL     1      -8.502   5.837  71.694  1.00  0.00    -0.127 NA 
HETATM    2  H2  UNL     1      -7.697   6.448  71.559  1.00  0.00     0.000 HD 
HETATM    3  H1  UNL     1      -8.278   4.881  71.416  1.00  0.00     0.000 HD 
HETATM    4  CA  UNL     1      -9.027   5.958  73.091  1.00  0.00    -0.131 C  
HETATM    5  C   UNL     1     -10.239   5.023  73.252  1.00  0.00    -0.174 C  
HETATM    6  OXT UNL     1     -10.944   4.948  74.245  1.00  0.00    -0.322 OA 
HETATM    7  O   UNL     1     -10.426   4.259  72.144  1.00  0.00    -0.157 OA 
ENDROOT
BRANCH   4   8
HETATM    8  C   UNL     1      -9.366   7.402  73.511  1.00  0.00    -0.287 C  
BRANCH   8   9
HETATM    9  C   UNL     1     -10.343   8.109  72.595  1.00  0.00    -0.398 A  
HETATM   10  C   UNL     1      -9.878   9.054  71.663  1.00  0.00    -0.366 A  
HETATM   11  C   UNL     1     -10.786   9.760  70.883  1.00  0.00    -0.328 A  
HETATM   12  O   UNL     1     -10.380  10.698  69.975  1.00  0.00    -0.441 OA 
HETATM   13  C   UNL     1     -12.151   9.532  71.017  1.00  0.00    -0.318 A  
HETATM   14  H   UNL     1     -11.000  11.180  69.442  1.00  0.00     0.000 HD 
HETATM   15  O   UNL     1     -13.039  10.251  70.268  1.00  0.00    -0.557 OA 
HETATM   16  C   UNL     1     -12.629   8.586  71.910  1.00  0.00    -0.400 A  
HETATM   17  C   UNL     1     -11.724   7.867  72.694  1.00  0.00    -0.398 A  
HETATM   18  H   UNL     1     -13.972  10.095  70.360  1.00  0.00     0.000 HD 
ENDBRANCH   8   9
ENDBRANCH   4   8
TORSDOF 2
ENDMDL
MODEL      138
REMARK 921   NORMALIZED FREE ENERGY PREDICTED BY IDOCK:   -3.73 KCAL/MOL
REMARK 922        TOTAL FREE ENERGY PREDICTED BY IDOCK:   -4.36 KCAL/MOL
REMARK 923 INTER-LIGAND FREE ENERGY PREDICTED BY IDOCK:   -4.15 KCAL/MOL
REMARK 924 INTRA-LIGAND FREE ENERGY PREDICTED BY IDOCK:   -0.21 KCAL/MOL
REMARK 927      BINDING AFFINITY PREDICTED BY RF-SCORE:    0.00 PKD
ROOT
HETATM    1  N   UNL     1     -10.007   8.436  67.056  1.00  0.00    -0.226 NA 
HETATM    2  H2  UNL     1     -10.547   8.951  67.751  1.00  0.00     0.000 HD 
HETATM    3  H1  UNL     1      -9.195   8.977  66.758  1.00  0.00     0.000 HD 
HETATM    4  CA  UNL     1      -9.674   7.065  67.559  1.00  0.00    -0.136 C  
HETATM    5  C   UNL     1      -8.863   6.322  66.482  1.00  0.00    -0.138 C  
HETATM    6  OXT UNL     1      -8.507   5.156  66.546  1.00  0.00    -0.111 OA 
HETATM    7  O   UNL     1      -8.563   7.137  65.437  1.00  0.00    -0.123 OA 
ENDROOT
BRANCH   4   8
HETATM    8  C   UNL     1     -10.901   6.246  68.008  1.00  0.00    -0.409 C  
BRANCH   8   9
HETATM    9  C   UNL     1     -11.007   6.044  69.505  1.00  0.00    -0.467 A  
HETATM   10  C   UNL     1     -11.888   6.835  70.262  1.00  0.00    -0.359 A  
HETATM   11  C   UNL     1     -11.921   6.702  71.646  1.00  0.00    -0.347 A  
HETATM   12  O   UNL     1     -12.751   7.461  72.423  1.00  0.00    -0.504 OA 
HETATM   13  C   UNL     1     -11.090   5.787  72.282  1.00  0.00    -0.276 A  
HETATM   14  H   UNL     1     -12.774   7.370  73.368  1.00  0.00     0.000 HD 
HETATM   15  O   UNL     1     -11.105   5.684  73.644  1.00  0.00    -0.433 OA 
HETATM   16  C   UNL     1     -10.232   4.979  71.552  1.00  0.00    -0.273 A  
HETATM   17  C   UNL     1     -10.197   5.100  70.161  1.00  0.00    -0.348 A  
HETATM   18  H   UNL     1     -10.537   5.059  74.078  1.00  0.00     0.000 HD 
ENDBRANCH   8   9
ENDBRANCH   4   8
TORSDOF 2
ENDMDL
MODEL      139
REMARK 921   NORMALIZED FREE ENERGY PREDICTED BY IDOCK:   -3.73 KCAL/MOL
REMARK 922        TOTAL FREE ENERGY PREDICTED BY IDOCK:   -4.35 KCAL/MOL
REMARK 923 INTER-LIGAND FREE ENERGY PREDICTED BY IDOCK:   -4.15 KCAL/MOL
REMARK 924 INTRA-LIGAND FREE ENERGY PREDICTED BY IDOCK:   -0.20 KCAL/MOL
REMARK 927      BINDING AFFINITY PREDICTED BY RF-SCORE:    0.00 PKD
ROOT
HETATM    1  N   UNL     1      -9.180  10.612  69.277  1.00  0.00    -0.354 NA 
HETATM    2  H2  UNL     1     -10.064  10.534  68.776  1.00  0.00     0.000 HD 
HETATM    3  H1  UNL     1      -8.841   9.690  69.554  1.00  0.00     0.000 HD 
HETATM    4  CA  UNL     1      -8.192  11.409  68.482  1.00  0.00    -0.153 C  
HETATM    5  C   UNL     1      -6.875  11.503  69.272  1.00  0.00    -0.114 C  
HETATM    6  OXT UNL     1      -5.897  12.154  68.938  1.00  0.00    -0.057 OA 
HETATM    7  O   UNL     1      -6.918  10.746  70.399  1.00  0.00    -0.252 OA 
ENDROOT
BRANCH   4   8
HETATM    8  C   UNL     1      -8.703  12.802  68.064  1.00  0.00    -0.194 C  
BRANCH   8   9
HETATM    9  C   UNL     1      -9.907  12.781  67.146  1.00  0.00    -0.216 A  
HETATM   10  C   UNL     1      -9.822  12.160  65.887  1.00  0.00    -0.265 A  
HETATM   11  C   UNL     1     -10.904  12.215  65.016  1.00  0.00    -0.300 A  
HETATM   12  O   UNL     1     -10.861  11.638  63.777  1.00  0.00    -0.359 OA 
HETATM   13  C   UNL     1     -12.070  12.876  65.386  1.00  0.00    -0.454 A  
HETATM   14  H   UNL     1     -11.600  11.676  63.182  1.00  0.00     0.000 HD 
HETATM   15  O   UNL     1     -13.117  12.952  64.513  1.00  0.00    -0.728 OA 
HETATM   16  C   UNL     1     -12.183  13.472  66.632  1.00  0.00    -0.411 A  
HETATM   17  C   UNL     1     -11.105  13.417  67.517  1.00  0.00    -0.294 A  
HETATM   18  H   UNL     1     -13.914  13.405  64.765  1.00  0.00     0.000 HD 
ENDBRANCH   8   9
ENDBRANCH   4   8
TORSDOF 2
ENDMDL
MODEL      140
REMARK 921   NORMALIZED FREE ENERGY PREDICTED BY IDOCK:   -3.73 KCAL/MOL
REMARK 922        TOTAL FREE ENERGY PREDICTED BY IDOCK:   -4.35 KCAL/MOL
REMARK 923 INTER-LIGAND FREE ENERGY PREDICTED BY IDOCK:   -4.10 KCAL/MOL
REMARK 924 INTRA-LIGAND FREE ENERGY PREDICTED BY IDOCK:   -0.24 KCAL/MOL
REMARK 927      BINDING AFFINITY PREDICTED BY RF-SCORE:    0.00 PKD
ROOT
HETATM    1  N   UNL     1      -9.782   3.216  66.727  1.00  0.00    -0.402 NA 
HETATM    2  H2  UNL     1     -10.071   2.542  67.437  1.00  0.00     0.000 HD 
HETATM    3  H1  UNL     1     -10.322   3.088  65.871  1.00  0.00     0.000 HD 
HETATM    4  CA  UNL     1      -9.828   4.609  67.275  1.00  0.00    -0.180 C  
HETATM    5  C   UNL     1      -9.386   5.592  66.177  1.00  0.00    -0.153 C  
HETATM    6  OXT UNL     1      -9.235   6.794  66.325  1.00  0.00    -0.163 OA 
HETATM    7  O   UNL     1      -9.198   4.957  64.990  1.00  0.00    -0.155 OA 
ENDROOT
BRANCH   4   8
HETATM    8  C   UNL     1      -9.013   4.802  68.569  1.00  0.00    -0.137 C  
BRANCH   8   9
HETATM    9  C   UNL     1      -9.819   5.299  69.751  1.00  0.00    -0.282 A  
HETATM   10  C   UNL     1     -11.026   5.988  69.541  1.00  0.00    -0.467 A  
HETATM   11  C   UNL     1     -11.719   6.514  70.625  1.00  0.00    -0.374 A  
HETATM   12  O   UNL     1     -12.888   7.204  70.466  1.00  0.00    -0.601 OA 
HETATM   13  C   UNL     1     -11.226   6.357  71.915  1.00  0.00    -0.280 A  
HETATM   14  H   UNL     1     -13.362   7.563  71.207  1.00  0.00     0.000 HD 
HETATM   15  O   UNL     1     -11.896   6.903  72.973  1.00  0.00    -0.484 OA 
HETATM   16  C   UNL     1     -10.051   5.658  72.147  1.00  0.00    -0.227 A  
HETATM   17  C   UNL     1      -9.351   5.120  71.065  1.00  0.00    -0.198 A  
HETATM   18  H   UNL     1     -11.559   6.796  73.855  1.00  0.00     0.000 HD 
ENDBRANCH   8   9
ENDBRANCH   4   8
TORSDOF 2
ENDMDL
MODEL      141
REMARK 921   NORMALIZED FREE ENERGY PREDICTED BY IDOCK:   -3.72 KCAL/MOL
REMARK 922        TOTAL FREE ENERGY PREDICTED BY IDOCK:   -4.35 KCAL/MOL
REMARK 923 INTER-LIGAND FREE ENERGY PREDICTED BY IDOCK:   -4.22 KCAL/MOL
REMARK 924 INTRA-LIGAND FREE ENERGY PREDICTED BY IDOCK:   -0.12 KCAL/MOL
REMARK 927      BINDING AFFINITY PREDICTED BY RF-SCORE:    0.00 PKD
ROOT
HETATM    1  N   UNL     1      -7.409  14.992  67.586  1.00  0.00    -0.170 NA 
HETATM    2  H2  UNL     1      -7.763  14.336  66.890  1.00  0.00     0.000 HD 
HETATM    3  H1  UNL     1      -6.467  14.730  67.879  1.00  0.00     0.000 HD 
HETATM    4  CA  UNL     1      -7.523  16.400  67.088  1.00  0.00    -0.192 C  
HETATM    5  C   UNL     1      -6.979  17.356  68.165  1.00  0.00    -0.190 C  
HETATM    6  OXT UNL     1      -7.006  18.574  68.105  1.00  0.00    -0.225 OA 
HETATM    7  O   UNL     1      -6.435  16.672  69.206  1.00  0.00    -0.181 OA 
ENDROOT
BRANCH   4   8
HETATM    8  C   UNL     1      -8.946  16.795  66.646  1.00  0.00    -0.278 C  
BRANCH   8   9
HETATM    9  C   UNL     1     -10.054  16.196  67.486  1.00  0.00    -0.256 A  
HETATM   10  C   UNL     1     -10.316  16.701  68.771  1.00  0.00    -0.301 A  
HETATM   11  C   UNL     1     -11.278  16.094  69.570  1.00  0.00    -0.337 A  
HETATM   12  O   UNL     1     -11.555  16.542  70.831  1.00  0.00    -0.585 OA 
HETATM   13  C   UNL     1     -11.985  14.992  69.101  1.00  0.00    -0.275 A  
HETATM   14  H   UNL     1     -12.213  16.127  71.376  1.00  0.00     0.000 HD 
HETATM   15  O   UNL     1     -12.907  14.382  69.902  1.00  0.00    -0.514 OA 
HETATM   16  C   UNL     1     -11.760  14.494  67.826  1.00  0.00    -0.403 A  
HETATM   17  C   UNL     1     -10.801  15.102  67.014  1.00  0.00    -0.314 A  
HETATM   18  H   UNL     1     -13.390  13.629  69.581  1.00  0.00     0.000 HD 
ENDBRANCH   8   9
ENDBRANCH   4   8
TORSDOF 2
ENDMDL
MODEL      142
REMARK 921   NORMALIZED FREE ENERGY PREDICTED BY IDOCK:   -3.72 KCAL/MOL
REMARK 922        TOTAL FREE ENERGY PREDICTED BY IDOCK:   -4.34 KCAL/MOL
REMARK 923 INTER-LIGAND FREE ENERGY PREDICTED BY IDOCK:   -4.12 KCAL/MOL
REMARK 924 INTRA-LIGAND FREE ENERGY PREDICTED BY IDOCK:   -0.22 KCAL/MOL
REMARK 927      BINDING AFFINITY PREDICTED BY RF-SCORE:    0.00 PKD
ROOT
HETATM    1  N   UNL     1     -13.020   9.534  71.747  1.00  0.00    -0.380 NA 
HETATM    2  H2  UNL     1     -13.181  10.531  71.609  1.00  0.00     0.000 HD 
HETATM    3  H1  UNL     1     -13.904   9.025  71.752  1.00  0.00     0.000 HD 
HETATM    4  CA  UNL     1     -12.026   9.019  70.751  1.00  0.00    -0.170 C  
HETATM    5  C   UNL     1     -11.812   7.515  70.992  1.00  0.00    -0.293 C  
HETATM    6  OXT UNL     1     -11.003   6.814  70.405  1.00  0.00    -0.249 OA 
HETATM    7  O   UNL     1     -12.658   7.039  71.943  1.00  0.00    -0.331 OA 
ENDROOT
BRANCH   4   8
HETATM    8  C   UNL     1     -10.690   9.788  70.743  1.00  0.00    -0.393 C  
BRANCH   8   9
HETATM    9  C   UNL     1     -10.392  10.515  69.449  1.00  0.00    -0.258 A  
HETATM   10  C   UNL     1     -11.444  10.922  68.611  1.00  0.00    -0.380 A  
HETATM   11  C   UNL     1     -11.162  11.515  67.386  1.00  0.00    -0.304 A  
HETATM   12  O   UNL     1     -12.153  11.913  66.533  1.00  0.00    -0.568 OA 
HETATM   13  C   UNL     1      -9.844  11.712  66.989  1.00  0.00    -0.193 A  
HETATM   14  H   UNL     1     -11.961  12.319  65.696  1.00  0.00     0.000 HD 
HETATM   15  O   UNL     1      -9.574  12.268  65.771  1.00  0.00    -0.308 OA 
HETATM   16  C   UNL     1      -8.792  11.342  67.812  1.00  0.00    -0.143 A  
HETATM   17  C   UNL     1      -9.065  10.752  69.047  1.00  0.00    -0.153 A  
HETATM   18  H   UNL     1      -8.674  12.402  65.499  1.00  0.00     0.000 HD 
ENDBRANCH   8   9
ENDBRANCH   4   8
TORSDOF 2
ENDMDL
MODEL      143
REMARK 921   NORMALIZED FREE ENERGY PREDICTED BY IDOCK:   -3.69 KCAL/MOL
REMARK 922        TOTAL FREE ENERGY PREDICTED BY IDOCK:   -4.31 KCAL/MOL
REMARK 923 INTER-LIGAND FREE ENERGY PREDICTED BY IDOCK:   -4.08 KCAL/MOL
REMARK 924 INTRA-LIGAND FREE ENERGY PREDICTED BY IDOCK:   -0.23 KCAL/MOL
REMARK 927      BINDING AFFINITY PREDICTED BY RF-SCORE:    0.00 PKD
ROOT
HETATM    1  N   UNL     1     -11.334   5.078  65.820  1.00  0.00    -0.812 NA 
HETATM    2  H2  UNL     1     -12.256   5.064  66.254  1.00  0.00     0.000 HD 
HETATM    3  H1  UNL     1     -11.408   5.314  64.830  1.00  0.00     0.000 HD 
HETATM    4  CA  UNL     1     -10.403   5.964  66.590  1.00  0.00    -0.226 C  
HETATM    5  C   UNL     1      -9.026   5.958  65.903  1.00  0.00    -0.140 C  
HETATM    6  OXT UNL     1      -8.024   6.512  66.326  1.00  0.00    -0.105 OA 
HETATM    7  O   UNL     1      -9.058   5.265  64.734  1.00  0.00    -0.083 OA 
ENDROOT
BRANCH   4   8
HETATM    8  C   UNL     1     -10.292   5.607  68.085  1.00  0.00    -0.254 C  
BRANCH   8   9
HETATM    9  C   UNL     1     -10.752   6.700  69.027  1.00  0.00    -0.299 A  
HETATM   10  C   UNL     1     -10.260   8.009  68.882  1.00  0.00    -0.220 A  
HETATM   11  C   UNL     1     -10.621   8.988  69.800  1.00  0.00    -0.228 A  
HETATM   12  O   UNL     1     -10.156  10.270  69.705  1.00  0.00    -0.266 OA 
HETATM   13  C   UNL     1     -11.470   8.681  70.857  1.00  0.00    -0.275 A  
HETATM   14  H   UNL     1     -10.403  10.940  70.332  1.00  0.00     0.000 HD 
HETATM   15  O   UNL     1     -11.797   9.641  71.771  1.00  0.00    -0.386 OA 
HETATM   16  C   UNL     1     -11.987   7.403  71.003  1.00  0.00    -0.337 A  
HETATM   17  C   UNL     1     -11.635   6.413  70.083  1.00  0.00    -0.449 A  
HETATM   18  H   UNL     1     -12.376   9.430  72.494  1.00  0.00     0.000 HD 
ENDBRANCH   8   9
ENDBRANCH   4   8
TORSDOF 2
ENDMDL
MODEL      144
REMARK 921   NORMALIZED FREE ENERGY PREDICTED BY IDOCK:   -3.69 KCAL/MOL
REMARK 922        TOTAL FREE ENERGY PREDICTED BY IDOCK:   -4.30 KCAL/MOL
REMARK 923 INTER-LIGAND FREE ENERGY PREDICTED BY IDOCK:   -4.07 KCAL/MOL
REMARK 924 INTRA-LIGAND FREE ENERGY PREDICTED BY IDOCK:   -0.23 KCAL/MOL
REMARK 927      BINDING AFFINITY PREDICTED BY RF-SCORE:    0.00 PKD
ROOT
HETATM    1  N   UNL     1     -11.076  11.328  62.714  1.00  0.00    -0.576 NA 
HETATM    2  H2  UNL     1     -11.821  12.009  62.567  1.00  0.00     0.000 HD 
HETATM    3  H1  UNL     1     -10.507  11.233  61.872  1.00  0.00     0.000 HD 
HETATM    4  CA  UNL     1     -10.292  11.663  63.945  1.00  0.00    -0.369 C  
HETATM    5  C   UNL     1      -9.181  10.614  64.130  1.00  0.00    -0.236 C  
HETATM    6  OXT UNL     1      -8.420  10.553  65.082  1.00  0.00    -0.169 OA 
HETATM    7  O   UNL     1      -9.130   9.755  63.078  1.00  0.00    -0.250 OA 
ENDROOT
BRANCH   4   8
HETATM    8  C   UNL     1     -11.152  11.806  65.217  1.00  0.00    -0.333 C  
BRANCH   8   9
HETATM    9  C   UNL     1     -10.751  12.953  66.120  1.00  0.00    -0.290 A  
HETATM   10  C   UNL     1     -11.359  13.105  67.378  1.00  0.00    -0.344 A  
HETATM   11  C   UNL     1     -11.047  14.206  68.168  1.00  0.00    -0.257 A  
HETATM   12  O   UNL     1     -11.625  14.401  69.391  1.00  0.00    -0.268 OA 
HETATM   13  C   UNL     1     -10.133  15.153  67.721  1.00  0.00    -0.230 A  
HETATM   14  H   UNL     1     -11.412  15.153  69.931  1.00  0.00     0.000 HD 
HETATM   15  O   UNL     1      -9.855  16.247  68.490  1.00  0.00    -0.212 OA 
HETATM   16  C   UNL     1      -9.503  15.008  66.495  1.00  0.00    -0.306 A  
HETATM   17  C   UNL     1      -9.804  13.903  65.698  1.00  0.00    -0.231 A  
HETATM   18  H   UNL     1      -9.230  16.895  68.184  1.00  0.00     0.000 HD 
ENDBRANCH   8   9
ENDBRANCH   4   8
TORSDOF 2
ENDMDL
MODEL      145
REMARK 921   NORMALIZED FREE ENERGY PREDICTED BY IDOCK:   -3.68 KCAL/MOL
REMARK 922        TOTAL FREE ENERGY PREDICTED BY IDOCK:   -4.30 KCAL/MOL
REMARK 923 INTER-LIGAND FREE ENERGY PREDICTED BY IDOCK:   -4.08 KCAL/MOL
REMARK 924 INTRA-LIGAND FREE ENERGY PREDICTED BY IDOCK:   -0.22 KCAL/MOL
REMARK 927      BINDING AFFINITY PREDICTED BY RF-SCORE:    0.00 PKD
ROOT
HETATM    1  N   UNL     1     -10.698  10.264  67.332  1.00  0.00    -0.275 NA 
HETATM    2  H2  UNL     1     -10.357   9.332  67.098  1.00  0.00     0.000 HD 
HETATM    3  H1  UNL     1     -11.355  10.593  66.624  1.00  0.00     0.000 HD 
HETATM    4  CA  UNL     1     -11.241  10.291  68.727  1.00  0.00    -0.206 C  
HETATM    5  C   UNL     1     -11.744  11.712  69.039  1.00  0.00    -0.324 C  
HETATM    6  OXT UNL     1     -12.168  12.088  70.120  1.00  0.00    -0.287 OA 
HETATM    7  O   UNL     1     -11.678  12.513  67.944  1.00  0.00    -0.332 OA 
ENDROOT
BRANCH   4   8
HETATM    8  C   UNL     1     -10.248   9.794  69.796  1.00  0.00    -0.271 C  
BRANCH   8   9
HETATM    9  C   UNL     1     -10.771   8.668  70.664  1.00  0.00    -0.259 A  
HETATM   10  C   UNL     1     -10.152   7.407  70.630  1.00  0.00    -0.191 A  
HETATM   11  C   UNL     1     -10.686   6.355  71.365  1.00  0.00    -0.245 A  
HETATM   12  O   UNL     1     -10.126   5.108  71.351  1.00  0.00    -0.184 OA 
HETATM   13  C   UNL     1     -11.827   6.547  72.137  1.00  0.00    -0.305 A  
HETATM   14  H   UNL     1     -10.490   4.389  71.853  1.00  0.00     0.000 HD 
HETATM   15  O   UNL     1     -12.364   5.501  72.832  1.00  0.00    -0.519 OA 
HETATM   16  C   UNL     1     -12.438   7.789  72.204  1.00  0.00    -0.277 A  
HETATM   17  C   UNL     1     -11.905   8.854  71.475  1.00  0.00    -0.402 A  
HETATM   18  H   UNL     1     -13.143   5.632  73.359  1.00  0.00     0.000 HD 
ENDBRANCH   8   9
ENDBRANCH   4   8
TORSDOF 2
ENDMDL
MODEL      146
REMARK 921   NORMALIZED FREE ENERGY PREDICTED BY IDOCK:   -3.67 KCAL/MOL
REMARK 922        TOTAL FREE ENERGY PREDICTED BY IDOCK:   -4.29 KCAL/MOL
REMARK 923 INTER-LIGAND FREE ENERGY PREDICTED BY IDOCK:   -4.11 KCAL/MOL
REMARK 924 INTRA-LIGAND FREE ENERGY PREDICTED BY IDOCK:   -0.18 KCAL/MOL
REMARK 927      BINDING AFFINITY PREDICTED BY RF-SCORE:    0.00 PKD
ROOT
HETATM    1  N   UNL     1      -9.066  11.741  64.851  1.00  0.00    -0.405 NA 
HETATM    2  H2  UNL     1      -8.978  12.745  65.008  1.00  0.00     0.000 HD 
HETATM    3  H1  UNL     1      -8.170  11.342  64.573  1.00  0.00     0.000 HD 
HETATM    4  CA  UNL     1      -9.686  11.076  66.042  1.00  0.00    -0.224 C  
HETATM    5  C   UNL     1      -9.801   9.566  65.765  1.00  0.00    -0.293 C  
HETATM    6  OXT UNL     1     -10.338   8.754  66.501  1.00  0.00    -0.279 OA 
HETATM    7  O   UNL     1      -9.205   9.230  64.591  1.00  0.00    -0.190 OA 
ENDROOT
BRANCH   4   8
HETATM    8  C   UNL     1     -11.041  11.679  66.463  1.00  0.00    -0.357 C  
BRANCH   8   9
HETATM    9  C   UNL     1     -10.943  13.027  67.146  1.00  0.00    -0.293 A  
HETATM   10  C   UNL     1      -9.860  13.308  67.998  1.00  0.00    -0.230 A  
HETATM   11  C   UNL     1      -9.818  14.515  68.687  1.00  0.00    -0.232 A  
HETATM   12  O   UNL     1      -8.793  14.824  69.536  1.00  0.00    -0.412 OA 
HETATM   13  C   UNL     1     -10.839  15.446  68.532  1.00  0.00    -0.264 A  
HETATM   14  H   UNL     1      -8.764  15.648  70.007  1.00  0.00     0.000 HD 
HETATM   15  O   UNL     1     -10.806  16.617  69.235  1.00  0.00    -0.324 OA 
HETATM   16  C   UNL     1     -11.901  15.200  67.677  1.00  0.00    -0.134 A  
HETATM   17  C   UNL     1     -11.949  13.993  66.976  1.00  0.00    -0.472 A  
HETATM   18  H   UNL     1     -11.504  17.253  69.130  1.00  0.00     0.000 HD 
ENDBRANCH   8   9
ENDBRANCH   4   8
TORSDOF 2
ENDMDL
MODEL      147
REMARK 921   NORMALIZED FREE ENERGY PREDICTED BY IDOCK:   -3.66 KCAL/MOL
REMARK 922        TOTAL FREE ENERGY PREDICTED BY IDOCK:   -4.28 KCAL/MOL
REMARK 923 INTER-LIGAND FREE ENERGY PREDICTED BY IDOCK:   -4.09 KCAL/MOL
REMARK 924 INTRA-LIGAND FREE ENERGY PREDICTED BY IDOCK:   -0.18 KCAL/MOL
REMARK 927      BINDING AFFINITY PREDICTED BY RF-SCORE:    0.00 PKD
ROOT
HETATM    1  N   UNL     1      -8.287  10.764  64.194  1.00  0.00    -0.367 NA 
HETATM    2  H2  UNL     1      -8.898  11.542  63.948  1.00  0.00     0.000 HD 
HETATM    3  H1  UNL     1      -7.319  10.977  63.952  1.00  0.00     0.000 HD 
HETATM    4  CA  UNL     1      -8.484  10.373  65.627  1.00  0.00    -0.165 C  
HETATM    5  C   UNL     1      -7.547   9.198  65.957  1.00  0.00    -0.095 C  
HETATM    6  OXT UNL     1      -7.522   8.592  67.016  1.00  0.00    -0.083 OA 
HETATM    7  O   UNL     1      -6.717   8.918  64.918  1.00  0.00    -0.069 OA 
ENDROOT
BRANCH   4   8
HETATM    8  C   UNL     1      -9.947  10.051  65.993  1.00  0.00    -0.334 C  
BRANCH   8   9
HETATM    9  C   UNL     1     -10.680  11.175  66.694  1.00  0.00    -0.322 A  
HETATM   10  C   UNL     1     -11.102  12.302  65.967  1.00  0.00    -0.347 A  
HETATM   11  C   UNL     1     -11.701  13.367  66.630  1.00  0.00    -0.385 A  
HETATM   12  O   UNL     1     -12.113  14.489  65.966  1.00  0.00    -0.364 OA 
HETATM   13  C   UNL     1     -11.889  13.320  68.006  1.00  0.00    -0.355 A  
HETATM   14  H   UNL     1     -12.522  15.217  66.418  1.00  0.00     0.000 HD 
HETATM   15  O   UNL     1     -12.451  14.383  68.655  1.00  0.00    -0.583 OA 
HETATM   16  C   UNL     1     -11.505  12.207  68.738  1.00  0.00    -0.359 A  
HETATM   17  C   UNL     1     -10.908  11.130  68.081  1.00  0.00    -0.266 A  
HETATM   18  H   UNL     1     -12.579  14.351  69.596  1.00  0.00     0.000 HD 
ENDBRANCH   8   9
ENDBRANCH   4   8
TORSDOF 2
ENDMDL
MODEL      148
REMARK 921   NORMALIZED FREE ENERGY PREDICTED BY IDOCK:   -3.66 KCAL/MOL
REMARK 922        TOTAL FREE ENERGY PREDICTED BY IDOCK:   -4.27 KCAL/MOL
REMARK 923 INTER-LIGAND FREE ENERGY PREDICTED BY IDOCK:   -4.76 KCAL/MOL
REMARK 924 INTRA-LIGAND FREE ENERGY PREDICTED BY IDOCK:    0.49 KCAL/MOL
REMARK 927      BINDING AFFINITY PREDICTED BY RF-SCORE:    0.00 PKD
ROOT
HETATM    1  N   UNL     1      -8.990  11.469  69.192  1.00  0.00    -0.367 NA 
HETATM    2  H2  UNL     1      -8.724  11.242  70.150  1.00  0.00     0.000 HD 
HETATM    3  H1  UNL     1      -8.171  11.465  68.582  1.00  0.00     0.000 HD 
HETATM    4  CA  UNL     1     -10.100  10.578  68.728  1.00  0.00    -0.191 C  
HETATM    5  C   UNL     1     -10.470  10.953  67.282  1.00  0.00    -0.232 C  
HETATM    6  OXT UNL     1     -11.391  10.472  66.642  1.00  0.00    -0.083 OA 
HETATM    7  O   UNL     1      -9.621  11.888  66.780  1.00  0.00    -0.195 OA 
ENDROOT
BRANCH   4   8
HETATM    8  C   UNL     1     -11.336  10.585  69.648  1.00  0.00    -0.345 C  
BRANCH   8   9
HETATM    9  C   UNL     1     -11.849  11.965  70.002  1.00  0.00    -0.407 A  
HETATM   10  C   UNL     1     -12.450  12.194  71.252  1.00  0.00    -0.290 A  
HETATM   11  C   UNL     1     -12.993  13.442  71.538  1.00  0.00    -0.341 A  
HETATM   12  O   UNL     1     -13.599  13.705  72.735  1.00  0.00    -0.672 OA 
HETATM   13  C   UNL     1     -12.938  14.464  70.597  1.00  0.00    -0.289 A  
HETATM   14  H   UNL     1     -13.970  14.557  72.931  1.00  0.00     0.000 HD 
HETATM   15  O   UNL     1     -13.500  15.677  70.875  1.00  0.00    -0.730 OA 
HETATM   16  C   UNL     1     -12.326  14.266  69.369  1.00  0.00    -0.238 A  
HETATM   17  C   UNL     1     -11.773  13.019  69.074  1.00  0.00    -0.376 A  
HETATM   18  H   UNL     1     -13.463  16.375  70.231  1.00  0.00     0.000 HD 
ENDBRANCH   8   9
ENDBRANCH   4   8
TORSDOF 2
ENDMDL
MODEL      149
REMARK 921   NORMALIZED FREE ENERGY PREDICTED BY IDOCK:   -3.65 KCAL/MOL
REMARK 922        TOTAL FREE ENERGY PREDICTED BY IDOCK:   -4.26 KCAL/MOL
REMARK 923 INTER-LIGAND FREE ENERGY PREDICTED BY IDOCK:   -4.22 KCAL/MOL
REMARK 924 INTRA-LIGAND FREE ENERGY PREDICTED BY IDOCK:   -0.05 KCAL/MOL
REMARK 927      BINDING AFFINITY PREDICTED BY RF-SCORE:    0.00 PKD
ROOT
HETATM    1  N   UNL     1      -8.517  14.919  66.945  1.00  0.00    -0.301 NA 
HETATM    2  H2  UNL     1      -8.475  13.935  66.680  1.00  0.00     0.000 HD 
HETATM    3  H1  UNL     1      -7.585  15.335  66.923  1.00  0.00     0.000 HD 
HETATM    4  CA  UNL     1      -9.529  15.645  66.113  1.00  0.00    -0.341 C  
HETATM    5  C   UNL     1      -9.560  17.123  66.543  1.00  0.00    -0.279 C  
HETATM    6  OXT UNL     1     -10.335  17.965  66.119  1.00  0.00    -0.381 OA 
HETATM    7  O   UNL     1      -8.590  17.394  67.456  1.00  0.00    -0.215 OA 
ENDROOT
BRANCH   4   8
HETATM    8  C   UNL     1     -10.936  15.016  66.146  1.00  0.00    -0.334 C  
BRANCH   8   9
HETATM    9  C   UNL     1     -11.076  13.841  67.090  1.00  0.00    -0.315 A  
HETATM   10  C   UNL     1     -10.916  12.529  66.610  1.00  0.00    -0.303 A  
HETATM   11  C   UNL     1     -11.127  11.451  67.462  1.00  0.00    -0.281 A  
HETATM   12  O   UNL     1     -10.997  10.159  67.034  1.00  0.00    -0.209 OA 
HETATM   13  C   UNL     1     -11.491  11.664  68.786  1.00  0.00    -0.285 A  
HETATM   14  H   UNL     1     -11.142   9.422  67.616  1.00  0.00     0.000 HD 
HETATM   15  O   UNL     1     -11.727  10.600  69.609  1.00  0.00    -0.267 OA 
HETATM   16  C   UNL     1     -11.628  12.950  69.287  1.00  0.00    -0.368 A  
HETATM   17  C   UNL     1     -11.411  14.040  68.441  1.00  0.00    -0.340 A  
HETATM   18  H   UNL     1     -11.975  10.747  70.514  1.00  0.00     0.000 HD 
ENDBRANCH   8   9
ENDBRANCH   4   8
TORSDOF 2
ENDMDL
MODEL      150
REMARK 921   NORMALIZED FREE ENERGY PREDICTED BY IDOCK:   -3.65 KCAL/MOL
REMARK 922        TOTAL FREE ENERGY PREDICTED BY IDOCK:   -4.26 KCAL/MOL
REMARK 923 INTER-LIGAND FREE ENERGY PREDICTED BY IDOCK:   -4.28 KCAL/MOL
REMARK 924 INTRA-LIGAND FREE ENERGY PREDICTED BY IDOCK:    0.02 KCAL/MOL
REMARK 927      BINDING AFFINITY PREDICTED BY RF-SCORE:    0.00 PKD
ROOT
HETATM    1  N   UNL     1     -10.260  17.481  65.883  1.00  0.00    -0.564 NA 
HETATM    2  H2  UNL     1      -9.693  18.173  66.374  1.00  0.00     0.000 HD 
HETATM    3  H1  UNL     1     -10.569  17.845  64.982  1.00  0.00     0.000 HD 
HETATM    4  CA  UNL     1      -9.535  16.173  65.796  1.00  0.00    -0.219 C  
HETATM    5  C   UNL     1     -10.422  15.160  65.051  1.00  0.00    -0.389 C  
HETATM    6  OXT UNL     1     -10.158  13.980  64.885  1.00  0.00    -0.380 OA 
HETATM    7  O   UNL     1     -11.549  15.747  64.570  1.00  0.00    -0.389 OA 
ENDROOT
BRANCH   4   8
HETATM    8  C   UNL     1      -9.068  15.623  67.158  1.00  0.00    -0.227 C  
BRANCH   8   9
HETATM    9  C   UNL     1     -10.179  15.413  68.165  1.00  0.00    -0.230 A  
HETATM   10  C   UNL     1     -10.723  14.130  68.356  1.00  0.00    -0.264 A  
HETATM   11  C   UNL     1     -11.798  13.958  69.220  1.00  0.00    -0.348 A  
HETATM   12  O   UNL     1     -12.368  12.732  69.425  1.00  0.00    -0.128 OA 
HETATM   13  C   UNL     1     -12.334  15.046  69.899  1.00  0.00    -0.275 A  
HETATM   14  H   UNL     1     -13.102  12.614  70.016  1.00  0.00     0.000 HD 
HETATM   15  O   UNL     1     -13.409  14.874  70.723  1.00  0.00    -0.545 OA 
HETATM   16  C   UNL     1     -11.795  16.314  69.745  1.00  0.00     0.017 A  
HETATM   17  C   UNL     1     -10.711  16.497  68.885  1.00  0.00    -0.337 A  
HETATM   18  H   UNL     1     -13.775  15.618  71.187  1.00  0.00     0.000 HD 
ENDBRANCH   8   9
ENDBRANCH   4   8
TORSDOF 2
ENDMDL
MODEL      151
REMARK 921   NORMALIZED FREE ENERGY PREDICTED BY IDOCK:   -3.64 KCAL/MOL
REMARK 922        TOTAL FREE ENERGY PREDICTED BY IDOCK:   -4.25 KCAL/MOL
REMARK 923 INTER-LIGAND FREE ENERGY PREDICTED BY IDOCK:   -4.25 KCAL/MOL
REMARK 924 INTRA-LIGAND FREE ENERGY PREDICTED BY IDOCK:    0.00 KCAL/MOL
REMARK 927      BINDING AFFINITY PREDICTED BY RF-SCORE:    0.00 PKD
ROOT
HETATM    1  N   UNL     1      -9.637  14.134  65.734  1.00  0.00    -0.520 NA 
HETATM    2  H2  UNL     1      -9.730  13.594  64.875  1.00  0.00     0.000 HD 
HETATM    3  H1  UNL     1      -9.075  14.970  65.574  1.00  0.00     0.000 HD 
HETATM    4  CA  UNL     1     -10.984  14.411  66.329  1.00  0.00    -0.318 C  
HETATM    5  C   UNL     1     -10.800  15.226  67.621  1.00  0.00    -0.295 C  
HETATM    6  OXT UNL     1     -11.695  15.543  68.388  1.00  0.00    -0.365 OA 
HETATM    7  O   UNL     1      -9.501  15.578  67.805  1.00  0.00    -0.203 OA 
ENDROOT
BRANCH   4   8
HETATM    8  C   UNL     1     -11.834  13.148  66.572  1.00  0.00    -0.456 C  
BRANCH   8   9
HETATM    9  C   UNL     1     -11.289  12.220  67.637  1.00  0.00    -0.374 A  
HETATM   10  C   UNL     1     -10.184  11.397  67.355  1.00  0.00    -0.221 A  
HETATM   11  C   UNL     1      -9.740  10.487  68.308  1.00  0.00    -0.154 A  
HETATM   12  O   UNL     1      -8.679   9.657  68.072  1.00  0.00    -0.119 OA 
HETATM   13  C   UNL     1     -10.380  10.391  69.538  1.00  0.00    -0.237 A  
HETATM   14  H   UNL     1      -8.376   9.036  68.723  1.00  0.00     0.000 HD 
HETATM   15  O   UNL     1      -9.957   9.474  70.458  1.00  0.00    -0.245 OA 
HETATM   16  C   UNL     1     -11.454  11.212  69.846  1.00  0.00    -0.386 A  
HETATM   17  C   UNL     1     -11.904  12.133  68.898  1.00  0.00    -0.358 A  
HETATM   18  H   UNL     1     -10.395   9.409  71.299  1.00  0.00     0.000 HD 
ENDBRANCH   8   9
ENDBRANCH   4   8
TORSDOF 2
ENDMDL
MODEL      152
REMARK 921   NORMALIZED FREE ENERGY PREDICTED BY IDOCK:   -3.64 KCAL/MOL
REMARK 922        TOTAL FREE ENERGY PREDICTED BY IDOCK:   -4.25 KCAL/MOL
REMARK 923 INTER-LIGAND FREE ENERGY PREDICTED BY IDOCK:   -4.05 KCAL/MOL
REMARK 924 INTRA-LIGAND FREE ENERGY PREDICTED BY IDOCK:   -0.20 KCAL/MOL
REMARK 927      BINDING AFFINITY PREDICTED BY RF-SCORE:    0.00 PKD
ROOT
HETATM    1  N   UNL     1     -10.579  18.533  66.693  1.00  0.00    -0.380 NA 
HETATM    2  H2  UNL     1     -11.449  18.104  66.377  1.00  0.00     0.000 HD 
HETATM    3  H1  UNL     1     -10.772  19.371  67.242  1.00  0.00     0.000 HD 
HETATM    4  CA  UNL     1      -9.723  17.526  67.399  1.00  0.00    -0.274 C  
HETATM    5  C   UNL     1      -8.424  18.212  67.859  1.00  0.00    -0.254 C  
HETATM    6  OXT UNL     1      -7.480  17.650  68.390  1.00  0.00    -0.233 OA 
HETATM    7  O   UNL     1      -8.458  19.549  67.619  1.00  0.00    -0.295 OA 
ENDROOT
BRANCH   4   8
HETATM    8  C   UNL     1      -9.432  16.260  66.570  1.00  0.00    -0.289 C  
BRANCH   8   9
HETATM    9  C   UNL     1     -10.043  14.991  67.126  1.00  0.00    -0.239 A  
HETATM   10  C   UNL     1      -9.341  13.776  67.043  1.00  0.00    -0.250 A  
HETATM   11  C   UNL     1      -9.942  12.600  67.479  1.00  0.00    -0.205 A  
HETATM   12  O   UNL     1      -9.302  11.394  67.405  1.00  0.00    -0.165 OA 
HETATM   13  C   UNL     1     -11.230  12.622  68.002  1.00  0.00    -0.265 A  
HETATM   14  H   UNL     1      -9.712  10.591  67.703  1.00  0.00     0.000 HD 
HETATM   15  O   UNL     1     -11.824  11.459  68.401  1.00  0.00    -0.463 OA 
HETATM   16  C   UNL     1     -11.929  13.814  68.116  1.00  0.00    -0.394 A  
HETATM   17  C   UNL     1     -11.332  15.001  67.687  1.00  0.00    -0.342 A  
HETATM   18  H   UNL     1     -12.705  11.475  68.757  1.00  0.00     0.000 HD 
ENDBRANCH   8   9
ENDBRANCH   4   8
TORSDOF 2
ENDMDL
MODEL      153
REMARK 921   NORMALIZED FREE ENERGY PREDICTED BY IDOCK:   -3.63 KCAL/MOL
REMARK 922        TOTAL FREE ENERGY PREDICTED BY IDOCK:   -4.24 KCAL/MOL
REMARK 923 INTER-LIGAND FREE ENERGY PREDICTED BY IDOCK:   -4.03 KCAL/MOL
REMARK 924 INTRA-LIGAND FREE ENERGY PREDICTED BY IDOCK:   -0.21 KCAL/MOL
REMARK 927      BINDING AFFINITY PREDICTED BY RF-SCORE:    0.00 PKD
ROOT
HETATM    1  N   UNL     1      -8.852  13.587  68.719  1.00  0.00    -0.375 NA 
HETATM    2  H2  UNL     1      -9.788  13.876  69.002  1.00  0.00     0.000 HD 
HETATM    3  H1  UNL     1      -8.901  12.816  68.052  1.00  0.00     0.000 HD 
HETATM    4  CA  UNL     1      -8.064  14.764  68.232  1.00  0.00    -0.139 C  
HETATM    5  C   UNL     1      -6.661  14.288  67.815  1.00  0.00    -0.176 C  
HETATM    6  OXT UNL     1      -5.749  15.013  67.453  1.00  0.00    -0.341 OA 
HETATM    7  O   UNL     1      -6.558  12.934  67.880  1.00  0.00    -0.093 OA 
ENDROOT
BRANCH   4   8
HETATM    8  C   UNL     1      -7.991  15.930  69.238  1.00  0.00    -0.229 C  
BRANCH   8   9
HETATM    9  C   UNL     1      -8.213  17.299  68.631  1.00  0.00    -0.262 A  
HETATM   10  C   UNL     1      -9.518  17.794  68.469  1.00  0.00    -0.304 A  
HETATM   11  C   UNL     1      -9.720  19.015  67.836  1.00  0.00    -0.326 A  
HETATM   12  O   UNL     1     -10.972  19.529  67.644  1.00  0.00    -0.416 OA 
HETATM   13  C   UNL     1      -8.637  19.750  67.367  1.00  0.00    -0.322 A  
HETATM   14  H   UNL     1     -11.110  20.363  67.211  1.00  0.00     0.000 HD 
HETATM   15  O   UNL     1      -8.844  20.934  66.719  1.00  0.00    -0.558 OA 
HETATM   16  C   UNL     1      -7.340  19.292  67.540  1.00  0.00    -0.256 A  
HETATM   17  C   UNL     1      -7.126  18.070  68.181  1.00  0.00    -0.230 A  
HETATM   18  H   UNL     1      -8.104  21.435  66.398  1.00  0.00     0.000 HD 
ENDBRANCH   8   9
ENDBRANCH   4   8
TORSDOF 2
ENDMDL
MODEL      154
REMARK 921   NORMALIZED FREE ENERGY PREDICTED BY IDOCK:   -3.61 KCAL/MOL
REMARK 922        TOTAL FREE ENERGY PREDICTED BY IDOCK:   -4.21 KCAL/MOL
REMARK 923 INTER-LIGAND FREE ENERGY PREDICTED BY IDOCK:   -4.03 KCAL/MOL
REMARK 924 INTRA-LIGAND FREE ENERGY PREDICTED BY IDOCK:   -0.18 KCAL/MOL
REMARK 927      BINDING AFFINITY PREDICTED BY RF-SCORE:    0.00 PKD
ROOT
HETATM    1  N   UNL     1      -9.041  12.836  68.773  1.00  0.00    -0.393 NA 
HETATM    2  H2  UNL     1      -8.907  12.005  69.348  1.00  0.00     0.000 HD 
HETATM    3  H1  UNL     1      -8.149  13.165  68.403  1.00  0.00     0.000 HD 
HETATM    4  CA  UNL     1     -10.080  12.587  67.723  1.00  0.00    -0.218 C  
HETATM    5  C   UNL     1     -10.253  13.863  66.879  1.00  0.00    -0.257 C  
HETATM    6  OXT UNL     1     -11.081  14.018  65.996  1.00  0.00    -0.298 OA 
HETATM    7  O   UNL     1      -9.344  14.812  67.225  1.00  0.00    -0.196 OA 
ENDROOT
BRANCH   4   8
HETATM    8  C   UNL     1     -11.429  12.091  68.281  1.00  0.00    -0.361 C  
BRANCH   8   9
HETATM    9  C   UNL     1     -11.366  10.743  68.968  1.00  0.00    -0.349 A  
HETATM   10  C   UNL     1     -11.950  10.570  70.235  1.00  0.00    -0.411 A  
HETATM   11  C   UNL     1     -11.817   9.355  70.897  1.00  0.00    -0.294 A  
HETATM   12  O   UNL     1     -12.356   9.147  72.136  1.00  0.00    -0.369 OA 
HETATM   13  C   UNL     1     -11.115   8.309  70.309  1.00  0.00    -0.219 A  
HETATM   14  H   UNL     1     -12.266   8.317  72.588  1.00  0.00     0.000 HD 
HETATM   15  O   UNL     1     -10.963   7.128  70.978  1.00  0.00    -0.243 OA 
HETATM   16  C   UNL     1     -10.555   8.450  69.049  1.00  0.00    -0.172 A  
HETATM   17  C   UNL     1     -10.688   9.664  68.373  1.00  0.00    -0.251 A  
HETATM   18  H   UNL     1     -10.483   6.413  70.576  1.00  0.00     0.000 HD 
ENDBRANCH   8   9
ENDBRANCH   4   8
TORSDOF 2
ENDMDL
MODEL      155
REMARK 921   NORMALIZED FREE ENERGY PREDICTED BY IDOCK:   -3.60 KCAL/MOL
REMARK 922        TOTAL FREE ENERGY PREDICTED BY IDOCK:   -4.21 KCAL/MOL
REMARK 923 INTER-LIGAND FREE ENERGY PREDICTED BY IDOCK:   -4.13 KCAL/MOL
REMARK 924 INTRA-LIGAND FREE ENERGY PREDICTED BY IDOCK:   -0.08 KCAL/MOL
REMARK 927      BINDING AFFINITY PREDICTED BY RF-SCORE:    0.00 PKD
ROOT
HETATM    1  N   UNL     1     -10.837   7.071  73.721  1.00  0.00    -0.507 NA 
HETATM    2  H2  UNL     1     -11.588   7.617  74.143  1.00  0.00     0.000 HD 
HETATM    3  H1  UNL     1     -10.218   6.698  74.441  1.00  0.00     0.000 HD 
HETATM    4  CA  UNL     1     -11.396   6.031  72.799  1.00  0.00    -0.242 C  
HETATM    5  C   UNL     1     -10.232   5.232  72.185  1.00  0.00    -0.199 C  
HETATM    6  OXT UNL     1     -10.344   4.368  71.330  1.00  0.00    -0.132 OA 
HETATM    7  O   UNL     1      -9.041   5.593  72.730  1.00  0.00    -0.131 OA 
ENDROOT
BRANCH   4   8
HETATM    8  C   UNL     1     -12.332   6.595  71.712  1.00  0.00    -0.385 C  
BRANCH   8   9
HETATM    9  C   UNL     1     -11.862   7.893  71.090  1.00  0.00    -0.307 A  
HETATM   10  C   UNL     1     -10.937   7.872  70.031  1.00  0.00    -0.208 A  
HETATM   11  C   UNL     1     -10.446   9.068  69.520  1.00  0.00    -0.219 A  
HETATM   12  O   UNL     1      -9.535   9.095  68.501  1.00  0.00    -0.145 OA 
HETATM   13  C   UNL     1     -10.870  10.283  70.046  1.00  0.00    -0.307 A  
HETATM   14  H   UNL     1      -9.199   9.912  68.151  1.00  0.00     0.000 HD 
HETATM   15  O   UNL     1     -10.361  11.452  69.559  1.00  0.00    -0.441 OA 
HETATM   16  C   UNL     1     -11.801  10.325  71.072  1.00  0.00    -0.472 A  
HETATM   17  C   UNL     1     -12.305   9.130  71.588  1.00  0.00    -0.434 A  
HETATM   18  H   UNL     1     -10.650  12.282  69.919  1.00  0.00     0.000 HD 
ENDBRANCH   8   9
ENDBRANCH   4   8
TORSDOF 2
ENDMDL
MODEL      156
REMARK 921   NORMALIZED FREE ENERGY PREDICTED BY IDOCK:   -3.59 KCAL/MOL
REMARK 922        TOTAL FREE ENERGY PREDICTED BY IDOCK:   -4.20 KCAL/MOL
REMARK 923 INTER-LIGAND FREE ENERGY PREDICTED BY IDOCK:   -3.96 KCAL/MOL
REMARK 924 INTRA-LIGAND FREE ENERGY PREDICTED BY IDOCK:   -0.24 KCAL/MOL
REMARK 927      BINDING AFFINITY PREDICTED BY RF-SCORE:    0.00 PKD
ROOT
HETATM    1  N   UNL     1      -7.873   8.289  67.785  1.00  0.00    -0.112 NA 
HETATM    2  H2  UNL     1      -7.518   9.158  68.184  1.00  0.00     0.000 HD 
HETATM    3  H1  UNL     1      -7.240   7.515  67.991  1.00  0.00     0.000 HD 
HETATM    4  CA  UNL     1      -9.287   8.051  68.216  1.00  0.00    -0.140 C  
HETATM    5  C   UNL     1      -9.783   6.733  67.595  1.00  0.00    -0.126 C  
HETATM    6  OXT UNL     1     -10.920   6.296  67.683  1.00  0.00    -0.314 OA 
HETATM    7  O   UNL     1      -8.784   6.088  66.938  1.00  0.00    -0.111 OA 
ENDROOT
BRANCH   4   8
HETATM    8  C   UNL     1     -10.243   9.220  67.905  1.00  0.00    -0.263 C  
BRANCH   8   9
HETATM    9  C   UNL     1     -10.988   9.760  69.107  1.00  0.00    -0.205 A  
HETATM   10  C   UNL     1     -11.275   8.916  70.195  1.00  0.00    -0.175 A  
HETATM   11  C   UNL     1     -12.031   9.395  71.259  1.00  0.00    -0.353 A  
HETATM   12  O   UNL     1     -12.346   8.607  72.330  1.00  0.00    -0.379 OA 
HETATM   13  C   UNL     1     -12.498  10.705  71.255  1.00  0.00    -0.410 A  
HETATM   14  H   UNL     1     -12.862   8.934  73.058  1.00  0.00     0.000 HD 
HETATM   15  O   UNL     1     -13.265  11.159  72.290  1.00  0.00    -0.616 OA 
HETATM   16  C   UNL     1     -12.203  11.560  70.205  1.00  0.00    -0.387 A  
HETATM   17  C   UNL     1     -11.439  11.091  69.134  1.00  0.00    -0.370 A  
HETATM   18  H   UNL     1     -13.584  12.053  72.286  1.00  0.00     0.000 HD 
ENDBRANCH   8   9
ENDBRANCH   4   8
TORSDOF 2
ENDMDL
MODEL      157
REMARK 921   NORMALIZED FREE ENERGY PREDICTED BY IDOCK:   -3.57 KCAL/MOL
REMARK 922        TOTAL FREE ENERGY PREDICTED BY IDOCK:   -4.18 KCAL/MOL
REMARK 923 INTER-LIGAND FREE ENERGY PREDICTED BY IDOCK:   -3.99 KCAL/MOL
REMARK 924 INTRA-LIGAND FREE ENERGY PREDICTED BY IDOCK:   -0.19 KCAL/MOL
REMARK 927      BINDING AFFINITY PREDICTED BY RF-SCORE:    0.00 PKD
ROOT
HETATM    1  N   UNL     1     -12.467  10.304  69.813  1.00  0.00    -0.540 NA 
HETATM    2  H2  UNL     1     -12.193   9.521  69.219  1.00  0.00     0.000 HD 
HETATM    3  H1  UNL     1     -12.427  10.038  70.797  1.00  0.00     0.000 HD 
HETATM    4  CA  UNL     1     -11.666  11.524  69.478  1.00  0.00    -0.346 C  
HETATM    5  C   UNL     1     -12.109  12.679  70.394  1.00  0.00    -0.300 C  
HETATM    6  OXT UNL     1     -11.710  13.830  70.321  1.00  0.00    -0.270 OA 
HETATM    7  O   UNL     1     -13.002  12.256  71.327  1.00  0.00    -0.322 OA 
ENDROOT
BRANCH   4   8
HETATM    8  C   UNL     1     -11.725  11.926  67.991  1.00  0.00    -0.382 C  
BRANCH   8   9
HETATM    9  C   UNL     1     -10.531  11.482  67.173  1.00  0.00    -0.259 A  
HETATM   10  C   UNL     1      -9.269  12.057  67.400  1.00  0.00    -0.180 A  
HETATM   11  C   UNL     1      -8.194  11.706  66.591  1.00  0.00    -0.140 A  
HETATM   12  O   UNL     1      -6.953  12.250  66.766  1.00  0.00    -0.369 OA 
HETATM   13  C   UNL     1      -8.362  10.787  65.561  1.00  0.00    -0.129 A  
HETATM   14  H   UNL     1      -6.218  12.011  66.213  1.00  0.00     0.000 HD 
HETATM   15  O   UNL     1      -7.309  10.470  64.751  1.00  0.00    -0.310 OA 
HETATM   16  C   UNL     1      -9.592  10.189  65.337  1.00  0.00    -0.325 A  
HETATM   17  C   UNL     1     -10.676  10.530  66.149  1.00  0.00    -0.115 A  
HETATM   18  H   UNL     1      -7.424   9.842  64.047  1.00  0.00     0.000 HD 
ENDBRANCH   8   9
ENDBRANCH   4   8
TORSDOF 2
ENDMDL
MODEL      158
REMARK 921   NORMALIZED FREE ENERGY PREDICTED BY IDOCK:   -3.56 KCAL/MOL
REMARK 922        TOTAL FREE ENERGY PREDICTED BY IDOCK:   -4.16 KCAL/MOL
REMARK 923 INTER-LIGAND FREE ENERGY PREDICTED BY IDOCK:   -4.21 KCAL/MOL
REMARK 924 INTRA-LIGAND FREE ENERGY PREDICTED BY IDOCK:    0.06 KCAL/MOL
REMARK 927      BINDING AFFINITY PREDICTED BY RF-SCORE:    0.00 PKD
ROOT
HETATM    1  N   UNL     1      -9.592   9.067  69.504  1.00  0.00    -0.162 NA 
HETATM    2  H2  UNL     1     -10.344   8.410  69.709  1.00  0.00     0.000 HD 
HETATM    3  H1  UNL     1      -8.706   8.727  69.880  1.00  0.00     0.000 HD 
HETATM    4  CA  UNL     1      -9.551   9.380  68.039  1.00  0.00    -0.138 C  
HETATM    5  C   UNL     1      -8.405  10.372  67.773  1.00  0.00    -0.114 C  
HETATM    6  OXT UNL     1      -8.157  10.890  66.696  1.00  0.00    -0.135 OA 
HETATM    7  O   UNL     1      -7.672  10.596  68.894  1.00  0.00    -0.103 OA 
ENDROOT
BRANCH   4   8
HETATM    8  C   UNL     1     -10.889   9.894  67.470  1.00  0.00    -0.307 C  
BRANCH   8   9
HETATM    9  C   UNL     1     -11.249  11.303  67.889  1.00  0.00    -0.353 A  
HETATM   10  C   UNL     1     -11.414  11.613  69.251  1.00  0.00    -0.364 A  
HETATM   11  C   UNL     1     -11.826  12.888  69.624  1.00  0.00    -0.320 A  
HETATM   12  O   UNL     1     -12.013  13.229  70.934  1.00  0.00    -0.489 OA 
HETATM   13  C   UNL     1     -12.070  13.857  68.658  1.00  0.00    -0.302 A  
HETATM   14  H   UNL     1     -12.294  14.099  71.190  1.00  0.00     0.000 HD 
HETATM   15  O   UNL     1     -12.504  15.097  69.030  1.00  0.00    -0.585 OA 
HETATM   16  C   UNL     1     -11.889  13.580  67.312  1.00  0.00    -0.427 A  
HETATM   17  C   UNL     1     -11.469  12.305  66.927  1.00  0.00    -0.418 A  
HETATM   18  H   UNL     1     -12.671  15.759  68.370  1.00  0.00     0.000 HD 
ENDBRANCH   8   9
ENDBRANCH   4   8
TORSDOF 2
ENDMDL
MODEL      159
REMARK 921   NORMALIZED FREE ENERGY PREDICTED BY IDOCK:   -3.56 KCAL/MOL
REMARK 922        TOTAL FREE ENERGY PREDICTED BY IDOCK:   -4.16 KCAL/MOL
REMARK 923 INTER-LIGAND FREE ENERGY PREDICTED BY IDOCK:   -4.09 KCAL/MOL
REMARK 924 INTRA-LIGAND FREE ENERGY PREDICTED BY IDOCK:   -0.06 KCAL/MOL
REMARK 927      BINDING AFFINITY PREDICTED BY RF-SCORE:    0.00 PKD
ROOT
HETATM    1  N   UNL     1      -8.324   7.042  68.696  1.00  0.00    -0.121 NA 
HETATM    2  H2  UNL     1      -8.100   6.050  68.627  1.00  0.00     0.000 HD 
HETATM    3  H1  UNL     1      -7.515   7.611  68.443  1.00  0.00     0.000 HD 
HETATM    4  CA  UNL     1      -9.560   7.359  67.912  1.00  0.00    -0.141 C  
HETATM    5  C   UNL     1      -9.862   8.862  68.042  1.00  0.00    -0.168 C  
HETATM    6  OXT UNL     1     -10.847   9.425  67.591  1.00  0.00    -0.267 OA 
HETATM    7  O   UNL     1      -8.876   9.510  68.715  1.00  0.00    -0.128 OA 
ENDROOT
BRANCH   4   8
HETATM    8  C   UNL     1     -10.782   6.500  68.294  1.00  0.00    -0.341 C  
BRANCH   8   9
HETATM    9  C   UNL     1     -10.921   6.231  69.778  1.00  0.00    -0.444 A  
HETATM   10  C   UNL     1     -11.611   7.142  70.597  1.00  0.00    -0.354 A  
HETATM   11  C   UNL     1     -11.665   6.933  71.970  1.00  0.00    -0.300 A  
HETATM   12  O   UNL     1     -12.311   7.800  72.806  1.00  0.00    -0.580 OA 
HETATM   13  C   UNL     1     -11.044   5.825  72.536  1.00  0.00    -0.279 A  
HETATM   14  H   UNL     1     -12.348   7.657  73.744  1.00  0.00     0.000 HD 
HETATM   15  O   UNL     1     -11.075   5.642  73.889  1.00  0.00    -0.395 OA 
HETATM   16  C   UNL     1     -10.381   4.901  71.743  1.00  0.00    -0.249 A  
HETATM   17  C   UNL     1     -10.327   5.099  70.362  1.00  0.00    -0.326 A  
HETATM   18  H   UNL     1     -10.650   4.885  74.275  1.00  0.00     0.000 HD 
ENDBRANCH   8   9
ENDBRANCH   4   8
TORSDOF 2
ENDMDL
MODEL      160
REMARK 921   NORMALIZED FREE ENERGY PREDICTED BY IDOCK:   -3.55 KCAL/MOL
REMARK 922        TOTAL FREE ENERGY PREDICTED BY IDOCK:   -4.15 KCAL/MOL
REMARK 923 INTER-LIGAND FREE ENERGY PREDICTED BY IDOCK:   -3.98 KCAL/MOL
REMARK 924 INTRA-LIGAND FREE ENERGY PREDICTED BY IDOCK:   -0.17 KCAL/MOL
REMARK 927      BINDING AFFINITY PREDICTED BY RF-SCORE:    0.00 PKD
ROOT
HETATM    1  N   UNL     1      -8.437  11.859  66.203  1.00  0.00    -0.391 NA 
HETATM    2  H2  UNL     1      -8.120  12.629  66.791  1.00  0.00     0.000 HD 
HETATM    3  H1  UNL     1      -7.658  11.472  65.669  1.00  0.00     0.000 HD 
HETATM    4  CA  UNL     1      -9.180  10.845  67.017  1.00  0.00    -0.152 C  
HETATM    5  C   UNL     1      -9.639   9.703  66.094  1.00  0.00    -0.233 C  
HETATM    6  OXT UNL     1     -10.340   8.762  66.432  1.00  0.00    -0.271 OA 
HETATM    7  O   UNL     1      -9.147   9.853  64.837  1.00  0.00    -0.189 OA 
ENDROOT
BRANCH   4   8
HETATM    8  C   UNL     1     -10.357  11.430  67.823  1.00  0.00    -0.206 C  
BRANCH   8   9
HETATM    9  C   UNL     1     -10.645  10.711  69.124  1.00  0.00    -0.256 A  
HETATM   10  C   UNL     1      -9.645   9.936  69.738  1.00  0.00    -0.261 A  
HETATM   11  C   UNL     1      -9.941   9.212  70.887  1.00  0.00    -0.288 A  
HETATM   12  O   UNL     1      -9.004   8.434  71.508  1.00  0.00    -0.158 OA 
HETATM   13  C   UNL     1     -11.218   9.255  71.435  1.00  0.00    -0.362 A  
HETATM   14  H   UNL     1      -9.205   7.939  72.294  1.00  0.00     0.000 HD 
HETATM   15  O   UNL     1     -11.508   8.518  72.547  1.00  0.00    -0.371 OA 
HETATM   16  C   UNL     1     -12.210  10.034  70.861  1.00  0.00    -0.441 A  
HETATM   17  C   UNL     1     -11.922  10.770  69.710  1.00  0.00    -0.397 A  
HETATM   18  H   UNL     1     -12.381   8.547  72.921  1.00  0.00     0.000 HD 
ENDBRANCH   8   9
ENDBRANCH   4   8
TORSDOF 2
ENDMDL
MODEL      161
REMARK 921   NORMALIZED FREE ENERGY PREDICTED BY IDOCK:   -3.55 KCAL/MOL
REMARK 922        TOTAL FREE ENERGY PREDICTED BY IDOCK:   -4.15 KCAL/MOL
REMARK 923 INTER-LIGAND FREE ENERGY PREDICTED BY IDOCK:   -4.00 KCAL/MOL
REMARK 924 INTRA-LIGAND FREE ENERGY PREDICTED BY IDOCK:   -0.15 KCAL/MOL
REMARK 927      BINDING AFFINITY PREDICTED BY RF-SCORE:    0.00 PKD
ROOT
HETATM    1  N   UNL     1      -7.532   8.316  70.684  1.00  0.00    -0.059 NA 
HETATM    2  H2  UNL     1      -7.425   8.996  69.932  1.00  0.00     0.000 HD 
HETATM    3  H1  UNL     1      -6.631   8.122  71.123  1.00  0.00     0.000 HD 
HETATM    4  CA  UNL     1      -8.595   8.756  71.643  1.00  0.00    -0.159 C  
HETATM    5  C   UNL     1      -8.725   7.705  72.760  1.00  0.00    -0.140 C  
HETATM    6  OXT UNL     1      -9.558   7.723  73.652  1.00  0.00    -0.286 OA 
HETATM    7  O   UNL     1      -7.772   6.743  72.649  1.00  0.00    -0.098 OA 
ENDROOT
BRANCH   4   8
HETATM    8  C   UNL     1      -9.956   9.048  70.980  1.00  0.00    -0.349 C  
BRANCH   8   9
HETATM    9  C   UNL     1     -10.255   8.201  69.761  1.00  0.00    -0.203 A  
HETATM   10  C   UNL     1     -10.044   8.722  68.472  1.00  0.00    -0.210 A  
HETATM   11  C   UNL     1     -10.398   7.971  67.357  1.00  0.00    -0.284 A  
HETATM   12  O   UNL     1     -10.224   8.443  66.086  1.00  0.00    -0.449 OA 
HETATM   13  C   UNL     1     -10.955   6.707  67.511  1.00  0.00    -0.338 A  
HETATM   14  H   UNL     1     -10.466   7.930  65.324  1.00  0.00     0.000 HD 
HETATM   15  O   UNL     1     -11.329   5.987  66.412  1.00  0.00    -0.732 OA 
HETATM   16  C   UNL     1     -11.148   6.164  68.772  1.00  0.00    -0.398 A  
HETATM   17  C   UNL     1     -10.789   6.908  69.898  1.00  0.00    -0.294 A  
HETATM   18  H   UNL     1     -11.710   5.124  66.517  1.00  0.00     0.000 HD 
ENDBRANCH   8   9
ENDBRANCH   4   8
TORSDOF 2
ENDMDL
MODEL      162
REMARK 921   NORMALIZED FREE ENERGY PREDICTED BY IDOCK:   -3.53 KCAL/MOL
REMARK 922        TOTAL FREE ENERGY PREDICTED BY IDOCK:   -4.13 KCAL/MOL
REMARK 923 INTER-LIGAND FREE ENERGY PREDICTED BY IDOCK:   -4.02 KCAL/MOL
REMARK 924 INTRA-LIGAND FREE ENERGY PREDICTED BY IDOCK:   -0.10 KCAL/MOL
REMARK 927      BINDING AFFINITY PREDICTED BY RF-SCORE:    0.00 PKD
ROOT
HETATM    1  N   UNL     1     -11.513   6.654  67.423  1.00  0.00    -0.740 NA 
HETATM    2  H2  UNL     1     -12.110   7.346  66.971  1.00  0.00     0.000 HD 
HETATM    3  H1  UNL     1     -12.003   5.763  67.514  1.00  0.00     0.000 HD 
HETATM    4  CA  UNL     1     -10.196   6.555  66.717  1.00  0.00    -0.191 C  
HETATM    5  C   UNL     1      -9.327   5.501  67.427  1.00  0.00    -0.114 C  
HETATM    6  OXT UNL     1      -8.167   5.242  67.151  1.00  0.00    -0.107 OA 
HETATM    7  O   UNL     1     -10.021   4.865  68.407  1.00  0.00    -0.157 OA 
ENDROOT
BRANCH   4   8
HETATM    8  C   UNL     1      -9.456   7.900  66.579  1.00  0.00    -0.277 C  
BRANCH   8   9
HETATM    9  C   UNL     1      -9.961   8.992  67.498  1.00  0.00    -0.262 A  
HETATM   10  C   UNL     1     -10.844   9.971  67.010  1.00  0.00    -0.196 A  
HETATM   11  C   UNL     1     -11.239  11.018  67.835  1.00  0.00    -0.310 A  
HETATM   12  O   UNL     1     -12.084  11.999  67.398  1.00  0.00    -0.566 OA 
HETATM   13  C   UNL     1     -10.770  11.097  69.141  1.00  0.00    -0.221 A  
HETATM   14  H   UNL     1     -12.355  12.715  67.961  1.00  0.00     0.000 HD 
HETATM   15  O   UNL     1     -11.139  12.145  69.936  1.00  0.00    -0.469 OA 
HETATM   16  C   UNL     1      -9.920  10.128  69.650  1.00  0.00    -0.262 A  
HETATM   17  C   UNL     1      -9.522   9.069  68.832  1.00  0.00    -0.151 A  
HETATM   18  H   UNL     1     -10.817  12.199  70.829  1.00  0.00     0.000 HD 
ENDBRANCH   8   9
ENDBRANCH   4   8
TORSDOF 2
ENDMDL
MODEL      163
REMARK 921   NORMALIZED FREE ENERGY PREDICTED BY IDOCK:   -3.52 KCAL/MOL
REMARK 922        TOTAL FREE ENERGY PREDICTED BY IDOCK:   -4.12 KCAL/MOL
REMARK 923 INTER-LIGAND FREE ENERGY PREDICTED BY IDOCK:   -3.89 KCAL/MOL
REMARK 924 INTRA-LIGAND FREE ENERGY PREDICTED BY IDOCK:   -0.23 KCAL/MOL
REMARK 927      BINDING AFFINITY PREDICTED BY RF-SCORE:    0.00 PKD
ROOT
HETATM    1  N   UNL     1     -12.976  10.049  70.399  1.00  0.00    -0.585 NA 
HETATM    2  H2  UNL     1     -13.649  10.387  69.712  1.00  0.00     0.000 HD 
HETATM    3  H1  UNL     1     -13.289   9.165  70.802  1.00  0.00     0.000 HD 
HETATM    4  CA  UNL     1     -11.601   9.996  69.808  1.00  0.00    -0.134 C  
HETATM    5  C   UNL     1     -10.618   9.481  70.875  1.00  0.00    -0.325 C  
HETATM    6  OXT UNL     1      -9.408   9.400  70.739  1.00  0.00    -0.253 OA 
HETATM    7  O   UNL     1     -11.269   9.101  72.006  1.00  0.00    -0.364 OA 
ENDROOT
BRANCH   4   8
HETATM    8  C   UNL     1     -11.128  11.330  69.199  1.00  0.00    -0.312 C  
BRANCH   8   9
HETATM    9  C   UNL     1     -10.331  11.189  67.919  1.00  0.00    -0.211 A  
HETATM   10  C   UNL     1      -8.981  11.581  67.884  1.00  0.00    -0.159 A  
HETATM   11  C   UNL     1      -8.277  11.527  66.686  1.00  0.00    -0.156 A  
HETATM   12  O   UNL     1      -6.968  11.912  66.601  1.00  0.00    -0.351 OA 
HETATM   13  C   UNL     1      -8.901  11.083  65.525  1.00  0.00    -0.169 A  
HETATM   14  H   UNL     1      -6.487  11.875  65.783  1.00  0.00     0.000 HD 
HETATM   15  O   UNL     1      -8.213  11.062  64.346  1.00  0.00    -0.364 OA 
HETATM   16  C   UNL     1     -10.223  10.667  65.545  1.00  0.00    -0.329 A  
HETATM   17  C   UNL     1     -10.937  10.712  66.744  1.00  0.00    -0.182 A  
HETATM   18  H   UNL     1      -8.639  10.758  63.553  1.00  0.00     0.000 HD 
ENDBRANCH   8   9
ENDBRANCH   4   8
TORSDOF 2
ENDMDL
MODEL      164
REMARK 921   NORMALIZED FREE ENERGY PREDICTED BY IDOCK:   -3.51 KCAL/MOL
REMARK 922        TOTAL FREE ENERGY PREDICTED BY IDOCK:   -4.11 KCAL/MOL
REMARK 923 INTER-LIGAND FREE ENERGY PREDICTED BY IDOCK:   -4.02 KCAL/MOL
REMARK 924 INTRA-LIGAND FREE ENERGY PREDICTED BY IDOCK:   -0.09 KCAL/MOL
REMARK 927      BINDING AFFINITY PREDICTED BY RF-SCORE:    0.00 PKD
ROOT
HETATM    1  N   UNL     1     -10.482   9.593  66.584  1.00  0.00    -0.197 NA 
HETATM    2  H2  UNL     1     -11.492   9.582  66.443  1.00  0.00     0.000 HD 
HETATM    3  H1  UNL     1     -10.187   8.777  67.121  1.00  0.00     0.000 HD 
HETATM    4  CA  UNL     1      -9.769   9.753  65.277  1.00  0.00    -0.300 C  
HETATM    5  C   UNL     1      -8.252   9.764  65.534  1.00  0.00    -0.129 C  
HETATM    6  OXT UNL     1      -7.395   9.962  64.688  1.00  0.00    -0.129 OA 
HETATM    7  O   UNL     1      -7.968   9.504  66.837  1.00  0.00    -0.108 OA 
ENDROOT
BRANCH   4   8
HETATM    8  C   UNL     1     -10.216  10.986  64.466  1.00  0.00    -0.406 C  
BRANCH   8   9
HETATM    9  C   UNL     1     -10.672  12.159  65.307  1.00  0.00    -0.328 A  
HETATM   10  C   UNL     1      -9.747  12.860  66.100  1.00  0.00    -0.250 A  
HETATM   11  C   UNL     1     -10.186  13.882  66.934  1.00  0.00    -0.257 A  
HETATM   12  O   UNL     1      -9.324  14.580  67.733  1.00  0.00    -0.192 OA 
HETATM   13  C   UNL     1     -11.534  14.218  66.982  1.00  0.00    -0.361 A  
HETATM   14  H   UNL     1      -9.624  15.279  68.302  1.00  0.00     0.000 HD 
HETATM   15  O   UNL     1     -11.963  15.203  67.825  1.00  0.00    -0.445 OA 
HETATM   16  C   UNL     1     -12.459  13.557  66.189  1.00  0.00    -0.424 A  
HETATM   17  C   UNL     1     -12.027  12.533  65.343  1.00  0.00    -0.492 A  
HETATM   18  H   UNL     1     -12.884  15.431  67.858  1.00  0.00     0.000 HD 
ENDBRANCH   8   9
ENDBRANCH   4   8
TORSDOF 2
ENDMDL
MODEL      165
REMARK 921   NORMALIZED FREE ENERGY PREDICTED BY IDOCK:   -3.51 KCAL/MOL
REMARK 922        TOTAL FREE ENERGY PREDICTED BY IDOCK:   -4.11 KCAL/MOL
REMARK 923 INTER-LIGAND FREE ENERGY PREDICTED BY IDOCK:   -3.88 KCAL/MOL
REMARK 924 INTRA-LIGAND FREE ENERGY PREDICTED BY IDOCK:   -0.22 KCAL/MOL
REMARK 927      BINDING AFFINITY PREDICTED BY RF-SCORE:    0.00 PKD
ROOT
HETATM    1  N   UNL     1      -7.642   8.972  65.840  1.00  0.00    -0.093 NA 
HETATM    2  H2  UNL     1      -7.194   9.631  65.204  1.00  0.00     0.000 HD 
HETATM    3  H1  UNL     1      -6.961   8.592  66.499  1.00  0.00     0.000 HD 
HETATM    4  CA  UNL     1      -8.836   9.599  66.492  1.00  0.00    -0.142 C  
HETATM    5  C   UNL     1      -9.481   8.574  67.442  1.00  0.00    -0.150 C  
HETATM    6  OXT UNL     1     -10.519   8.742  68.062  1.00  0.00    -0.223 OA 
HETATM    7  O   UNL     1      -8.735   7.441  67.529  1.00  0.00    -0.124 OA 
ENDROOT
BRANCH   4   8
HETATM    8  C   UNL     1      -9.864  10.174  65.498  1.00  0.00    -0.365 C  
BRANCH   8   9
HETATM    9  C   UNL     1     -10.243  11.618  65.752  1.00  0.00    -0.281 A  
HETATM   10  C   UNL     1     -11.503  12.096  65.350  1.00  0.00    -0.387 A  
HETATM   11  C   UNL     1     -11.814  13.441  65.511  1.00  0.00    -0.363 A  
HETATM   12  O   UNL     1     -13.021  13.953  65.122  1.00  0.00    -0.744 OA 
HETATM   13  C   UNL     1     -10.888  14.314  66.071  1.00  0.00    -0.303 A  
HETATM   14  H   UNL     1     -13.234  14.872  65.232  1.00  0.00     0.000 HD 
HETATM   15  O   UNL     1     -11.189  15.640  66.197  1.00  0.00    -0.200 OA 
HETATM   16  C   UNL     1      -9.650  13.857  66.497  1.00  0.00    -0.299 A  
HETATM   17  C   UNL     1      -9.330  12.507  66.346  1.00  0.00    -0.209 A  
HETATM   18  H   UNL     1     -10.555  16.236  66.579  1.00  0.00     0.000 HD 
ENDBRANCH   8   9
ENDBRANCH   4   8
TORSDOF 2
ENDMDL
MODEL      166
REMARK 921   NORMALIZED FREE ENERGY PREDICTED BY IDOCK:   -3.49 KCAL/MOL
REMARK 922        TOTAL FREE ENERGY PREDICTED BY IDOCK:   -4.08 KCAL/MOL
REMARK 923 INTER-LIGAND FREE ENERGY PREDICTED BY IDOCK:   -3.87 KCAL/MOL
REMARK 924 INTRA-LIGAND FREE ENERGY PREDICTED BY IDOCK:   -0.22 KCAL/MOL
REMARK 927      BINDING AFFINITY PREDICTED BY RF-SCORE:    0.00 PKD
ROOT
HETATM    1  N   UNL     1     -11.346   4.403  64.986  1.00  0.00    -1.102 NA 
HETATM    2  H2  UNL     1     -12.113   5.069  65.074  1.00  0.00     0.000 HD 
HETATM    3  H1  UNL     1     -11.098   4.269  64.006  1.00  0.00     0.000 HD 
HETATM    4  CA  UNL     1     -10.195   4.808  65.856  1.00  0.00    -0.258 C  
HETATM    5  C   UNL     1      -9.062   3.779  65.695  1.00  0.00    -0.147 C  
HETATM    6  OXT UNL     1      -8.019   3.774  66.328  1.00  0.00    -0.089 OA 
HETATM    7  O   UNL     1      -9.353   2.867  64.730  1.00  0.00    -0.143 OA 
ENDROOT
BRANCH   4   8
HETATM    8  C   UNL     1     -10.570   5.011  67.337  1.00  0.00    -0.044 C  
BRANCH   8   9
HETATM    9  C   UNL     1     -10.494   6.446  67.813  1.00  0.00    -0.281 A  
HETATM   10  C   UNL     1     -10.724   6.752  69.166  1.00  0.00    -0.287 A  
HETATM   11  C   UNL     1     -10.735   8.079  69.582  1.00  0.00    -0.207 A  
HETATM   12  O   UNL     1     -10.969   8.424  70.884  1.00  0.00    -0.232 OA 
HETATM   13  C   UNL     1     -10.515   9.102  68.667  1.00  0.00    -0.207 A  
HETATM   14  H   UNL     1     -10.976   9.330  71.168  1.00  0.00     0.000 HD 
HETATM   15  O   UNL     1     -10.558  10.405  69.077  1.00  0.00    -0.194 OA 
HETATM   16  C   UNL     1     -10.260   8.820  67.334  1.00  0.00    -0.318 A  
HETATM   17  C   UNL     1     -10.240   7.491  66.908  1.00  0.00    -0.359 A  
HETATM   18  H   UNL     1     -10.408  11.104  68.451  1.00  0.00     0.000 HD 
ENDBRANCH   8   9
ENDBRANCH   4   8
TORSDOF 2
ENDMDL
MODEL      167
REMARK 921   NORMALIZED FREE ENERGY PREDICTED BY IDOCK:   -3.48 KCAL/MOL
REMARK 922        TOTAL FREE ENERGY PREDICTED BY IDOCK:   -4.08 KCAL/MOL
REMARK 923 INTER-LIGAND FREE ENERGY PREDICTED BY IDOCK:   -3.96 KCAL/MOL
REMARK 924 INTRA-LIGAND FREE ENERGY PREDICTED BY IDOCK:   -0.12 KCAL/MOL
REMARK 927      BINDING AFFINITY PREDICTED BY RF-SCORE:    0.00 PKD
ROOT
HETATM    1  N   UNL     1     -11.240  13.347  69.697  1.00  0.00    -0.464 NA 
HETATM    2  H2  UNL     1     -11.149  14.196  70.254  1.00  0.00     0.000 HD 
HETATM    3  H1  UNL     1     -11.801  12.652  70.192  1.00  0.00     0.000 HD 
HETATM    4  CA  UNL     1     -11.743  13.669  68.324  1.00  0.00    -0.363 C  
HETATM    5  C   UNL     1     -11.866  12.364  67.518  1.00  0.00    -0.284 C  
HETATM    6  OXT UNL     1     -12.169  12.289  66.338  1.00  0.00    -0.613 OA 
HETATM    7  O   UNL     1     -11.612  11.277  68.293  1.00  0.00    -0.324 OA 
ENDROOT
BRANCH   4   8
HETATM    8  C   UNL     1     -10.897  14.719  67.576  1.00  0.00    -0.287 C  
BRANCH   8   9
HETATM    9  C   UNL     1      -9.411  14.645  67.860  1.00  0.00    -0.210 A  
HETATM   10  C   UNL     1      -8.617  13.685  67.210  1.00  0.00    -0.220 A  
HETATM   11  C   UNL     1      -7.270  13.567  67.536  1.00  0.00    -0.154 A  
HETATM   12  O   UNL     1      -6.464  12.638  66.940  1.00  0.00    -0.463 OA 
HETATM   13  C   UNL     1      -6.706  14.398  68.497  1.00  0.00    -0.097 A  
HETATM   14  H   UNL     1      -5.544  12.558  67.162  1.00  0.00     0.000 HD 
HETATM   15  O   UNL     1      -5.390  14.256  68.834  1.00  0.00    -0.084 OA 
HETATM   16  C   UNL     1      -7.466  15.369  69.131  1.00  0.00    -0.189 A  
HETATM   17  C   UNL     1      -8.817  15.499  68.806  1.00  0.00    -0.203 A  
HETATM   18  H   UNL     1      -5.005  14.824  69.491  1.00  0.00     0.000 HD 
ENDBRANCH   8   9
ENDBRANCH   4   8
TORSDOF 2
ENDMDL
MODEL      168
REMARK 921   NORMALIZED FREE ENERGY PREDICTED BY IDOCK:   -3.48 KCAL/MOL
REMARK 922        TOTAL FREE ENERGY PREDICTED BY IDOCK:   -4.07 KCAL/MOL
REMARK 923 INTER-LIGAND FREE ENERGY PREDICTED BY IDOCK:   -3.84 KCAL/MOL
REMARK 924 INTRA-LIGAND FREE ENERGY PREDICTED BY IDOCK:   -0.23 KCAL/MOL
REMARK 927      BINDING AFFINITY PREDICTED BY RF-SCORE:    0.00 PKD
ROOT
HETATM    1  N   UNL     1     -11.233   4.768  65.263  1.00  0.00    -0.943 NA 
HETATM    2  H2  UNL     1     -12.119   5.265  65.353  1.00  0.00     0.000 HD 
HETATM    3  H1  UNL     1     -10.983   4.655  64.280  1.00  0.00     0.000 HD 
HETATM    4  CA  UNL     1     -10.172   5.430  66.088  1.00  0.00    -0.138 C  
HETATM    5  C   UNL     1      -8.855   4.651  65.925  1.00  0.00    -0.124 C  
HETATM    6  OXT UNL     1      -7.820   4.881  66.529  1.00  0.00    -0.098 OA 
HETATM    7  O   UNL     1      -8.973   3.667  64.995  1.00  0.00    -0.122 OA 
ENDROOT
BRANCH   4   8
HETATM    8  C   UNL     1     -10.549   5.601  67.573  1.00  0.00    -0.296 C  
BRANCH   8   9
HETATM    9  C   UNL     1     -10.534   7.033  68.064  1.00  0.00    -0.255 A  
HETATM   10  C   UNL     1     -10.461   8.092  67.142  1.00  0.00    -0.396 A  
HETATM   11  C   UNL     1     -10.364   9.401  67.601  1.00  0.00    -0.246 A  
HETATM   12  O   UNL     1     -10.276  10.461  66.742  1.00  0.00    -0.209 OA 
HETATM   13  C   UNL     1     -10.344   9.667  68.966  1.00  0.00    -0.205 A  
HETATM   14  H   UNL     1     -10.210  11.355  67.055  1.00  0.00     0.000 HD 
HETATM   15  O   UNL     1     -10.217  10.952  69.409  1.00  0.00    -0.349 OA 
HETATM   16  C   UNL     1     -10.441   8.638  69.890  1.00  0.00    -0.221 A  
HETATM   17  C   UNL     1     -10.546   7.321  69.440  1.00  0.00    -0.238 A  
HETATM   18  H   UNL     1     -10.203  11.133  70.341  1.00  0.00     0.000 HD 
ENDBRANCH   8   9
ENDBRANCH   4   8
TORSDOF 2
ENDMDL
MODEL      169
REMARK 921   NORMALIZED FREE ENERGY PREDICTED BY IDOCK:   -3.48 KCAL/MOL
REMARK 922        TOTAL FREE ENERGY PREDICTED BY IDOCK:   -4.07 KCAL/MOL
REMARK 923 INTER-LIGAND FREE ENERGY PREDICTED BY IDOCK:   -3.96 KCAL/MOL
REMARK 924 INTRA-LIGAND FREE ENERGY PREDICTED BY IDOCK:   -0.11 KCAL/MOL
REMARK 927      BINDING AFFINITY PREDICTED BY RF-SCORE:    0.00 PKD
ROOT
HETATM    1  N   UNL     1     -12.432   6.871  70.403  1.00  0.00    -0.576 NA 
HETATM    2  H2  UNL     1     -12.385   6.183  69.651  1.00  0.00     0.000 HD 
HETATM    3  H1  UNL     1     -13.324   6.807  70.893  1.00  0.00     0.000 HD 
HETATM    4  CA  UNL     1     -11.236   6.755  71.297  1.00  0.00    -0.276 C  
HETATM    5  C   UNL     1     -11.344   7.808  72.414  1.00  0.00    -0.346 C  
HETATM    6  OXT UNL     1     -10.491   8.031  73.258  1.00  0.00    -0.293 OA 
HETATM    7  O   UNL     1     -12.534   8.462  72.365  1.00  0.00    -0.359 OA 
ENDROOT
BRANCH   4   8
HETATM    8  C   UNL     1      -9.887   6.852  70.557  1.00  0.00    -0.187 C  
BRANCH   8   9
HETATM    9  C   UNL     1      -9.700   5.829  69.455  1.00  0.00    -0.199 A  
HETATM   10  C   UNL     1      -9.978   6.173  68.121  1.00  0.00    -0.158 A  
HETATM   11  C   UNL     1      -9.885   5.208  67.125  1.00  0.00    -0.170 A  
HETATM   12  O   UNL     1     -10.159   5.494  65.817  1.00  0.00    -0.386 OA 
HETATM   13  C   UNL     1      -9.514   3.906  67.442  1.00  0.00    -0.195 A  
HETATM   14  H   UNL     1     -10.095   4.834  65.136  1.00  0.00     0.000 HD 
HETATM   15  O   UNL     1      -9.453   2.956  66.464  1.00  0.00    -0.361 OA 
HETATM   16  C   UNL     1      -9.210   3.553  68.748  1.00  0.00    -0.226 A  
HETATM   17  C   UNL     1      -9.295   4.517  69.755  1.00  0.00    -0.223 A  
HETATM   18  H   UNL     1      -9.200   2.066  66.681  1.00  0.00     0.000 HD 
ENDBRANCH   8   9
ENDBRANCH   4   8
TORSDOF 2
ENDMDL
MODEL      170
REMARK 921   NORMALIZED FREE ENERGY PREDICTED BY IDOCK:   -3.47 KCAL/MOL
REMARK 922        TOTAL FREE ENERGY PREDICTED BY IDOCK:   -4.06 KCAL/MOL
REMARK 923 INTER-LIGAND FREE ENERGY PREDICTED BY IDOCK:   -4.09 KCAL/MOL
REMARK 924 INTRA-LIGAND FREE ENERGY PREDICTED BY IDOCK:    0.03 KCAL/MOL
REMARK 927      BINDING AFFINITY PREDICTED BY RF-SCORE:    0.00 PKD
ROOT
HETATM    1  N   UNL     1      -9.857   9.698  68.540  1.00  0.00    -0.153 NA 
HETATM    2  H2  UNL     1     -10.249   9.712  67.599  1.00  0.00     0.000 HD 
HETATM    3  H1  UNL     1      -9.939   8.766  68.949  1.00  0.00     0.000 HD 
HETATM    4  CA  UNL     1      -8.461  10.241  68.538  1.00  0.00    -0.121 C  
HETATM    5  C   UNL     1      -7.908  10.202  69.974  1.00  0.00    -0.115 C  
HETATM    6  OXT UNL     1      -6.829  10.650  70.326  1.00  0.00    -0.218 OA 
HETATM    7  O   UNL     1      -8.770   9.580  70.820  1.00  0.00    -0.204 OA 
ENDROOT
BRANCH   4   8
HETATM    8  C   UNL     1      -8.337  11.648  67.921  1.00  0.00    -0.143 C  
BRANCH   8   9
HETATM    9  C   UNL     1      -9.557  12.106  67.150  1.00  0.00    -0.195 A  
HETATM   10  C   UNL     1     -10.413  13.077  67.698  1.00  0.00    -0.228 A  
HETATM   11  C   UNL     1     -11.576  13.433  67.024  1.00  0.00    -0.356 A  
HETATM   12  O   UNL     1     -12.444  14.361  67.526  1.00  0.00    -0.599 OA 
HETATM   13  C   UNL     1     -11.892  12.836  65.808  1.00  0.00    -0.434 A  
HETATM   14  H   UNL     1     -13.238  14.604  67.065  1.00  0.00     0.000 HD 
HETATM   15  O   UNL     1     -13.051  13.169  65.166  1.00  0.00    -0.703 OA 
HETATM   16  C   UNL     1     -11.048  11.896  65.238  1.00  0.00    -0.354 A  
HETATM   17  C   UNL     1      -9.875  11.537  65.904  1.00  0.00    -0.262 A  
HETATM   18  H   UNL     1     -13.267  12.761  64.336  1.00  0.00     0.000 HD 
ENDBRANCH   8   9
ENDBRANCH   4   8
TORSDOF 2
ENDMDL
MODEL      171
REMARK 921   NORMALIZED FREE ENERGY PREDICTED BY IDOCK:   -3.46 KCAL/MOL
REMARK 922        TOTAL FREE ENERGY PREDICTED BY IDOCK:   -4.06 KCAL/MOL
REMARK 923 INTER-LIGAND FREE ENERGY PREDICTED BY IDOCK:   -3.86 KCAL/MOL
REMARK 924 INTRA-LIGAND FREE ENERGY PREDICTED BY IDOCK:   -0.20 KCAL/MOL
REMARK 927      BINDING AFFINITY PREDICTED BY RF-SCORE:    0.00 PKD
ROOT
HETATM    1  N   UNL     1     -11.153   8.868  69.101  1.00  0.00    -0.429 NA 
HETATM    2  H2  UNL     1     -11.872   9.581  69.219  1.00  0.00     0.000 HD 
HETATM    3  H1  UNL     1     -11.577   7.954  68.944  1.00  0.00     0.000 HD 
HETATM    4  CA  UNL     1     -10.177   9.277  68.041  1.00  0.00    -0.209 C  
HETATM    5  C   UNL     1      -9.111   8.177  67.894  1.00  0.00    -0.132 C  
HETATM    6  OXT UNL     1      -8.127   8.240  67.174  1.00  0.00    -0.106 OA 
HETATM    7  O   UNL     1      -9.407   7.094  68.660  1.00  0.00    -0.136 OA 
ENDROOT
BRANCH   4   8
HETATM    8  C   UNL     1      -9.536  10.659  68.278  1.00  0.00    -0.161 C  
BRANCH   8   9
HETATM    9  C   UNL     1     -10.146  11.782  67.466  1.00  0.00    -0.207 A  
HETATM   10  C   UNL     1     -11.291  11.545  66.686  1.00  0.00    -0.285 A  
HETATM   11  C   UNL     1     -11.798  12.556  65.878  1.00  0.00    -0.430 A  
HETATM   12  O   UNL     1     -12.900  12.366  65.092  1.00  0.00    -0.609 OA 
HETATM   13  C   UNL     1     -11.181  13.802  65.843  1.00  0.00    -0.302 A  
HETATM   14  H   UNL     1     -13.247  13.057  64.541  1.00  0.00     0.000 HD 
HETATM   15  O   UNL     1     -11.667  14.781  65.025  1.00  0.00    -0.366 OA 
HETATM   16  C   UNL     1     -10.067  14.064  66.625  1.00  0.00    -0.276 A  
HETATM   17  C   UNL     1      -9.554  13.057  67.444  1.00  0.00    -0.211 A  
HETATM   18  H   UNL     1     -11.245  15.632  65.001  1.00  0.00     0.000 HD 
ENDBRANCH   8   9
ENDBRANCH   4   8
TORSDOF 2
ENDMDL
MODEL      172
REMARK 921   NORMALIZED FREE ENERGY PREDICTED BY IDOCK:   -3.46 KCAL/MOL
REMARK 922        TOTAL FREE ENERGY PREDICTED BY IDOCK:   -4.05 KCAL/MOL
REMARK 923 INTER-LIGAND FREE ENERGY PREDICTED BY IDOCK:   -4.08 KCAL/MOL
REMARK 924 INTRA-LIGAND FREE ENERGY PREDICTED BY IDOCK:    0.03 KCAL/MOL
REMARK 927      BINDING AFFINITY PREDICTED BY RF-SCORE:    0.00 PKD
ROOT
HETATM    1  N   UNL     1     -11.528   6.666  67.485  1.00  0.00    -0.715 NA 
HETATM    2  H2  UNL     1     -12.122   7.193  66.845  1.00  0.00     0.000 HD 
HETATM    3  H1  UNL     1     -11.826   5.692  67.530  1.00  0.00     0.000 HD 
HETATM    4  CA  UNL     1     -10.084   6.846  67.131  1.00  0.00    -0.209 C  
HETATM    5  C   UNL     1      -9.224   6.036  68.118  1.00  0.00    -0.116 C  
HETATM    6  OXT UNL     1      -8.004   6.036  68.154  1.00  0.00    -0.107 OA 
HETATM    7  O   UNL     1      -9.995   5.290  68.951  1.00  0.00    -0.154 OA 
ENDROOT
BRANCH   4   8
HETATM    8  C   UNL     1      -9.633   8.318  67.062  1.00  0.00    -0.249 C  
BRANCH   8   9
HETATM    9  C   UNL     1     -10.306   9.228  68.068  1.00  0.00    -0.270 A  
HETATM   10  C   UNL     1     -10.223   8.943  69.442  1.00  0.00    -0.210 A  
HETATM   11  C   UNL     1     -10.912   9.734  70.354  1.00  0.00    -0.312 A  
HETATM   12  O   UNL     1     -10.872   9.485  71.698  1.00  0.00    -0.343 OA 
HETATM   13  C   UNL     1     -11.676  10.809  69.914  1.00  0.00    -0.333 A  
HETATM   14  H   UNL     1     -11.342  10.025  72.321  1.00  0.00     0.000 HD 
HETATM   15  O   UNL     1     -12.374  11.563  70.814  1.00  0.00    -0.374 OA 
HETATM   16  C   UNL     1     -11.749  11.123  68.566  1.00  0.00    -0.368 A  
HETATM   17  C   UNL     1     -11.056  10.339  67.642  1.00  0.00    -0.319 A  
HETATM   18  H   UNL     1     -12.897  12.297  70.513  1.00  0.00     0.000 HD 
ENDBRANCH   8   9
ENDBRANCH   4   8
TORSDOF 2
ENDMDL
MODEL      173
REMARK 921   NORMALIZED FREE ENERGY PREDICTED BY IDOCK:   -3.45 KCAL/MOL
REMARK 922        TOTAL FREE ENERGY PREDICTED BY IDOCK:   -4.04 KCAL/MOL
REMARK 923 INTER-LIGAND FREE ENERGY PREDICTED BY IDOCK:   -3.86 KCAL/MOL
REMARK 924 INTRA-LIGAND FREE ENERGY PREDICTED BY IDOCK:   -0.18 KCAL/MOL
REMARK 927      BINDING AFFINITY PREDICTED BY RF-SCORE:    0.00 PKD
ROOT
HETATM    1  N   UNL     1     -12.824  10.005  71.011  1.00  0.00    -0.407 NA 
HETATM    2  H2  UNL     1     -12.859  10.402  70.072  1.00  0.00     0.000 HD 
HETATM    3  H1  UNL     1     -13.766   9.819  71.356  1.00  0.00     0.000 HD 
HETATM    4  CA  UNL     1     -11.916   8.814  71.045  1.00  0.00    -0.251 C  
HETATM    5  C   UNL     1     -11.891   8.246  72.475  1.00  0.00    -0.373 C  
HETATM    6  OXT UNL     1     -11.185   7.327  72.857  1.00  0.00    -0.310 OA 
HETATM    7  O   UNL     1     -12.781   8.887  73.278  1.00  0.00     0.104 OA 
ENDROOT
BRANCH   4   8
HETATM    8  C   UNL     1     -10.493   9.096  70.523  1.00  0.00    -0.289 C  
BRANCH   8   9
HETATM    9  C   UNL     1     -10.373   9.133  69.014  1.00  0.00    -0.229 A  
HETATM   10  C   UNL     1     -10.311   7.934  68.283  1.00  0.00    -0.239 A  
HETATM   11  C   UNL     1     -10.118   7.974  66.906  1.00  0.00    -0.292 A  
HETATM   12  O   UNL     1     -10.036   6.834  66.157  1.00  0.00    -0.416 OA 
HETATM   13  C   UNL     1      -9.992   9.194  66.251  1.00  0.00    -0.282 A  
HETATM   14  H   UNL     1      -9.904   6.861  65.217  1.00  0.00     0.000 HD 
HETATM   15  O   UNL     1      -9.772   9.224  64.903  1.00  0.00    -0.421 OA 
HETATM   16  C   UNL     1     -10.077  10.388  66.950  1.00  0.00    -0.269 A  
HETATM   17  C   UNL     1     -10.278  10.358  68.331  1.00  0.00    -0.186 A  
HETATM   18  H   UNL     1      -9.686  10.058  64.455  1.00  0.00     0.000 HD 
ENDBRANCH   8   9
ENDBRANCH   4   8
TORSDOF 2
ENDMDL
MODEL      174
REMARK 921   NORMALIZED FREE ENERGY PREDICTED BY IDOCK:   -3.44 KCAL/MOL
REMARK 922        TOTAL FREE ENERGY PREDICTED BY IDOCK:   -4.03 KCAL/MOL
REMARK 923 INTER-LIGAND FREE ENERGY PREDICTED BY IDOCK:   -4.05 KCAL/MOL
REMARK 924 INTRA-LIGAND FREE ENERGY PREDICTED BY IDOCK:    0.02 KCAL/MOL
REMARK 927      BINDING AFFINITY PREDICTED BY RF-SCORE:    0.00 PKD
ROOT
HETATM    1  N   UNL     1     -10.234  13.177  68.959  1.00  0.00    -0.432 NA 
HETATM    2  H2  UNL     1      -9.911  12.334  68.485  1.00  0.00     0.000 HD 
HETATM    3  H1  UNL     1     -10.019  14.005  68.403  1.00  0.00     0.000 HD 
HETATM    4  CA  UNL     1     -11.680  13.051  69.328  1.00  0.00    -0.320 C  
HETATM    5  C   UNL     1     -12.128  14.340  70.039  1.00  0.00    -0.340 C  
HETATM    6  OXT UNL     1     -13.226  14.525  70.540  1.00  0.00    -0.292 OA 
HETATM    7  O   UNL     1     -11.146  15.279  70.027  1.00  0.00    -0.251 OA 
ENDROOT
BRANCH   4   8
HETATM    8  C   UNL     1     -12.006  11.799  70.168  1.00  0.00    -0.421 C  
BRANCH   8   9
HETATM    9  C   UNL     1     -11.268  10.548  69.742  1.00  0.00    -0.361 A  
HETATM   10  C   UNL     1     -11.242  10.173  68.387  1.00  0.00    -0.238 A  
HETATM   11  C   UNL     1     -10.635   8.980  68.012  1.00  0.00    -0.186 A  
HETATM   12  O   UNL     1     -10.598   8.568  66.709  1.00  0.00    -0.283 OA 
HETATM   13  C   UNL     1     -10.049   8.159  68.970  1.00  0.00    -0.205 A  
HETATM   14  H   UNL     1     -10.183   7.753  66.453  1.00  0.00     0.000 HD 
HETATM   15  O   UNL     1      -9.481   6.974  68.598  1.00  0.00    -0.137 OA 
HETATM   16  C   UNL     1     -10.041   8.524  70.308  1.00  0.00    -0.199 A  
HETATM   17  C   UNL     1     -10.643   9.723  70.693  1.00  0.00    -0.382 A  
HETATM   18  H   UNL     1      -9.082   6.414  69.253  1.00  0.00     0.000 HD 
ENDBRANCH   8   9
ENDBRANCH   4   8
TORSDOF 2
ENDMDL
MODEL      175
REMARK 921   NORMALIZED FREE ENERGY PREDICTED BY IDOCK:   -3.39 KCAL/MOL
REMARK 922        TOTAL FREE ENERGY PREDICTED BY IDOCK:   -3.97 KCAL/MOL
REMARK 923 INTER-LIGAND FREE ENERGY PREDICTED BY IDOCK:   -4.01 KCAL/MOL
REMARK 924 INTRA-LIGAND FREE ENERGY PREDICTED BY IDOCK:    0.04 KCAL/MOL
REMARK 927      BINDING AFFINITY PREDICTED BY RF-SCORE:    0.00 PKD
ROOT
HETATM    1  N   UNL     1      -8.269  12.483  66.782  1.00  0.00    -0.391 NA 
HETATM    2  H2  UNL     1      -8.538  11.824  66.051  1.00  0.00     0.000 HD 
HETATM    3  H1  UNL     1      -7.254  12.564  66.836  1.00  0.00     0.000 HD 
HETATM    4  CA  UNL     1      -8.976  13.790  66.597  1.00  0.00    -0.129 C  
HETATM    5  C   UNL     1      -8.545  14.754  67.717  1.00  0.00    -0.166 C  
HETATM    6  OXT UNL     1      -9.000  15.871  67.900  1.00  0.00    -0.180 OA 
HETATM    7  O   UNL     1      -7.562  14.213  68.484  1.00  0.00    -0.116 OA 
ENDROOT
BRANCH   4   8
HETATM    8  C   UNL     1     -10.511  13.668  66.514  1.00  0.00    -0.281 C  
BRANCH   8   9
HETATM    9  C   UNL     1     -11.181  13.287  67.817  1.00  0.00    -0.308 A  
HETATM   10  C   UNL     1     -11.934  14.238  68.527  1.00  0.00    -0.352 A  
HETATM   11  C   UNL     1     -12.477  13.907  69.763  1.00  0.00    -0.188 A  
HETATM   12  O   UNL     1     -13.204  14.805  70.494  1.00  0.00    -0.579 OA 
HETATM   13  C   UNL     1     -12.284  12.638  70.297  1.00  0.00    -0.271 A  
HETATM   14  H   UNL     1     -13.576  14.579  71.338  1.00  0.00     0.000 HD 
HETATM   15  O   UNL     1     -12.795  12.329  71.525  1.00  0.00    -0.370 OA 
HETATM   16  C   UNL     1     -11.567  11.677  69.602  1.00  0.00    -0.401 A  
HETATM   17  C   UNL     1     -11.022  11.998  68.356  1.00  0.00    -0.276 A  
HETATM   18  H   UNL     1     -12.662  11.462  71.890  1.00  0.00     0.000 HD 
ENDBRANCH   8   9
ENDBRANCH   4   8
TORSDOF 2
ENDMDL
MODEL      176
REMARK 921   NORMALIZED FREE ENERGY PREDICTED BY IDOCK:   -3.38 KCAL/MOL
REMARK 922        TOTAL FREE ENERGY PREDICTED BY IDOCK:   -3.96 KCAL/MOL
REMARK 923 INTER-LIGAND FREE ENERGY PREDICTED BY IDOCK:   -3.75 KCAL/MOL
REMARK 924 INTRA-LIGAND FREE ENERGY PREDICTED BY IDOCK:   -0.22 KCAL/MOL
REMARK 927      BINDING AFFINITY PREDICTED BY RF-SCORE:    0.00 PKD
ROOT
HETATM    1  N   UNL     1      -8.186   8.721  66.707  1.00  0.00    -0.107 NA 
HETATM    2  H2  UNL     1      -7.978   9.713  66.595  1.00  0.00     0.000 HD 
HETATM    3  H1  UNL     1      -7.372   8.223  67.071  1.00  0.00     0.000 HD 
HETATM    4  CA  UNL     1      -9.429   8.533  67.520  1.00  0.00    -0.149 C  
HETATM    5  C   UNL     1      -9.707   7.026  67.666  1.00  0.00    -0.136 C  
HETATM    6  OXT UNL     1     -10.690   6.539  68.201  1.00  0.00    -0.225 OA 
HETATM    7  O   UNL     1      -8.700   6.283  67.136  1.00  0.00    -0.110 OA 
ENDROOT
BRANCH   4   8
HETATM    8  C   UNL     1     -10.658   9.285  66.971  1.00  0.00    -0.263 C  
BRANCH   8   9
HETATM    9  C   UNL     1     -11.112  10.452  67.822  1.00  0.00    -0.365 A  
HETATM   10  C   UNL     1     -11.393  11.693  67.223  1.00  0.00    -0.372 A  
HETATM   11  C   UNL     1     -11.729  12.782  68.018  1.00  0.00    -0.356 A  
HETATM   12  O   UNL     1     -11.996  14.011  67.481  1.00  0.00    -0.386 OA 
HETATM   13  C   UNL     1     -11.795  12.649  69.400  1.00  0.00    -0.296 A  
HETATM   14  H   UNL     1     -12.226  14.755  68.024  1.00  0.00     0.000 HD 
HETATM   15  O   UNL     1     -12.096  13.731  70.177  1.00  0.00    -0.319 OA 
HETATM   16  C   UNL     1     -11.547  11.428  70.008  1.00  0.00    -0.382 A  
HETATM   17  C   UNL     1     -11.215  10.325  69.218  1.00  0.00    -0.281 A  
HETATM   18  H   UNL     1     -12.140  13.640  71.122  1.00  0.00     0.000 HD 
ENDBRANCH   8   9
ENDBRANCH   4   8
TORSDOF 2
ENDMDL
MODEL      177
REMARK 921   NORMALIZED FREE ENERGY PREDICTED BY IDOCK:   -3.36 KCAL/MOL
REMARK 922        TOTAL FREE ENERGY PREDICTED BY IDOCK:   -3.94 KCAL/MOL
REMARK 923 INTER-LIGAND FREE ENERGY PREDICTED BY IDOCK:   -3.97 KCAL/MOL
REMARK 924 INTRA-LIGAND FREE ENERGY PREDICTED BY IDOCK:    0.03 KCAL/MOL
REMARK 927      BINDING AFFINITY PREDICTED BY RF-SCORE:    0.00 PKD
ROOT
HETATM    1  N   UNL     1      -9.891  10.631  67.146  1.00  0.00    -0.171 NA 
HETATM    2  H2  UNL     1      -9.597  10.312  68.068  1.00  0.00     0.000 HD 
HETATM    3  H1  UNL     1      -9.913   9.853  66.487  1.00  0.00     0.000 HD 
HETATM    4  CA  UNL     1     -11.180  11.389  67.238  1.00  0.00    -0.304 C  
HETATM    5  C   UNL     1     -11.587  11.852  65.828  1.00  0.00    -0.215 C  
HETATM    6  OXT UNL     1     -12.545  12.564  65.569  1.00  0.00    -0.642 OA 
HETATM    7  O   UNL     1     -10.751  11.352  64.880  1.00  0.00    -0.295 OA 
ENDROOT
BRANCH   4   8
HETATM    8  C   UNL     1     -11.147  12.565  68.233  1.00  0.00    -0.294 C  
BRANCH   8   9
HETATM    9  C   UNL     1     -10.387  13.780  67.745  1.00  0.00    -0.241 A  
HETATM   10  C   UNL     1      -8.997  13.708  67.546  1.00  0.00    -0.209 A  
HETATM   11  C   UNL     1      -8.292  14.848  67.177  1.00  0.00    -0.221 A  
HETATM   12  O   UNL     1      -6.939  14.828  66.987  1.00  0.00    -0.345 OA 
HETATM   13  C   UNL     1      -8.956  16.057  67.001  1.00  0.00    -0.214 A  
HETATM   14  H   UNL     1      -6.457  15.607  66.735  1.00  0.00     0.000 HD 
HETATM   15  O   UNL     1      -8.253  17.179  66.668  1.00  0.00    -0.214 OA 
HETATM   16  C   UNL     1     -10.330  16.143  67.167  1.00  0.00    -0.291 A  
HETATM   17  C   UNL     1     -11.048  15.002  67.530  1.00  0.00    -0.317 A  
HETATM   18  H   UNL     1      -8.707  18.005  66.548  1.00  0.00     0.000 HD 
ENDBRANCH   8   9
ENDBRANCH   4   8
TORSDOF 2
ENDMDL
MODEL      178
REMARK 921   NORMALIZED FREE ENERGY PREDICTED BY IDOCK:   -3.36 KCAL/MOL
REMARK 922        TOTAL FREE ENERGY PREDICTED BY IDOCK:   -3.94 KCAL/MOL
REMARK 923 INTER-LIGAND FREE ENERGY PREDICTED BY IDOCK:   -3.82 KCAL/MOL
REMARK 924 INTRA-LIGAND FREE ENERGY PREDICTED BY IDOCK:   -0.12 KCAL/MOL
REMARK 927      BINDING AFFINITY PREDICTED BY RF-SCORE:    0.00 PKD
ROOT
HETATM    1  N   UNL     1     -11.980   6.887  69.875  1.00  0.00    -0.640 NA 
HETATM    2  H2  UNL     1     -12.542   7.319  69.143  1.00  0.00     0.000 HD 
HETATM    3  H1  UNL     1     -12.577   6.509  70.611  1.00  0.00     0.000 HD 
HETATM    4  CA  UNL     1     -11.031   5.887  69.288  1.00  0.00    -0.327 C  
HETATM    5  C   UNL     1     -10.203   5.259  70.424  1.00  0.00    -0.268 C  
HETATM    6  OXT UNL     1      -9.284   4.470  70.273  1.00  0.00    -0.100 OA 
HETATM    7  O   UNL     1     -10.634   5.679  71.642  1.00  0.00    -0.227 OA 
ENDROOT
BRANCH   4   8
HETATM    8  C   UNL     1     -10.128   6.457  68.177  1.00  0.00    -0.167 C  
BRANCH   8   9
HETATM    9  C   UNL     1      -9.813   7.932  68.318  1.00  0.00    -0.187 A  
HETATM   10  C   UNL     1      -8.929   8.370  69.320  1.00  0.00    -0.150 A  
HETATM   11  C   UNL     1      -8.708   9.731  69.498  1.00  0.00    -0.185 A  
HETATM   12  O   UNL     1      -7.868  10.203  70.468  1.00  0.00    -0.424 OA 
HETATM   13  C   UNL     1      -9.352  10.659  68.688  1.00  0.00    -0.177 A  
HETATM   14  H   UNL     1      -7.716  11.133  70.590  1.00  0.00     0.000 HD 
HETATM   15  O   UNL     1      -9.153  11.995  68.889  1.00  0.00    -0.386 OA 
HETATM   16  C   UNL     1     -10.207  10.246  67.678  1.00  0.00    -0.247 A  
HETATM   17  C   UNL     1     -10.431   8.881  67.486  1.00  0.00    -0.337 A  
HETATM   18  H   UNL     1      -9.595  12.629  68.335  1.00  0.00     0.000 HD 
ENDBRANCH   8   9
ENDBRANCH   4   8
TORSDOF 2
ENDMDL
MODEL      179
REMARK 921   NORMALIZED FREE ENERGY PREDICTED BY IDOCK:   -3.36 KCAL/MOL
REMARK 922        TOTAL FREE ENERGY PREDICTED BY IDOCK:   -3.94 KCAL/MOL
REMARK 923 INTER-LIGAND FREE ENERGY PREDICTED BY IDOCK:   -3.70 KCAL/MOL
REMARK 924 INTRA-LIGAND FREE ENERGY PREDICTED BY IDOCK:   -0.24 KCAL/MOL
REMARK 927      BINDING AFFINITY PREDICTED BY RF-SCORE:    0.00 PKD
ROOT
HETATM    1  N   UNL     1      -7.397   8.763  73.657  1.00  0.00    -0.377 NA 
HETATM    2  H2  UNL     1      -7.087   9.669  73.308  1.00  0.00     0.000 HD 
HETATM    3  H1  UNL     1      -7.524   8.793  74.669  1.00  0.00     0.000 HD 
HETATM    4  CA  UNL     1      -8.605   8.294  72.906  1.00  0.00    -0.208 C  
HETATM    5  C   UNL     1      -9.039   6.926  73.462  1.00  0.00    -0.146 C  
HETATM    6  OXT UNL     1      -9.939   6.235  73.012  1.00  0.00    -0.167 OA 
HETATM    7  O   UNL     1      -8.302   6.577  74.549  1.00  0.00    -0.129 OA 
ENDROOT
BRANCH   4   8
HETATM    8  C   UNL     1      -8.413   8.248  71.377  1.00  0.00    -0.172 C  
BRANCH   8   9
HETATM    9  C   UNL     1      -9.460   9.007  70.590  1.00  0.00    -0.286 A  
HETATM   10  C   UNL     1     -10.680   9.358  71.195  1.00  0.00    -0.417 A  
HETATM   11  C   UNL     1     -11.670   9.981  70.444  1.00  0.00    -0.286 A  
HETATM   12  O   UNL     1     -12.876  10.327  70.988  1.00  0.00    -0.352 OA 
HETATM   13  C   UNL     1     -11.458  10.262  69.100  1.00  0.00    -0.147 A  
HETATM   14  H   UNL     1     -13.552  10.752  70.475  1.00  0.00     0.000 HD 
HETATM   15  O   UNL     1     -12.447  10.847  68.361  1.00  0.00    -0.659 OA 
HETATM   16  C   UNL     1     -10.253   9.949  68.490  1.00  0.00    -0.199 A  
HETATM   17  C   UNL     1      -9.250   9.329  69.237  1.00  0.00    -0.152 A  
HETATM   18  H   UNL     1     -12.302  11.039  67.442  1.00  0.00     0.000 HD 
ENDBRANCH   8   9
ENDBRANCH   4   8
TORSDOF 2
ENDMDL
MODEL      180
REMARK 921   NORMALIZED FREE ENERGY PREDICTED BY IDOCK:   -3.35 KCAL/MOL
REMARK 922        TOTAL FREE ENERGY PREDICTED BY IDOCK:   -3.92 KCAL/MOL
REMARK 923 INTER-LIGAND FREE ENERGY PREDICTED BY IDOCK:   -3.88 KCAL/MOL
REMARK 924 INTRA-LIGAND FREE ENERGY PREDICTED BY IDOCK:   -0.04 KCAL/MOL
REMARK 927      BINDING AFFINITY PREDICTED BY RF-SCORE:    0.00 PKD
ROOT
HETATM    1  N   UNL     1      -8.557   9.875  70.692  1.00  0.00    -0.369 NA 
HETATM    2  H2  UNL     1      -8.694  10.539  69.930  1.00  0.00     0.000 HD 
HETATM    3  H1  UNL     1      -8.068  10.318  71.470  1.00  0.00     0.000 HD 
HETATM    4  CA  UNL     1      -9.857   9.237  71.073  1.00  0.00    -0.285 C  
HETATM    5  C   UNL     1      -9.608   8.245  72.223  1.00  0.00    -0.285 C  
HETATM    6  OXT UNL     1     -10.446   7.502  72.708  1.00  0.00    -0.238 OA 
HETATM    7  O   UNL     1      -8.323   8.306  72.661  1.00  0.00    -0.162 OA 
ENDROOT
BRANCH   4   8
HETATM    8  C   UNL     1     -10.596   8.567  69.898  1.00  0.00    -0.228 C  
BRANCH   8   9
HETATM    9  C   UNL     1     -10.553   9.349  68.602  1.00  0.00    -0.230 A  
HETATM   10  C   UNL     1     -10.101   8.732  67.422  1.00  0.00    -0.289 A  
HETATM   11  C   UNL     1      -9.985   9.477  66.254  1.00  0.00    -0.274 A  
HETATM   12  O   UNL     1      -9.537   8.923  65.088  1.00  0.00    -0.435 OA 
HETATM   13  C   UNL     1     -10.319  10.827  66.247  1.00  0.00    -0.244 A  
HETATM   14  H   UNL     1      -9.458   9.431  64.289  1.00  0.00     0.000 HD 
HETATM   15  O   UNL     1     -10.174  11.559  65.103  1.00  0.00    -0.248 OA 
HETATM   16  C   UNL     1     -10.791  11.447  67.393  1.00  0.00    -0.301 A  
HETATM   17  C   UNL     1     -10.917  10.706  68.569  1.00  0.00    -0.296 A  
HETATM   18  H   UNL     1     -10.401  12.482  65.099  1.00  0.00     0.000 HD 
ENDBRANCH   8   9
ENDBRANCH   4   8
TORSDOF 2
ENDMDL
MODEL      181
REMARK 921   NORMALIZED FREE ENERGY PREDICTED BY IDOCK:   -3.34 KCAL/MOL
REMARK 922        TOTAL FREE ENERGY PREDICTED BY IDOCK:   -3.92 KCAL/MOL
REMARK 923 INTER-LIGAND FREE ENERGY PREDICTED BY IDOCK:   -4.05 KCAL/MOL
REMARK 924 INTRA-LIGAND FREE ENERGY PREDICTED BY IDOCK:    0.13 KCAL/MOL
REMARK 927      BINDING AFFINITY PREDICTED BY RF-SCORE:    0.00 PKD
ROOT
HETATM    1  N   UNL     1      -8.780   4.518  72.473  1.00  0.00    -0.113 NA 
HETATM    2  H2  UNL     1      -8.269   5.321  72.840  1.00  0.00     0.000 HD 
HETATM    3  H1  UNL     1      -8.134   3.782  72.188  1.00  0.00     0.000 HD 
HETATM    4  CA  UNL     1      -9.825   4.069  73.448  1.00  0.00    -0.120 C  
HETATM    5  C   UNL     1     -10.571   2.859  72.856  1.00  0.00    -0.123 C  
HETATM    6  OXT UNL     1     -11.535   2.309  73.364  1.00  0.00    -0.197 OA 
HETATM    7  O   UNL     1     -10.009   2.452  71.688  1.00  0.00    -0.158 OA 
ENDROOT
BRANCH   4   8
HETATM    8  C   UNL     1     -10.801   5.181  73.878  1.00  0.00    -0.307 C  
BRANCH   8   9
HETATM    9  C   UNL     1     -11.028   6.256  72.836  1.00  0.00    -0.283 A  
HETATM   10  C   UNL     1     -11.407   5.901  71.529  1.00  0.00    -0.256 A  
HETATM   11  C   UNL     1     -11.533   6.885  70.555  1.00  0.00    -0.342 A  
HETATM   12  O   UNL     1     -11.886   6.584  69.269  1.00  0.00    -0.608 OA 
HETATM   13  C   UNL     1     -11.290   8.217  70.869  1.00  0.00    -0.268 A  
HETATM   14  H   UNL     1     -11.972   7.256  68.604  1.00  0.00     0.000 HD 
HETATM   15  O   UNL     1     -11.386   9.175  69.900  1.00  0.00    -0.406 OA 
HETATM   16  C   UNL     1     -10.941   8.591  72.157  1.00  0.00    -0.427 A  
HETATM   17  C   UNL     1     -10.819   7.611  73.144  1.00  0.00    -0.440 A  
HETATM   18  H   UNL     1     -11.220  10.085  70.114  1.00  0.00     0.000 HD 
ENDBRANCH   8   9
ENDBRANCH   4   8
TORSDOF 2
ENDMDL
MODEL      182
REMARK 921   NORMALIZED FREE ENERGY PREDICTED BY IDOCK:   -3.34 KCAL/MOL
REMARK 922        TOTAL FREE ENERGY PREDICTED BY IDOCK:   -3.92 KCAL/MOL
REMARK 923 INTER-LIGAND FREE ENERGY PREDICTED BY IDOCK:   -3.73 KCAL/MOL
REMARK 924 INTRA-LIGAND FREE ENERGY PREDICTED BY IDOCK:   -0.19 KCAL/MOL
REMARK 927      BINDING AFFINITY PREDICTED BY RF-SCORE:    0.00 PKD
ROOT
HETATM    1  N   UNL     1      -9.255  10.876  63.568  1.00  0.00    -0.243 NA 
HETATM    2  H2  UNL     1      -9.348  11.824  63.205  1.00  0.00     0.000 HD 
HETATM    3  H1  UNL     1      -8.410  10.434  63.205  1.00  0.00     0.000 HD 
HETATM    4  CA  UNL     1      -9.349  10.874  65.063  1.00  0.00    -0.226 C  
HETATM    5  C   UNL     1      -9.204   9.428  65.570  1.00  0.00    -0.232 C  
HETATM    6  OXT UNL     1      -9.318   9.073  66.733  1.00  0.00    -0.147 OA 
HETATM    7  O   UNL     1      -8.909   8.574  64.555  1.00  0.00    -0.029 OA 
ENDROOT
BRANCH   4   8
HETATM    8  C   UNL     1     -10.625  11.542  65.613  1.00  0.00    -0.326 C  
BRANCH   8   9
HETATM    9  C   UNL     1     -10.576  13.055  65.648  1.00  0.00    -0.297 A  
HETATM   10  C   UNL     1     -11.622  13.807  65.085  1.00  0.00    -0.341 A  
HETATM   11  C   UNL     1     -11.533  15.194  65.047  1.00  0.00    -0.339 A  
HETATM   12  O   UNL     1     -12.519  15.964  64.496  1.00  0.00    -0.018 OA 
HETATM   13  C   UNL     1     -10.417  15.839  65.567  1.00  0.00    -0.403 A  
HETATM   14  H   UNL     1     -12.458  16.911  64.470  1.00  0.00     0.000 HD 
HETATM   15  O   UNL     1     -10.323  17.200  65.499  1.00  0.00    -0.599 OA 
HETATM   16  C   UNL     1      -9.387  15.118  66.151  1.00  0.00    -0.346 A  
HETATM   17  C   UNL     1      -9.470  13.725  66.200  1.00  0.00    -0.180 A  
HETATM   18  H   UNL     1      -9.560  17.641  65.854  1.00  0.00     0.000 HD 
ENDBRANCH   8   9
ENDBRANCH   4   8
TORSDOF 2
ENDMDL
MODEL      183
REMARK 921   NORMALIZED FREE ENERGY PREDICTED BY IDOCK:   -3.34 KCAL/MOL
REMARK 922        TOTAL FREE ENERGY PREDICTED BY IDOCK:   -3.91 KCAL/MOL
REMARK 923 INTER-LIGAND FREE ENERGY PREDICTED BY IDOCK:   -3.78 KCAL/MOL
REMARK 924 INTRA-LIGAND FREE ENERGY PREDICTED BY IDOCK:   -0.13 KCAL/MOL
REMARK 927      BINDING AFFINITY PREDICTED BY RF-SCORE:    0.00 PKD
ROOT
HETATM    1  N   UNL     1      -9.096   8.033  68.039  1.00  0.00    -0.130 NA 
HETATM    2  H2  UNL     1      -9.361   7.430  68.817  1.00  0.00     0.000 HD 
HETATM    3  H1  UNL     1      -9.357   7.606  67.150  1.00  0.00     0.000 HD 
HETATM    4  CA  UNL     1      -9.641   9.415  68.234  1.00  0.00    -0.142 C  
HETATM    5  C   UNL     1      -9.219  10.291  67.041  1.00  0.00    -0.150 C  
HETATM    6  OXT UNL     1      -9.431  11.488  66.935  1.00  0.00    -0.177 OA 
HETATM    7  O   UNL     1      -8.586   9.558  66.088  1.00  0.00    -0.127 OA 
ENDROOT
BRANCH   4   8
HETATM    8  C   UNL     1      -9.247  10.060  69.578  1.00  0.00    -0.238 C  
BRANCH   8   9
HETATM    9  C   UNL     1      -9.558   9.216  70.795  1.00  0.00    -0.338 A  
HETATM   10  C   UNL     1     -10.857   9.205  71.332  1.00  0.00    -0.419 A  
HETATM   11  C   UNL     1     -11.117   8.493  72.498  1.00  0.00    -0.258 A  
HETATM   12  O   UNL     1     -12.361   8.466  73.063  1.00  0.00    -0.616 OA 
HETATM   13  C   UNL     1     -10.100   7.789  73.131  1.00  0.00    -0.327 A  
HETATM   14  H   UNL     1     -12.539   7.980  73.859  1.00  0.00     0.000 HD 
HETATM   15  O   UNL     1     -10.355   7.117  74.293  1.00  0.00    -0.422 OA 
HETATM   16  C   UNL     1      -8.818   7.765  72.604  1.00  0.00    -0.213 A  
HETATM   17  C   UNL     1      -8.548   8.471  71.430  1.00  0.00    -0.224 A  
HETATM   18  H   UNL     1      -9.660   6.637  74.725  1.00  0.00     0.000 HD 
ENDBRANCH   8   9
ENDBRANCH   4   8
TORSDOF 2
ENDMDL
MODEL      184
REMARK 921   NORMALIZED FREE ENERGY PREDICTED BY IDOCK:   -3.33 KCAL/MOL
REMARK 922        TOTAL FREE ENERGY PREDICTED BY IDOCK:   -3.91 KCAL/MOL
REMARK 923 INTER-LIGAND FREE ENERGY PREDICTED BY IDOCK:   -3.84 KCAL/MOL
REMARK 924 INTRA-LIGAND FREE ENERGY PREDICTED BY IDOCK:   -0.07 KCAL/MOL
REMARK 927      BINDING AFFINITY PREDICTED BY RF-SCORE:    0.00 PKD
ROOT
HETATM    1  N   UNL     1      -8.525  12.786  66.809  1.00  0.00    -0.397 NA 
HETATM    2  H2  UNL     1      -8.183  11.827  66.857  1.00  0.00     0.000 HD 
HETATM    3  H1  UNL     1      -7.865  13.376  66.302  1.00  0.00     0.000 HD 
HETATM    4  CA  UNL     1      -9.919  12.821  66.263  1.00  0.00    -0.264 C  
HETATM    5  C   UNL     1     -10.396  14.283  66.207  1.00  0.00    -0.294 C  
HETATM    6  OXT UNL     1     -11.517  14.648  65.889  1.00  0.00    -0.344 OA 
HETATM    7  O   UNL     1      -9.399  15.143  66.542  1.00  0.00    -0.242 OA 
ENDROOT
BRANCH   4   8
HETATM    8  C   UNL     1     -10.916  11.929  67.030  1.00  0.00    -0.326 C  
BRANCH   8   9
HETATM    9  C   UNL     1     -10.522  10.469  67.105  1.00  0.00    -0.302 A  
HETATM   10  C   UNL     1      -9.902   9.849  66.006  1.00  0.00    -0.330 A  
HETATM   11  C   UNL     1      -9.619   8.489  66.050  1.00  0.00    -0.165 A  
HETATM   12  O   UNL     1      -9.030   7.842  64.999  1.00  0.00    -0.373 OA 
HETATM   13  C   UNL     1      -9.941   7.741  67.176  1.00  0.00    -0.230 A  
HETATM   14  H   UNL     1      -8.836   6.913  65.029  1.00  0.00     0.000 HD 
HETATM   15  O   UNL     1      -9.687   6.399  67.200  1.00  0.00    -0.130 OA 
HETATM   16  C   UNL     1     -10.528   8.338  68.281  1.00  0.00    -0.211 A  
HETATM   17  C   UNL     1     -10.811   9.705  68.249  1.00  0.00    -0.230 A  
HETATM   18  H   UNL     1      -9.908   5.888  67.970  1.00  0.00     0.000 HD 
ENDBRANCH   8   9
ENDBRANCH   4   8
TORSDOF 2
ENDMDL
MODEL      185
REMARK 921   NORMALIZED FREE ENERGY PREDICTED BY IDOCK:   -3.30 KCAL/MOL
REMARK 922        TOTAL FREE ENERGY PREDICTED BY IDOCK:   -3.87 KCAL/MOL
REMARK 923 INTER-LIGAND FREE ENERGY PREDICTED BY IDOCK:   -4.27 KCAL/MOL
REMARK 924 INTRA-LIGAND FREE ENERGY PREDICTED BY IDOCK:    0.40 KCAL/MOL
REMARK 927      BINDING AFFINITY PREDICTED BY RF-SCORE:    0.00 PKD
ROOT
HETATM    1  N   UNL     1      -9.462  10.152  67.200  1.00  0.00    -0.156 NA 
HETATM    2  H2  UNL     1      -9.191   9.490  67.926  1.00  0.00     0.000 HD 
HETATM    3  H1  UNL     1      -9.251   9.776  66.275  1.00  0.00     0.000 HD 
HETATM    4  CA  UNL     1     -10.889  10.572  67.376  1.00  0.00    -0.291 C  
HETATM    5  C   UNL     1     -11.257  11.569  66.263  1.00  0.00    -0.222 C  
HETATM    6  OXT UNL     1     -12.320  12.162  66.172  1.00  0.00    -0.536 OA 
HETATM    7  O   UNL     1     -10.248  11.701  65.363  1.00  0.00    -0.241 OA 
ENDROOT
BRANCH   4   8
HETATM    8  C   UNL     1     -11.207  11.140  68.774  1.00  0.00    -0.314 C  
BRANCH   8   9
HETATM    9  C   UNL     1     -10.965  12.627  68.917  1.00  0.00    -0.273 A  
HETATM   10  C   UNL     1     -11.955  13.451  69.481  1.00  0.00    -0.377 A  
HETATM   11  C   UNL     1     -11.760  14.827  69.534  1.00  0.00    -0.321 A  
HETATM   12  O   UNL     1     -12.702  15.667  70.060  1.00  0.00    -0.577 OA 
HETATM   13  C   UNL     1     -10.590  15.390  69.037  1.00  0.00    -0.247 A  
HETATM   14  H   UNL     1     -12.569  16.607  70.097  1.00  0.00     0.000 HD 
HETATM   15  O   UNL     1     -10.420  16.745  69.065  1.00  0.00    -0.297 OA 
HETATM   16  C   UNL     1      -9.591  14.593  68.501  1.00  0.00    -0.221 A  
HETATM   17  C   UNL     1      -9.773  13.209  68.450  1.00  0.00    -0.196 A  
HETATM   18  H   UNL     1      -9.620  17.129  68.725  1.00  0.00     0.000 HD 
ENDBRANCH   8   9
ENDBRANCH   4   8
TORSDOF 2
ENDMDL
MODEL      186
REMARK 921   NORMALIZED FREE ENERGY PREDICTED BY IDOCK:   -3.28 KCAL/MOL
REMARK 922        TOTAL FREE ENERGY PREDICTED BY IDOCK:   -3.85 KCAL/MOL
REMARK 923 INTER-LIGAND FREE ENERGY PREDICTED BY IDOCK:   -3.63 KCAL/MOL
REMARK 924 INTRA-LIGAND FREE ENERGY PREDICTED BY IDOCK:   -0.22 KCAL/MOL
REMARK 927      BINDING AFFINITY PREDICTED BY RF-SCORE:    0.00 PKD
ROOT
HETATM    1  N   UNL     1      -8.130   7.448  66.861  1.00  0.00    -0.118 NA 
HETATM    2  H2  UNL     1      -7.843   8.151  67.541  1.00  0.00     0.000 HD 
HETATM    3  H1  UNL     1      -7.337   6.862  66.595  1.00  0.00     0.000 HD 
HETATM    4  CA  UNL     1      -9.313   6.680  67.364  1.00  0.00    -0.129 C  
HETATM    5  C   UNL     1      -9.712   5.631  66.310  1.00  0.00    -0.135 C  
HETATM    6  OXT UNL     1     -10.687   4.900  66.377  1.00  0.00    -0.281 OA 
HETATM    7  O   UNL     1      -8.824   5.599  65.282  1.00  0.00    -0.147 OA 
ENDROOT
BRANCH   4   8
HETATM    8  C   UNL     1     -10.510   7.564  67.764  1.00  0.00    -0.288 C  
BRANCH   8   9
HETATM    9  C   UNL     1     -10.767   7.637  69.255  1.00  0.00    -0.169 A  
HETATM   10  C   UNL     1     -10.788   6.460  70.024  1.00  0.00    -0.366 A  
HETATM   11  C   UNL     1     -11.106   6.524  71.376  1.00  0.00    -0.268 A  
HETATM   12  O   UNL     1     -11.153   5.404  72.158  1.00  0.00    -0.231 OA 
HETATM   13  C   UNL     1     -11.396   7.746  71.971  1.00  0.00    -0.284 A  
HETATM   14  H   UNL     1     -11.370   5.448  73.082  1.00  0.00     0.000 HD 
HETATM   15  O   UNL     1     -11.737   7.798  73.293  1.00  0.00    -0.659 OA 
HETATM   16  C   UNL     1     -11.355   8.921  71.237  1.00  0.00    -0.371 A  
HETATM   17  C   UNL     1     -11.030   8.868  69.880  1.00  0.00    -0.190 A  
HETATM   18  H   UNL     1     -11.936   8.634  73.699  1.00  0.00     0.000 HD 
ENDBRANCH   8   9
ENDBRANCH   4   8
TORSDOF 2
ENDMDL
MODEL      187
REMARK 921   NORMALIZED FREE ENERGY PREDICTED BY IDOCK:   -3.28 KCAL/MOL
REMARK 922        TOTAL FREE ENERGY PREDICTED BY IDOCK:   -3.85 KCAL/MOL
REMARK 923 INTER-LIGAND FREE ENERGY PREDICTED BY IDOCK:   -3.70 KCAL/MOL
REMARK 924 INTRA-LIGAND FREE ENERGY PREDICTED BY IDOCK:   -0.15 KCAL/MOL
REMARK 927      BINDING AFFINITY PREDICTED BY RF-SCORE:    0.00 PKD
ROOT
HETATM    1  N   UNL     1      -8.068   8.161  72.234  1.00  0.00    -0.127 NA 
HETATM    2  H2  UNL     1      -7.999   8.929  71.567  1.00  0.00     0.000 HD 
HETATM    3  H1  UNL     1      -7.405   8.289  72.998  1.00  0.00     0.000 HD 
HETATM    4  CA  UNL     1      -9.486   7.978  72.681  1.00  0.00    -0.250 C  
HETATM    5  C   UNL     1      -9.547   6.813  73.684  1.00  0.00    -0.198 C  
HETATM    6  OXT UNL     1     -10.567   6.355  74.173  1.00  0.00    -0.283 OA 
HETATM    7  O   UNL     1      -8.304   6.353  73.986  1.00  0.00    -0.114 OA 
ENDROOT
BRANCH   4   8
HETATM    8  C   UNL     1     -10.488   7.784  71.526  1.00  0.00    -0.239 C  
BRANCH   8   9
HETATM    9  C   UNL     1     -11.009   9.071  70.923  1.00  0.00    -0.332 A  
HETATM   10  C   UNL     1     -10.280   9.720  69.911  1.00  0.00    -0.291 A  
HETATM   11  C   UNL     1     -10.719  10.944  69.420  1.00  0.00    -0.225 A  
HETATM   12  O   UNL     1     -10.035  11.618  68.447  1.00  0.00    -0.191 OA 
HETATM   13  C   UNL     1     -11.879  11.526  69.920  1.00  0.00    -0.355 A  
HETATM   14  H   UNL     1     -10.335  12.454  68.111  1.00  0.00     0.000 HD 
HETATM   15  O   UNL     1     -12.288  12.743  69.454  1.00  0.00    -0.128 OA 
HETATM   16  C   UNL     1     -12.626  10.890  70.899  1.00  0.00    -0.494 A  
HETATM   17  C   UNL     1     -12.197   9.657  71.395  1.00  0.00    -0.471 A  
HETATM   18  H   UNL     1     -13.080  13.140  69.797  1.00  0.00     0.000 HD 
ENDBRANCH   8   9
ENDBRANCH   4   8
TORSDOF 2
ENDMDL
MODEL      188
REMARK 921   NORMALIZED FREE ENERGY PREDICTED BY IDOCK:   -3.28 KCAL/MOL
REMARK 922        TOTAL FREE ENERGY PREDICTED BY IDOCK:   -3.85 KCAL/MOL
REMARK 923 INTER-LIGAND FREE ENERGY PREDICTED BY IDOCK:   -3.62 KCAL/MOL
REMARK 924 INTRA-LIGAND FREE ENERGY PREDICTED BY IDOCK:   -0.23 KCAL/MOL
REMARK 927      BINDING AFFINITY PREDICTED BY RF-SCORE:    0.00 PKD
ROOT
HETATM    1  N   UNL     1     -10.387   7.965  69.257  1.00  0.00    -0.217 NA 
HETATM    2  H2  UNL     1     -10.466   8.181  70.251  1.00  0.00     0.000 HD 
HETATM    3  H1  UNL     1     -10.983   7.173  69.014  1.00  0.00     0.000 HD 
HETATM    4  CA  UNL     1     -10.636   9.190  68.432  1.00  0.00    -0.172 C  
HETATM    5  C   UNL     1     -10.509   8.822  66.943  1.00  0.00    -0.249 C  
HETATM    6  OXT UNL     1     -10.572   9.611  66.013  1.00  0.00    -0.068 OA 
HETATM    7  O   UNL     1     -10.334   7.485  66.775  1.00  0.00    -0.288 OA 
ENDROOT
BRANCH   4   8
HETATM    8  C   UNL     1      -9.737  10.387  68.798  1.00  0.00    -0.184 C  
BRANCH   8   9
HETATM    9  C   UNL     1     -10.446  11.725  68.808  1.00  0.00    -0.221 A  
HETATM   10  C   UNL     1      -9.908  12.812  68.098  1.00  0.00    -0.226 A  
HETATM   11  C   UNL     1     -10.517  14.059  68.178  1.00  0.00    -0.243 A  
HETATM   12  O   UNL     1     -10.021  15.147  67.516  1.00  0.00    -0.225 OA 
HETATM   13  C   UNL     1     -11.658  14.234  68.953  1.00  0.00    -0.305 A  
HETATM   14  H   UNL     1     -10.437  15.999  67.570  1.00  0.00     0.000 HD 
HETATM   15  O   UNL     1     -12.234  15.469  69.051  1.00  0.00    -0.584 OA 
HETATM   16  C   UNL     1     -12.219  13.169  69.640  1.00  0.00    -0.241 A  
HETATM   17  C   UNL     1     -11.619  11.911  69.561  1.00  0.00    -0.394 A  
HETATM   18  H   UNL     1     -13.013  15.588  69.581  1.00  0.00     0.000 HD 
ENDBRANCH   8   9
ENDBRANCH   4   8
TORSDOF 2
ENDMDL
MODEL      189
REMARK 921   NORMALIZED FREE ENERGY PREDICTED BY IDOCK:   -3.28 KCAL/MOL
REMARK 922        TOTAL FREE ENERGY PREDICTED BY IDOCK:   -3.85 KCAL/MOL
REMARK 923 INTER-LIGAND FREE ENERGY PREDICTED BY IDOCK:   -3.99 KCAL/MOL
REMARK 924 INTRA-LIGAND FREE ENERGY PREDICTED BY IDOCK:    0.14 KCAL/MOL
REMARK 927      BINDING AFFINITY PREDICTED BY RF-SCORE:    0.00 PKD
ROOT
HETATM    1  N   UNL     1      -8.695  16.575  65.705  1.00  0.00    -0.420 NA 
HETATM    2  H2  UNL     1      -8.191  17.461  65.723  1.00  0.00     0.000 HD 
HETATM    3  H1  UNL     1      -8.435  16.031  64.881  1.00  0.00     0.000 HD 
HETATM    4  CA  UNL     1      -8.516  15.843  66.999  1.00  0.00    -0.217 C  
HETATM    5  C   UNL     1      -9.290  14.514  66.932  1.00  0.00    -0.245 C  
HETATM    6  OXT UNL     1      -9.416  13.724  67.853  1.00  0.00    -0.200 OA 
HETATM    7  O   UNL     1      -9.813  14.307  65.695  1.00  0.00    -0.316 OA 
ENDROOT
BRANCH   4   8
HETATM    8  C   UNL     1      -8.908  16.664  68.244  1.00  0.00    -0.214 C  
BRANCH   8   9
HETATM    9  C   UNL     1      -8.079  17.912  68.459  1.00  0.00    -0.305 A  
HETATM   10  C   UNL     1      -8.213  19.006  67.587  1.00  0.00    -0.302 A  
HETATM   11  C   UNL     1      -7.391  20.117  67.740  1.00  0.00    -0.298 A  
HETATM   12  O   UNL     1      -7.477  21.197  66.906  1.00  0.00    -0.633 OA 
HETATM   13  C   UNL     1      -6.440  20.151  68.753  1.00  0.00    -0.309 A  
HETATM   14  H   UNL     1      -6.915  21.955  67.010  1.00  0.00     0.000 HD 
HETATM   15  O   UNL     1      -5.615  21.232  68.879  1.00  0.00    -0.329 OA 
HETATM   16  C   UNL     1      -6.309  19.094  69.640  1.00  0.00    -0.290 A  
HETATM   17  C   UNL     1      -7.135  17.977  69.499  1.00  0.00     0.090 A  
HETATM   18  H   UNL     1      -4.965  21.255  69.571  1.00  0.00     0.000 HD 
ENDBRANCH   8   9
ENDBRANCH   4   8
TORSDOF 2
ENDMDL
MODEL      190
REMARK 921   NORMALIZED FREE ENERGY PREDICTED BY IDOCK:   -3.27 KCAL/MOL
REMARK 922        TOTAL FREE ENERGY PREDICTED BY IDOCK:   -3.84 KCAL/MOL
REMARK 923 INTER-LIGAND FREE ENERGY PREDICTED BY IDOCK:   -3.93 KCAL/MOL
REMARK 924 INTRA-LIGAND FREE ENERGY PREDICTED BY IDOCK:    0.10 KCAL/MOL
REMARK 927      BINDING AFFINITY PREDICTED BY RF-SCORE:    0.00 PKD
ROOT
HETATM    1  N   UNL     1     -10.626  10.507  68.062  1.00  0.00    -0.197 NA 
HETATM    2  H2  UNL     1     -11.452  10.072  67.651  1.00  0.00     0.000 HD 
HETATM    3  H1  UNL     1      -9.823   9.881  68.000  1.00  0.00     0.000 HD 
HETATM    4  CA  UNL     1     -10.392  11.860  67.463  1.00  0.00    -0.200 C  
HETATM    5  C   UNL     1      -9.140  12.481  68.108  1.00  0.00    -0.204 C  
HETATM    6  OXT UNL     1      -8.726  13.611  67.901  1.00  0.00    -0.163 OA 
HETATM    7  O   UNL     1      -8.523  11.601  68.940  1.00  0.00    -0.076 OA 
ENDROOT
BRANCH   4   8
HETATM    8  C   UNL     1     -11.605  12.806  67.555  1.00  0.00    -0.412 C  
BRANCH   8   9
HETATM    9  C   UNL     1     -12.023  13.155  68.968  1.00  0.00    -0.329 A  
HETATM   10  C   UNL     1     -12.002  14.494  69.398  1.00  0.00    -0.362 A  
HETATM   11  C   UNL     1     -12.307  14.799  70.720  1.00  0.00    -0.330 A  
HETATM   12  O   UNL     1     -12.285  16.085  71.185  1.00  0.00    -0.503 OA 
HETATM   13  C   UNL     1     -12.636  13.789  71.615  1.00  0.00    -0.279 A  
HETATM   14  H   UNL     1     -12.493  16.294  72.088  1.00  0.00     0.000 HD 
HETATM   15  O   UNL     1     -12.905  14.093  72.919  1.00  0.00    -0.415 OA 
HETATM   16  C   UNL     1     -12.688  12.466  71.205  1.00  0.00    -0.336 A  
HETATM   17  C   UNL     1     -12.391  12.149  69.878  1.00  0.00    -0.129 A  
HETATM   18  H   UNL     1     -13.130  13.402  73.531  1.00  0.00     0.000 HD 
ENDBRANCH   8   9
ENDBRANCH   4   8
TORSDOF 2
ENDMDL
MODEL      191
REMARK 921   NORMALIZED FREE ENERGY PREDICTED BY IDOCK:   -3.26 KCAL/MOL
REMARK 922        TOTAL FREE ENERGY PREDICTED BY IDOCK:   -3.83 KCAL/MOL
REMARK 923 INTER-LIGAND FREE ENERGY PREDICTED BY IDOCK:   -3.59 KCAL/MOL
REMARK 924 INTRA-LIGAND FREE ENERGY PREDICTED BY IDOCK:   -0.24 KCAL/MOL
REMARK 927      BINDING AFFINITY PREDICTED BY RF-SCORE:    0.00 PKD
ROOT
HETATM    1  N   UNL     1      -8.164  10.668  68.818  1.00  0.00    -0.133 NA 
HETATM    2  H2  UNL     1      -7.760  11.033  69.680  1.00  0.00     0.000 HD 
HETATM    3  H1  UNL     1      -7.429  10.393  68.166  1.00  0.00     0.000 HD 
HETATM    4  CA  UNL     1      -9.149   9.581  69.119  1.00  0.00    -0.152 C  
HETATM    5  C   UNL     1      -9.735   9.058  67.795  1.00  0.00    -0.156 C  
HETATM    6  OXT UNL     1     -10.625   8.229  67.696  1.00  0.00    -0.241 OA 
HETATM    7  O   UNL     1      -9.120   9.623  66.723  1.00  0.00    -0.142 OA 
ENDROOT
BRANCH   4   8
HETATM    8  C   UNL     1     -10.260   9.995  70.105  1.00  0.00    -0.297 C  
BRANCH   8   9
HETATM    9  C   UNL     1     -10.454   9.045  71.267  1.00  0.00    -0.381 A  
HETATM   10  C   UNL     1      -9.406   8.821  72.177  1.00  0.00    -0.277 A  
HETATM   11  C   UNL     1      -9.561   7.886  73.193  1.00  0.00    -0.286 A  
HETATM   12  O   UNL     1      -8.564   7.625  74.091  1.00  0.00    -0.217 OA 
HETATM   13  C   UNL     1     -10.750   7.176  73.318  1.00  0.00    -0.361 A  
HETATM   14  H   UNL     1      -8.670   6.986  74.786  1.00  0.00     0.000 HD 
HETATM   15  O   UNL     1     -10.885   6.238  74.301  1.00  0.00    -0.347 OA 
HETATM   16  C   UNL     1     -11.806   7.402  72.448  1.00  0.00    -0.273 A  
HETATM   17  C   UNL     1     -11.662   8.344  71.427  1.00  0.00    -0.332 A  
HETATM   18  H   UNL     1     -11.698   5.753  74.385  1.00  0.00     0.000 HD 
ENDBRANCH   8   9
ENDBRANCH   4   8
TORSDOF 2
ENDMDL
MODEL      192
REMARK 921   NORMALIZED FREE ENERGY PREDICTED BY IDOCK:   -3.25 KCAL/MOL
REMARK 922        TOTAL FREE ENERGY PREDICTED BY IDOCK:   -3.81 KCAL/MOL
REMARK 923 INTER-LIGAND FREE ENERGY PREDICTED BY IDOCK:   -3.68 KCAL/MOL
REMARK 924 INTRA-LIGAND FREE ENERGY PREDICTED BY IDOCK:   -0.13 KCAL/MOL
REMARK 927      BINDING AFFINITY PREDICTED BY RF-SCORE:    0.00 PKD
ROOT
HETATM    1  N   UNL     1      -9.689  13.507  68.663  1.00  0.00    -0.385 NA 
HETATM    2  H2  UNL     1      -8.671  13.482  68.616  1.00  0.00     0.000 HD 
HETATM    3  H1  UNL     1      -9.997  14.102  69.433  1.00  0.00     0.000 HD 
HETATM    4  CA  UNL     1     -10.269  13.880  67.334  1.00  0.00    -0.252 C  
HETATM    5  C   UNL     1     -11.803  13.907  67.449  1.00  0.00    -0.402 C  
HETATM    6  OXT UNL     1     -12.577  14.094  66.523  1.00  0.00    -0.394 OA 
HETATM    7  O   UNL     1     -12.208  13.712  68.731  1.00  0.00    -0.339 OA 
ENDROOT
BRANCH   4   8
HETATM    8  C   UNL     1      -9.803  12.981  66.172  1.00  0.00    -0.275 C  
BRANCH   8   9
HETATM    9  C   UNL     1      -9.505  11.550  66.565  1.00  0.00    -0.220 A  
HETATM   10  C   UNL     1     -10.559  10.654  66.815  1.00  0.00    -0.297 A  
HETATM   11  C   UNL     1     -10.280   9.366  67.256  1.00  0.00    -0.246 A  
HETATM   12  O   UNL     1     -11.274   8.466  67.525  1.00  0.00    -0.363 OA 
HETATM   13  C   UNL     1      -8.965   8.958  67.446  1.00  0.00    -0.132 A  
HETATM   14  H   UNL     1     -11.084   7.585  67.826  1.00  0.00     0.000 HD 
HETATM   15  O   UNL     1      -8.700   7.701  67.909  1.00  0.00    -0.124 OA 
HETATM   16  C   UNL     1      -7.910   9.818  67.181  1.00  0.00    -0.099 A  
HETATM   17  C   UNL     1      -8.179  11.112  66.731  1.00  0.00    -0.154 A  
HETATM   18  H   UNL     1      -7.801   7.423  68.039  1.00  0.00     0.000 HD 
ENDBRANCH   8   9
ENDBRANCH   4   8
TORSDOF 2
ENDMDL
MODEL      193
REMARK 921   NORMALIZED FREE ENERGY PREDICTED BY IDOCK:   -3.23 KCAL/MOL
REMARK 922        TOTAL FREE ENERGY PREDICTED BY IDOCK:   -3.79 KCAL/MOL
REMARK 923 INTER-LIGAND FREE ENERGY PREDICTED BY IDOCK:   -3.99 KCAL/MOL
REMARK 924 INTRA-LIGAND FREE ENERGY PREDICTED BY IDOCK:    0.20 KCAL/MOL
REMARK 927      BINDING AFFINITY PREDICTED BY RF-SCORE:    0.00 PKD
ROOT
HETATM    1  N   UNL     1      -8.996  13.766  66.561  1.00  0.00    -0.453 NA 
HETATM    2  H2  UNL     1      -8.971  14.499  65.852  1.00  0.00     0.000 HD 
HETATM    3  H1  UNL     1      -8.406  14.016  67.355  1.00  0.00     0.000 HD 
HETATM    4  CA  UNL     1     -10.411  13.441  66.931  1.00  0.00    -0.257 C  
HETATM    5  C   UNL     1     -10.404  12.334  68.000  1.00  0.00    -0.214 C  
HETATM    6  OXT UNL     1     -11.396  11.785  68.453  1.00  0.00    -0.224 OA 
HETATM    7  O   UNL     1      -9.140  12.044  68.406  1.00  0.00    -0.188 OA 
ENDROOT
BRANCH   4   8
HETATM    8  C   UNL     1     -11.302  13.064  65.731  1.00  0.00    -0.331 C  
BRANCH   8   9
HETATM    9  C   UNL     1     -10.710  12.014  64.814  1.00  0.00    -0.352 A  
HETATM   10  C   UNL     1     -10.259  10.791  65.343  1.00  0.00    -0.341 A  
HETATM   11  C   UNL     1      -9.641   9.865  64.510  1.00  0.00    -0.222 A  
HETATM   12  O   UNL     1      -9.173   8.671  64.983  1.00  0.00    -0.433 OA 
HETATM   13  C   UNL     1      -9.472  10.140  63.158  1.00  0.00    -0.255 A  
HETATM   14  H   UNL     1      -8.751   8.038  64.415  1.00  0.00     0.000 HD 
HETATM   15  O   UNL     1      -8.837   9.238  62.352  1.00  0.00    -0.231 OA 
HETATM   16  C   UNL     1      -9.934  11.328  62.612  1.00  0.00    -0.067 A  
HETATM   17  C   UNL     1     -10.562  12.262  63.439  1.00  0.00    -0.427 A  
HETATM   18  H   UNL     1      -8.722   9.427  61.428  1.00  0.00     0.000 HD 
ENDBRANCH   8   9
ENDBRANCH   4   8
TORSDOF 2
ENDMDL
MODEL      194
REMARK 921   NORMALIZED FREE ENERGY PREDICTED BY IDOCK:   -3.22 KCAL/MOL
REMARK 922        TOTAL FREE ENERGY PREDICTED BY IDOCK:   -3.78 KCAL/MOL
REMARK 923 INTER-LIGAND FREE ENERGY PREDICTED BY IDOCK:   -3.69 KCAL/MOL
REMARK 924 INTRA-LIGAND FREE ENERGY PREDICTED BY IDOCK:   -0.09 KCAL/MOL
REMARK 927      BINDING AFFINITY PREDICTED BY RF-SCORE:    0.00 PKD
ROOT
HETATM    1  N   UNL     1      -7.918  10.198  67.796  1.00  0.00    -0.102 NA 
HETATM    2  H2  UNL     1      -7.792   9.197  67.947  1.00  0.00     0.000 HD 
HETATM    3  H1  UNL     1      -7.018  10.653  67.641  1.00  0.00     0.000 HD 
HETATM    4  CA  UNL     1      -8.920  10.444  66.711  1.00  0.00    -0.140 C  
HETATM    5  C   UNL     1      -9.081  11.962  66.515  1.00  0.00    -0.211 C  
HETATM    6  OXT UNL     1      -9.883  12.496  65.765  1.00  0.00    -0.259 OA 
HETATM    7  O   UNL     1      -8.195  12.657  67.276  1.00  0.00    -0.176 OA 
ENDROOT
BRANCH   4   8
HETATM    8  C   UNL     1     -10.280   9.756  66.944  1.00  0.00    -0.310 C  
BRANCH   8   9
HETATM    9  C   UNL     1     -10.844   9.937  68.338  1.00  0.00    -0.263 A  
HETATM   10  C   UNL     1     -10.646   8.943  69.312  1.00  0.00    -0.219 A  
HETATM   11  C   UNL     1     -11.236   9.076  70.564  1.00  0.00    -0.260 A  
HETATM   12  O   UNL     1     -11.083   8.128  71.537  1.00  0.00    -0.240 OA 
HETATM   13  C   UNL     1     -12.016  10.189  70.857  1.00  0.00    -0.365 A  
HETATM   14  H   UNL     1     -11.486   8.219  72.392  1.00  0.00     0.000 HD 
HETATM   15  O   UNL     1     -12.617  10.299  72.079  1.00  0.00    -0.371 OA 
HETATM   16  C   UNL     1     -12.202  11.193  69.919  1.00  0.00    -0.385 A  
HETATM   17  C   UNL     1     -11.608  11.072  68.662  1.00  0.00    -0.385 A  
HETATM   18  H   UNL     1     -13.150  11.059  72.279  1.00  0.00     0.000 HD 
ENDBRANCH   8   9
ENDBRANCH   4   8
TORSDOF 2
ENDMDL
MODEL      195
REMARK 921   NORMALIZED FREE ENERGY PREDICTED BY IDOCK:   -3.21 KCAL/MOL
REMARK 922        TOTAL FREE ENERGY PREDICTED BY IDOCK:   -3.77 KCAL/MOL
REMARK 923 INTER-LIGAND FREE ENERGY PREDICTED BY IDOCK:   -3.97 KCAL/MOL
REMARK 924 INTRA-LIGAND FREE ENERGY PREDICTED BY IDOCK:    0.20 KCAL/MOL
REMARK 927      BINDING AFFINITY PREDICTED BY RF-SCORE:    0.00 PKD
ROOT
HETATM    1  N   UNL     1     -10.292  12.842  66.895  1.00  0.00    -0.242 NA 
HETATM    2  H2  UNL     1     -10.079  12.716  67.884  1.00  0.00     0.000 HD 
HETATM    3  H1  UNL     1     -10.499  11.945  66.455  1.00  0.00     0.000 HD 
HETATM    4  CA  UNL     1     -11.368  13.869  66.715  1.00  0.00    -0.333 C  
HETATM    5  C   UNL     1     -11.659  14.029  65.212  1.00  0.00    -0.337 C  
HETATM    6  OXT UNL     1     -12.424  14.846  64.725  1.00  0.00    -0.320 OA 
HETATM    7  O   UNL     1     -10.967  13.122  64.474  1.00  0.00    -0.333 OA 
ENDROOT
BRANCH   4   8
HETATM    8  C   UNL     1     -11.057  15.226  67.379  1.00  0.00    -0.326 C  
BRANCH   8   9
HETATM    9  C   UNL     1      -9.624  15.689  67.219  1.00  0.00    -0.220 A  
HETATM   10  C   UNL     1      -9.324  16.768  66.369  1.00  0.00    -0.305 A  
HETATM   11  C   UNL     1      -7.999  17.135  66.162  1.00  0.00    -0.262 A  
HETATM   12  O   UNL     1      -7.659  18.168  65.332  1.00  0.00    -0.426 OA 
HETATM   13  C   UNL     1      -6.972  16.445  66.795  1.00  0.00    -0.177 A  
HETATM   14  H   UNL     1      -6.755  18.419  65.191  1.00  0.00     0.000 HD 
HETATM   15  O   UNL     1      -5.672  16.793  66.564  1.00  0.00    -0.328 OA 
HETATM   16  C   UNL     1      -7.249  15.396  67.658  1.00  0.00    -0.206 A  
HETATM   17  C   UNL     1      -8.576  15.023  67.878  1.00  0.00    -0.155 A  
HETATM   18  H   UNL     1      -4.970  16.320  66.997  1.00  0.00     0.000 HD 
ENDBRANCH   8   9
ENDBRANCH   4   8
TORSDOF 2
ENDMDL
MODEL      196
REMARK 921   NORMALIZED FREE ENERGY PREDICTED BY IDOCK:   -3.19 KCAL/MOL
REMARK 922        TOTAL FREE ENERGY PREDICTED BY IDOCK:   -3.75 KCAL/MOL
REMARK 923 INTER-LIGAND FREE ENERGY PREDICTED BY IDOCK:   -3.72 KCAL/MOL
REMARK 924 INTRA-LIGAND FREE ENERGY PREDICTED BY IDOCK:   -0.03 KCAL/MOL
REMARK 927      BINDING AFFINITY PREDICTED BY RF-SCORE:    0.00 PKD
ROOT
HETATM    1  N   UNL     1      -9.971   8.236  66.824  1.00  0.00    -0.261 NA 
HETATM    2  H2  UNL     1      -9.453   9.028  66.444  1.00  0.00     0.000 HD 
HETATM    3  H1  UNL     1     -10.231   7.587  66.080  1.00  0.00     0.000 HD 
HETATM    4  CA  UNL     1      -9.212   7.601  67.948  1.00  0.00    -0.136 C  
HETATM    5  C   UNL     1     -10.026   6.414  68.492  1.00  0.00    -0.142 C  
HETATM    6  OXT UNL     1      -9.725   5.738  69.463  1.00  0.00    -0.141 OA 
HETATM    7  O   UNL     1     -11.133   6.185  67.739  1.00  0.00    -0.326 OA 
ENDROOT
BRANCH   4   8
HETATM    8  C   UNL     1      -8.820   8.581  69.072  1.00  0.00    -0.145 C  
BRANCH   8   9
HETATM    9  C   UNL     1      -9.985   9.316  69.699  1.00  0.00    -0.201 A  
HETATM   10  C   UNL     1     -10.412  10.545  69.167  1.00  0.00    -0.250 A  
HETATM   11  C   UNL     1     -11.428  11.255  69.797  1.00  0.00    -0.310 A  
HETATM   12  O   UNL     1     -11.865  12.460  69.323  1.00  0.00    -0.303 OA 
HETATM   13  C   UNL     1     -12.026  10.753  70.946  1.00  0.00    -0.333 A  
HETATM   14  H   UNL     1     -12.559  12.946  69.752  1.00  0.00     0.000 HD 
HETATM   15  O   UNL     1     -13.003  11.470  71.577  1.00  0.00    -0.431 OA 
HETATM   16  C   UNL     1     -11.638   9.530  71.473  1.00  0.00    -0.465 A  
HETATM   17  C   UNL     1     -10.624   8.806  70.844  1.00  0.00    -0.276 A  
HETATM   18  H   UNL     1     -13.411  11.127  72.363  1.00  0.00     0.000 HD 
ENDBRANCH   8   9
ENDBRANCH   4   8
TORSDOF 2
ENDMDL
MODEL      197
REMARK 921   NORMALIZED FREE ENERGY PREDICTED BY IDOCK:   -3.17 KCAL/MOL
REMARK 922        TOTAL FREE ENERGY PREDICTED BY IDOCK:   -3.73 KCAL/MOL
REMARK 923 INTER-LIGAND FREE ENERGY PREDICTED BY IDOCK:   -3.54 KCAL/MOL
REMARK 924 INTRA-LIGAND FREE ENERGY PREDICTED BY IDOCK:   -0.20 KCAL/MOL
REMARK 927      BINDING AFFINITY PREDICTED BY RF-SCORE:    0.00 PKD
ROOT
HETATM    1  N   UNL     1     -10.373   8.819  69.552  1.00  0.00    -0.209 NA 
HETATM    2  H2  UNL     1     -10.215   8.887  70.557  1.00  0.00     0.000 HD 
HETATM    3  H1  UNL     1      -9.665   9.346  69.041  1.00  0.00     0.000 HD 
HETATM    4  CA  UNL     1     -10.484   7.385  69.134  1.00  0.00    -0.213 C  
HETATM    5  C   UNL     1     -10.722   7.325  67.614  1.00  0.00    -0.224 C  
HETATM    6  OXT UNL     1     -10.938   6.309  66.974  1.00  0.00    -0.355 OA 
HETATM    7  O   UNL     1     -10.642   8.559  67.052  1.00  0.00    -0.306 OA 
ENDROOT
BRANCH   4   8
HETATM    8  C   UNL     1     -11.553   6.587  69.906  1.00  0.00    -0.433 C  
BRANCH   8   9
HETATM    9  C   UNL     1     -11.007   5.722  71.023  1.00  0.00    -0.300 A  
HETATM   10  C   UNL     1      -9.999   4.780  70.754  1.00  0.00    -0.291 A  
HETATM   11  C   UNL     1      -9.560   3.931  71.765  1.00  0.00    -0.158 A  
HETATM   12  O   UNL     1      -8.593   2.990  71.546  1.00  0.00    -0.066 OA 
HETATM   13  C   UNL     1     -10.110   4.015  73.039  1.00  0.00    -0.152 A  
HETATM   14  H   UNL     1      -8.293   2.411  72.236  1.00  0.00     0.000 HD 
HETATM   15  O   UNL     1      -9.695   3.158  74.018  1.00  0.00    -0.094 OA 
HETATM   16  C   UNL     1     -11.086   4.955  73.331  1.00  0.00    -0.415 A  
HETATM   17  C   UNL     1     -11.529   5.816  72.325  1.00  0.00    -0.320 A  
HETATM   18  H   UNL     1     -10.072   3.215  74.889  1.00  0.00     0.000 HD 
ENDBRANCH   8   9
ENDBRANCH   4   8
TORSDOF 2
ENDMDL
MODEL      198
REMARK 921   NORMALIZED FREE ENERGY PREDICTED BY IDOCK:   -3.17 KCAL/MOL
REMARK 922        TOTAL FREE ENERGY PREDICTED BY IDOCK:   -3.73 KCAL/MOL
REMARK 923 INTER-LIGAND FREE ENERGY PREDICTED BY IDOCK:   -3.68 KCAL/MOL
REMARK 924 INTRA-LIGAND FREE ENERGY PREDICTED BY IDOCK:   -0.05 KCAL/MOL
REMARK 927      BINDING AFFINITY PREDICTED BY RF-SCORE:    0.00 PKD
ROOT
HETATM    1  N   UNL     1      -7.825   8.721  72.084  1.00  0.00    -0.355 NA 
HETATM    2  H2  UNL     1      -7.424   9.363  71.401  1.00  0.00     0.000 HD 
HETATM    3  H1  UNL     1      -7.470   8.924  73.019  1.00  0.00     0.000 HD 
HETATM    4  CA  UNL     1      -9.320   8.716  71.987  1.00  0.00    -0.292 C  
HETATM    5  C   UNL     1      -9.884   7.736  73.031  1.00  0.00    -0.282 C  
HETATM    6  OXT UNL     1     -11.061   7.438  73.155  1.00  0.00    -0.353 OA 
HETATM    7  O   UNL     1      -8.902   7.243  73.830  1.00  0.00    -0.168 OA 
ENDROOT
BRANCH   4   8
HETATM    8  C   UNL     1      -9.856   8.409  70.575  1.00  0.00    -0.204 C  
BRANCH   8   9
HETATM    9  C   UNL     1      -9.866   9.596  69.635  1.00  0.00    -0.233 A  
HETATM   10  C   UNL     1     -11.086  10.113  69.166  1.00  0.00    -0.257 A  
HETATM   11  C   UNL     1     -11.087  11.149  68.239  1.00  0.00    -0.251 A  
HETATM   12  O   UNL     1     -12.249  11.672  67.744  1.00  0.00    -0.560 OA 
HETATM   13  C   UNL     1      -9.887  11.680  67.779  1.00  0.00    -0.179 A  
HETATM   14  H   UNL     1     -12.249  12.380  67.111  1.00  0.00     0.000 HD 
HETATM   15  O   UNL     1      -9.895  12.677  66.847  1.00  0.00    -0.224 OA 
HETATM   16  C   UNL     1      -8.673  11.203  68.250  1.00  0.00    -0.151 A  
HETATM   17  C   UNL     1      -8.662  10.167  69.185  1.00  0.00    -0.173 A  
HETATM   18  H   UNL     1      -9.075  13.040  66.533  1.00  0.00     0.000 HD 
ENDBRANCH   8   9
ENDBRANCH   4   8
TORSDOF 2
ENDMDL
MODEL      199
REMARK 921   NORMALIZED FREE ENERGY PREDICTED BY IDOCK:   -3.17 KCAL/MOL
REMARK 922        TOTAL FREE ENERGY PREDICTED BY IDOCK:   -3.72 KCAL/MOL
REMARK 923 INTER-LIGAND FREE ENERGY PREDICTED BY IDOCK:   -3.53 KCAL/MOL
REMARK 924 INTRA-LIGAND FREE ENERGY PREDICTED BY IDOCK:   -0.20 KCAL/MOL
REMARK 927      BINDING AFFINITY PREDICTED BY RF-SCORE:    0.00 PKD
ROOT
HETATM    1  N   UNL     1     -10.257  12.019  68.871  1.00  0.00    -0.407 NA 
HETATM    2  H2  UNL     1      -9.653  11.679  68.123  1.00  0.00     0.000 HD 
HETATM    3  H1  UNL     1     -10.781  12.840  68.564  1.00  0.00     0.000 HD 
HETATM    4  CA  UNL     1     -11.115  10.911  69.399  1.00  0.00    -0.260 C  
HETATM    5  C   UNL     1     -12.009  11.464  70.523  1.00  0.00    -0.356 C  
HETATM    6  OXT UNL     1     -12.764  10.800  71.215  1.00  0.00    -0.374 OA 
HETATM    7  O   UNL     1     -11.874  12.811  70.646  1.00  0.00    -0.209 OA 
ENDROOT
BRANCH   4   8
HETATM    8  C   UNL     1     -10.324   9.672  69.862  1.00  0.00    -0.282 C  
BRANCH   8   9
HETATM    9  C   UNL     1     -10.518   8.444  68.998  1.00  0.00    -0.216 A  
HETATM   10  C   UNL     1     -10.672   7.180  69.594  1.00  0.00    -0.256 A  
HETATM   11  C   UNL     1     -10.766   6.046  68.795  1.00  0.00    -0.308 A  
HETATM   12  O   UNL     1     -10.903   4.796  69.332  1.00  0.00     0.400 OA 
HETATM   13  C   UNL     1     -10.714   6.158  67.410  1.00  0.00    -0.322 A  
HETATM   14  H   UNL     1     -10.967   4.022  68.786  1.00  0.00     0.000 HD 
HETATM   15  O   UNL     1     -10.776   5.036  66.633  1.00  0.00    -0.346 OA 
HETATM   16  C   UNL     1     -10.588   7.397  66.802  1.00  0.00    -0.281 A  
HETATM   17  C   UNL     1     -10.500   8.542  67.596  1.00  0.00    -0.308 A  
HETATM   18  H   UNL     1     -10.740   5.113  65.687  1.00  0.00     0.000 HD 
ENDBRANCH   8   9
ENDBRANCH   4   8
TORSDOF 2
ENDMDL
MODEL      200
REMARK 921   NORMALIZED FREE ENERGY PREDICTED BY IDOCK:   -3.15 KCAL/MOL
REMARK 922        TOTAL FREE ENERGY PREDICTED BY IDOCK:   -3.71 KCAL/MOL
REMARK 923 INTER-LIGAND FREE ENERGY PREDICTED BY IDOCK:   -3.54 KCAL/MOL
REMARK 924 INTRA-LIGAND FREE ENERGY PREDICTED BY IDOCK:   -0.16 KCAL/MOL
REMARK 927      BINDING AFFINITY PREDICTED BY RF-SCORE:    0.00 PKD
ROOT
HETATM    1  N   UNL     1     -12.251   8.014  70.496  1.00  0.00    -0.469 NA 
HETATM    2  H2  UNL     1     -12.362   7.803  69.504  1.00  0.00     0.000 HD 
HETATM    3  H1  UNL     1     -13.161   8.150  70.937  1.00  0.00     0.000 HD 
HETATM    4  CA  UNL     1     -11.400   6.977  71.162  1.00  0.00    -0.282 C  
HETATM    5  C   UNL     1     -11.257   7.331  72.653  1.00  0.00    -0.313 C  
HETATM    6  OXT UNL     1     -10.559   6.734  73.456  1.00  0.00    -0.297 OA 
HETATM    7  O   UNL     1     -12.031   8.398  72.985  1.00  0.00    -0.236 OA 
ENDROOT
BRANCH   4   8
HETATM    8  C   UNL     1     -10.025   6.771  70.495  1.00  0.00    -0.197 C  
BRANCH   8   9
HETATM    9  C   UNL     1     -10.025   5.778  69.351  1.00  0.00    -0.244 A  
HETATM   10  C   UNL     1      -9.672   4.437  69.583  1.00  0.00    -0.289 A  
HETATM   11  C   UNL     1      -9.593   3.550  68.516  1.00  0.00    -0.081 A  
HETATM   12  O   UNL     1      -9.240   2.241  68.693  1.00  0.00    -0.137 OA 
HETATM   13  C   UNL     1      -9.865   3.981  67.223  1.00  0.00    -0.083 A  
HETATM   14  H   UNL     1      -9.186   1.634  67.964  1.00  0.00     0.000 HD 
HETATM   15  O   UNL     1      -9.756   3.111  66.176  1.00  0.00    -0.398 OA 
HETATM   16  C   UNL     1     -10.240   5.293  66.976  1.00  0.00    -0.274 A  
HETATM   17  C   UNL     1     -10.329   6.190  68.042  1.00  0.00    -0.245 A  
HETATM   18  H   UNL     1      -9.941   3.406  65.292  1.00  0.00     0.000 HD 
ENDBRANCH   8   9
ENDBRANCH   4   8
TORSDOF 2
ENDMDL
MODEL      201
REMARK 921   NORMALIZED FREE ENERGY PREDICTED BY IDOCK:   -3.15 KCAL/MOL
REMARK 922        TOTAL FREE ENERGY PREDICTED BY IDOCK:   -3.70 KCAL/MOL
REMARK 923 INTER-LIGAND FREE ENERGY PREDICTED BY IDOCK:   -3.50 KCAL/MOL
REMARK 924 INTRA-LIGAND FREE ENERGY PREDICTED BY IDOCK:   -0.20 KCAL/MOL
REMARK 927      BINDING AFFINITY PREDICTED BY RF-SCORE:    0.00 PKD
ROOT
HETATM    1  N   UNL     1      -8.609   8.638  67.627  1.00  0.00    -0.135 NA 
HETATM    2  H2  UNL     1      -9.541   8.717  68.033  1.00  0.00     0.000 HD 
HETATM    3  H1  UNL     1      -8.488   7.728  67.181  1.00  0.00     0.000 HD 
HETATM    4  CA  UNL     1      -8.327   9.800  66.725  1.00  0.00    -0.124 C  
HETATM    5  C   UNL     1      -6.914   9.642  66.135  1.00  0.00    -0.093 C  
HETATM    6  OXT UNL     1      -6.350  10.462  65.428  1.00  0.00    -0.116 OA 
HETATM    7  O   UNL     1      -6.362   8.451  66.484  1.00  0.00    -0.053 OA 
ENDROOT
BRANCH   4   8
HETATM    8  C   UNL     1      -8.510  11.175  67.398  1.00  0.00    -0.134 C  
BRANCH   8   9
HETATM    9  C   UNL     1      -9.762  11.916  66.982  1.00  0.00    -0.204 A  
HETATM   10  C   UNL     1      -9.912  12.355  65.654  1.00  0.00    -0.261 A  
HETATM   11  C   UNL     1     -11.026  13.107  65.297  1.00  0.00    -0.285 A  
HETATM   12  O   UNL     1     -11.206  13.566  64.023  1.00  0.00    -0.538 OA 
HETATM   13  C   UNL     1     -11.992  13.423  66.245  1.00  0.00    -0.411 A  
HETATM   14  H   UNL     1     -11.966  14.080  63.778  1.00  0.00     0.000 HD 
HETATM   15  O   UNL     1     -13.068  14.188  65.894  1.00  0.00    -0.499 OA 
HETATM   16  C   UNL     1     -11.876  12.978  67.553  1.00  0.00    -0.408 A  
HETATM   17  C   UNL     1     -10.765  12.216  67.920  1.00  0.00    -0.237 A  
HETATM   18  H   UNL     1     -13.728  14.403  66.542  1.00  0.00     0.000 HD 
ENDBRANCH   8   9
ENDBRANCH   4   8
TORSDOF 2
ENDMDL
MODEL      202
REMARK 921   NORMALIZED FREE ENERGY PREDICTED BY IDOCK:   -3.15 KCAL/MOL
REMARK 922        TOTAL FREE ENERGY PREDICTED BY IDOCK:   -3.70 KCAL/MOL
REMARK 923 INTER-LIGAND FREE ENERGY PREDICTED BY IDOCK:   -3.60 KCAL/MOL
REMARK 924 INTRA-LIGAND FREE ENERGY PREDICTED BY IDOCK:   -0.10 KCAL/MOL
REMARK 927      BINDING AFFINITY PREDICTED BY RF-SCORE:    0.00 PKD
ROOT
HETATM    1  N   UNL     1     -10.684   7.224  73.194  1.00  0.00    -0.334 NA 
HETATM    2  H2  UNL     1     -11.449   7.805  73.537  1.00  0.00     0.000 HD 
HETATM    3  H1  UNL     1     -10.167   6.816  73.973  1.00  0.00     0.000 HD 
HETATM    4  CA  UNL     1     -11.189   6.219  72.205  1.00  0.00    -0.282 C  
HETATM    5  C   UNL     1     -10.007   5.365  71.713  1.00  0.00    -0.183 C  
HETATM    6  OXT UNL     1     -10.066   4.513  70.842  1.00  0.00    -0.207 OA 
HETATM    7  O   UNL     1      -8.866   5.662  72.389  1.00  0.00    -0.134 OA 
ENDROOT
BRANCH   4   8
HETATM    8  C   UNL     1     -11.971   6.836  71.028  1.00  0.00    -0.431 C  
BRANCH   8   9
HETATM    9  C   UNL     1     -11.301   8.033  70.388  1.00  0.00    -0.190 A  
HETATM   10  C   UNL     1     -11.741   9.333  70.694  1.00  0.00    -0.276 A  
HETATM   11  C   UNL     1     -11.178  10.424  70.041  1.00  0.00    -0.316 A  
HETATM   12  O   UNL     1     -11.585  11.704  70.296  1.00  0.00    -0.467 OA 
HETATM   13  C   UNL     1     -10.180  10.236  69.092  1.00  0.00    -0.218 A  
HETATM   14  H   UNL     1     -11.201  12.450  69.850  1.00  0.00     0.000 HD 
HETATM   15  O   UNL     1      -9.653  11.310  68.433  1.00  0.00    -0.182 OA 
HETATM   16  C   UNL     1      -9.713   8.964  68.795  1.00  0.00    -0.170 A  
HETATM   17  C   UNL     1     -10.267   7.863  69.450  1.00  0.00    -0.206 A  
HETATM   18  H   UNL     1      -8.971  11.180  67.785  1.00  0.00     0.000 HD 
ENDBRANCH   8   9
ENDBRANCH   4   8
TORSDOF 2
ENDMDL
MODEL      203
REMARK 921   NORMALIZED FREE ENERGY PREDICTED BY IDOCK:   -3.14 KCAL/MOL
REMARK 922        TOTAL FREE ENERGY PREDICTED BY IDOCK:   -3.70 KCAL/MOL
REMARK 923 INTER-LIGAND FREE ENERGY PREDICTED BY IDOCK:   -3.68 KCAL/MOL
REMARK 924 INTRA-LIGAND FREE ENERGY PREDICTED BY IDOCK:   -0.02 KCAL/MOL
REMARK 927      BINDING AFFINITY PREDICTED BY RF-SCORE:    0.00 PKD
ROOT
HETATM    1  N   UNL     1      -8.897   6.742  73.550  1.00  0.00    -0.126 NA 
HETATM    2  H2  UNL     1      -8.522   7.630  73.884  1.00  0.00     0.000 HD 
HETATM    3  H1  UNL     1      -8.446   5.961  74.027  1.00  0.00     0.000 HD 
HETATM    4  CA  UNL     1     -10.392   6.733  73.644  1.00  0.00    -0.344 C  
HETATM    5  C   UNL     1     -10.916   5.380  73.132  1.00  0.00    -0.302 C  
HETATM    6  OXT UNL     1     -12.093   5.084  72.999  1.00  0.00    -0.171 OA 
HETATM    7  O   UNL     1      -9.896   4.526  72.855  1.00  0.00    -0.137 OA 
ENDROOT
BRANCH   4   8
HETATM    8  C   UNL     1     -11.073   7.914  72.924  1.00  0.00    -0.442 C  
BRANCH   8   9
HETATM    9  C   UNL     1     -10.642   8.105  71.485  1.00  0.00    -0.282 A  
HETATM   10  C   UNL     1     -11.226   7.332  70.467  1.00  0.00    -0.305 A  
HETATM   11  C   UNL     1     -10.768   7.452  69.160  1.00  0.00    -0.166 A  
HETATM   12  O   UNL     1     -11.296   6.710  68.140  1.00  0.00    -0.552 OA 
HETATM   13  C   UNL     1      -9.740   8.337  68.855  1.00  0.00    -0.164 A  
HETATM   14  H   UNL     1     -10.984   6.792  67.247  1.00  0.00     0.000 HD 
HETATM   15  O   UNL     1      -9.275   8.428  67.574  1.00  0.00    -0.138 OA 
HETATM   16  C   UNL     1      -9.168   9.127  69.840  1.00  0.00    -0.194 A  
HETATM   17  C   UNL     1      -9.626   9.019  71.155  1.00  0.00    -0.356 A  
HETATM   18  H   UNL     1      -8.572   9.032  67.366  1.00  0.00     0.000 HD 
ENDBRANCH   8   9
ENDBRANCH   4   8
TORSDOF 2
ENDMDL
MODEL      204
REMARK 921   NORMALIZED FREE ENERGY PREDICTED BY IDOCK:   -3.14 KCAL/MOL
REMARK 922        TOTAL FREE ENERGY PREDICTED BY IDOCK:   -3.69 KCAL/MOL
REMARK 923 INTER-LIGAND FREE ENERGY PREDICTED BY IDOCK:   -3.54 KCAL/MOL
REMARK 924 INTRA-LIGAND FREE ENERGY PREDICTED BY IDOCK:   -0.15 KCAL/MOL
REMARK 927      BINDING AFFINITY PREDICTED BY RF-SCORE:    0.00 PKD
ROOT
HETATM    1  N   UNL     1      -7.959   8.567  68.490  1.00  0.00    -0.115 NA 
HETATM    2  H2  UNL     1      -7.891   7.559  68.628  1.00  0.00     0.000 HD 
HETATM    3  H1  UNL     1      -7.040   8.964  68.290  1.00  0.00     0.000 HD 
HETATM    4  CA  UNL     1      -8.998   8.890  67.461  1.00  0.00    -0.133 C  
HETATM    5  C   UNL     1      -9.068  10.417  67.284  1.00  0.00    -0.135 C  
HETATM    6  OXT UNL     1      -9.871  11.009  66.581  1.00  0.00    -0.191 OA 
HETATM    7  O   UNL     1      -8.099  11.044  68.001  1.00  0.00    -0.113 OA 
ENDROOT
BRANCH   4   8
HETATM    8  C   UNL     1     -10.386   8.290  67.762  1.00  0.00    -0.296 C  
BRANCH   8   9
HETATM    9  C   UNL     1     -10.743   8.240  69.233  1.00  0.00    -0.140 A  
HETATM   10  C   UNL     1     -10.795   7.006  69.904  1.00  0.00    -0.280 A  
HETATM   11  C   UNL     1     -11.204   6.958  71.232  1.00  0.00    -0.268 A  
HETATM   12  O   UNL     1     -11.284   5.779  71.918  1.00  0.00    -0.264 OA 
HETATM   13  C   UNL     1     -11.555   8.125  71.900  1.00  0.00    -0.306 A  
HETATM   14  H   UNL     1     -11.563   5.746  72.826  1.00  0.00     0.000 HD 
HETATM   15  O   UNL     1     -11.984   8.067  73.195  1.00  0.00    -0.646 OA 
HETATM   16  C   UNL     1     -11.485   9.356  71.265  1.00  0.00    -0.433 A  
HETATM   17  C   UNL     1     -11.069   9.415  69.933  1.00  0.00    -0.223 A  
HETATM   18  H   UNL     1     -12.224   8.865  73.652  1.00  0.00     0.000 HD 
ENDBRANCH   8   9
ENDBRANCH   4   8
TORSDOF 2
ENDMDL
MODEL      205
REMARK 921   NORMALIZED FREE ENERGY PREDICTED BY IDOCK:   -3.14 KCAL/MOL
REMARK 922        TOTAL FREE ENERGY PREDICTED BY IDOCK:   -3.69 KCAL/MOL
REMARK 923 INTER-LIGAND FREE ENERGY PREDICTED BY IDOCK:   -3.59 KCAL/MOL
REMARK 924 INTRA-LIGAND FREE ENERGY PREDICTED BY IDOCK:   -0.10 KCAL/MOL
REMARK 927      BINDING AFFINITY PREDICTED BY RF-SCORE:    0.00 PKD
ROOT
HETATM    1  N   UNL     1      -8.897   6.736  73.573  1.00  0.00    -0.126 NA 
HETATM    2  H2  UNL     1      -8.575   7.646  73.902  1.00  0.00     0.000 HD 
HETATM    3  H1  UNL     1      -8.400   5.985  74.052  1.00  0.00     0.000 HD 
HETATM    4  CA  UNL     1     -10.389   6.639  73.671  1.00  0.00    -0.320 C  
HETATM    5  C   UNL     1     -10.833   5.255  73.166  1.00  0.00    -0.287 C  
HETATM    6  OXT UNL     1     -11.991   4.890  73.038  1.00  0.00    -0.209 OA 
HETATM    7  O   UNL     1      -9.765   4.461  72.892  1.00  0.00    -0.132 OA 
ENDROOT
BRANCH   4   8
HETATM    8  C   UNL     1     -11.140   7.774  72.947  1.00  0.00    -0.457 C  
BRANCH   8   9
HETATM    9  C   UNL     1     -10.645   8.061  71.545  1.00  0.00    -0.273 A  
HETATM   10  C   UNL     1      -9.832   9.182  71.300  1.00  0.00    -0.363 A  
HETATM   11  C   UNL     1      -9.450   9.486  69.999  1.00  0.00    -0.232 A  
HETATM   12  O   UNL     1      -8.673  10.574  69.712  1.00  0.00    -0.390 OA 
HETATM   13  C   UNL     1      -9.862   8.684  68.941  1.00  0.00    -0.179 A  
HETATM   14  H   UNL     1      -8.411  10.782  68.824  1.00  0.00     0.000 HD 
HETATM   15  O   UNL     1      -9.507   9.007  67.662  1.00  0.00    -0.138 OA 
HETATM   16  C   UNL     1     -10.640   7.559  69.164  1.00  0.00    -0.204 A  
HETATM   17  C   UNL     1     -11.025   7.241  70.468  1.00  0.00    -0.282 A  
HETATM   18  H   UNL     1      -9.789   8.459  66.939  1.00  0.00     0.000 HD 
ENDBRANCH   8   9
ENDBRANCH   4   8
TORSDOF 2
ENDMDL
MODEL      206
REMARK 921   NORMALIZED FREE ENERGY PREDICTED BY IDOCK:   -3.13 KCAL/MOL
REMARK 922        TOTAL FREE ENERGY PREDICTED BY IDOCK:   -3.68 KCAL/MOL
REMARK 923 INTER-LIGAND FREE ENERGY PREDICTED BY IDOCK:   -3.55 KCAL/MOL
REMARK 924 INTRA-LIGAND FREE ENERGY PREDICTED BY IDOCK:   -0.13 KCAL/MOL
REMARK 927      BINDING AFFINITY PREDICTED BY RF-SCORE:    0.00 PKD
ROOT
HETATM    1  N   UNL     1     -12.320   7.838  70.605  1.00  0.00    -0.508 NA 
HETATM    2  H2  UNL     1     -12.704   8.034  69.680  1.00  0.00     0.000 HD 
HETATM    3  H1  UNL     1     -12.956   8.164  71.333  1.00  0.00     0.000 HD 
HETATM    4  CA  UNL     1     -11.947   6.393  70.724  1.00  0.00    -0.181 C  
HETATM    5  C   UNL     1     -11.374   6.140  72.130  1.00  0.00    -0.299 C  
HETATM    6  OXT UNL     1     -10.900   5.085  72.519  1.00  0.00    -0.214 OA 
HETATM    7  O   UNL     1     -11.475   7.246  72.913  1.00  0.00    -0.270 OA 
ENDROOT
BRANCH   4   8
HETATM    8  C   UNL     1     -10.986   5.899  69.624  1.00  0.00    -0.447 C  
BRANCH   8   9
HETATM    9  C   UNL     1     -10.200   6.997  68.939  1.00  0.00    -0.183 A  
HETATM   10  C   UNL     1     -10.588   7.451  67.666  1.00  0.00    -0.309 A  
HETATM   11  C   UNL     1      -9.814   8.400  67.006  1.00  0.00    -0.230 A  
HETATM   12  O   UNL     1     -10.145   8.859  65.762  1.00  0.00    -0.427 OA 
HETATM   13  C   UNL     1      -8.664   8.904  67.602  1.00  0.00    -0.124 A  
HETATM   14  H   UNL     1      -9.617   9.507  65.311  1.00  0.00     0.000 HD 
HETATM   15  O   UNL     1      -7.893   9.814  66.935  1.00  0.00    -0.101 OA 
HETATM   16  C   UNL     1      -8.279   8.489  68.867  1.00  0.00    -0.117 A  
HETATM   17  C   UNL     1      -9.053   7.542  69.541  1.00  0.00    -0.143 A  
HETATM   18  H   UNL     1      -7.107  10.158  67.342  1.00  0.00     0.000 HD 
ENDBRANCH   8   9
ENDBRANCH   4   8
TORSDOF 2
ENDMDL
MODEL      207
REMARK 921   NORMALIZED FREE ENERGY PREDICTED BY IDOCK:   -3.12 KCAL/MOL
REMARK 922        TOTAL FREE ENERGY PREDICTED BY IDOCK:   -3.67 KCAL/MOL
REMARK 923 INTER-LIGAND FREE ENERGY PREDICTED BY IDOCK:   -3.59 KCAL/MOL
REMARK 924 INTRA-LIGAND FREE ENERGY PREDICTED BY IDOCK:   -0.08 KCAL/MOL
REMARK 927      BINDING AFFINITY PREDICTED BY RF-SCORE:    0.00 PKD
ROOT
HETATM    1  N   UNL     1      -7.306  14.603  69.640  1.00  0.00    -0.339 NA 
HETATM    2  H2  UNL     1      -7.718  13.694  69.846  1.00  0.00     0.000 HD 
HETATM    3  H1  UNL     1      -6.430  14.723  70.149  1.00  0.00     0.000 HD 
HETATM    4  CA  UNL     1      -7.182  14.801  68.160  1.00  0.00    -0.122 C  
HETATM    5  C   UNL     1      -6.558  16.182  67.893  1.00  0.00    -0.139 C  
HETATM    6  OXT UNL     1      -6.399  16.683  66.791  1.00  0.00    -0.186 OA 
HETATM    7  O   UNL     1      -6.176  16.786  69.048  1.00  0.00    -0.159 OA 
ENDROOT
BRANCH   4   8
HETATM    8  C   UNL     1      -8.506  14.620  67.391  1.00  0.00    -0.219 C  
BRANCH   8   9
HETATM    9  C   UNL     1      -9.744  14.618  68.262  1.00  0.00    -0.215 A  
HETATM   10  C   UNL     1     -10.400  13.409  68.552  1.00  0.00    -0.240 A  
HETATM   11  C   UNL     1     -11.582  13.422  69.283  1.00  0.00    -0.310 A  
HETATM   12  O   UNL     1     -12.261  12.273  69.575  1.00  0.00    -0.212 OA 
HETATM   13  C   UNL     1     -12.115  14.625  69.732  1.00  0.00    -0.324 A  
HETATM   14  H   UNL     1     -13.069  12.281  70.075  1.00  0.00     0.000 HD 
HETATM   15  O   UNL     1     -13.293  14.633  70.423  1.00  0.00    -0.557 OA 
HETATM   16  C   UNL     1     -11.471  15.826  69.479  1.00  0.00    -0.356 A  
HETATM   17  C   UNL     1     -10.279  15.822  68.752  1.00  0.00    -0.217 A  
HETATM   18  H   UNL     1     -13.658  15.455  70.730  1.00  0.00     0.000 HD 
ENDBRANCH   8   9
ENDBRANCH   4   8
TORSDOF 2
ENDMDL
MODEL      208
REMARK 921   NORMALIZED FREE ENERGY PREDICTED BY IDOCK:   -3.09 KCAL/MOL
REMARK 922        TOTAL FREE ENERGY PREDICTED BY IDOCK:   -3.64 KCAL/MOL
REMARK 923 INTER-LIGAND FREE ENERGY PREDICTED BY IDOCK:   -3.56 KCAL/MOL
REMARK 924 INTRA-LIGAND FREE ENERGY PREDICTED BY IDOCK:   -0.09 KCAL/MOL
REMARK 927      BINDING AFFINITY PREDICTED BY RF-SCORE:    0.00 PKD
ROOT
HETATM    1  N   UNL     1      -9.310   8.998  70.346  1.00  0.00    -0.191 NA 
HETATM    2  H2  UNL     1      -8.656   9.225  69.597  1.00  0.00     0.000 HD 
HETATM    3  H1  UNL     1      -8.823   8.935  71.240  1.00  0.00     0.000 HD 
HETATM    4  CA  UNL     1     -10.463   9.954  70.346  1.00  0.00    -0.285 C  
HETATM    5  C   UNL     1     -11.424   9.577  71.488  1.00  0.00    -0.395 C  
HETATM    6  OXT UNL     1     -12.501  10.107  71.707  1.00  0.00    -0.394 OA 
HETATM    7  O   UNL     1     -10.915   8.576  72.254  1.00  0.00    -0.338 OA 
ENDROOT
BRANCH   4   8
HETATM    8  C   UNL     1     -11.199  10.048  68.995  1.00  0.00    -0.180 C  
BRANCH   8   9
HETATM    9  C   UNL     1     -10.353   9.687  67.792  1.00  0.00    -0.286 A  
HETATM   10  C   UNL     1      -9.466  10.631  67.245  1.00  0.00    -0.178 A  
HETATM   11  C   UNL     1      -8.754  10.322  66.092  1.00  0.00    -0.152 A  
HETATM   12  O   UNL     1      -7.892  11.214  65.518  1.00  0.00    -0.368 OA 
HETATM   13  C   UNL     1      -8.911   9.083  65.481  1.00  0.00    -0.204 A  
HETATM   14  H   UNL     1      -7.405  11.003  64.730  1.00  0.00     0.000 HD 
HETATM   15  O   UNL     1      -8.231   8.798  64.331  1.00  0.00    -0.155 OA 
HETATM   16  C   UNL     1      -9.761   8.129  66.018  1.00  0.00    -0.052 A  
HETATM   17  C   UNL     1     -10.476   8.427  67.180  1.00  0.00    -0.380 A  
HETATM   18  H   UNL     1      -8.339   7.952  63.914  1.00  0.00     0.000 HD 
ENDBRANCH   8   9
ENDBRANCH   4   8
TORSDOF 2
ENDMDL
MODEL      209
REMARK 921   NORMALIZED FREE ENERGY PREDICTED BY IDOCK:   -3.07 KCAL/MOL
REMARK 922        TOTAL FREE ENERGY PREDICTED BY IDOCK:   -3.61 KCAL/MOL
REMARK 923 INTER-LIGAND FREE ENERGY PREDICTED BY IDOCK:   -3.58 KCAL/MOL
REMARK 924 INTRA-LIGAND FREE ENERGY PREDICTED BY IDOCK:   -0.03 KCAL/MOL
REMARK 927      BINDING AFFINITY PREDICTED BY RF-SCORE:    0.00 PKD
ROOT
HETATM    1  N   UNL     1     -10.232  14.696  69.728  1.00  0.00    -0.438 NA 
HETATM    2  H2  UNL     1      -9.761  15.581  69.917  1.00  0.00     0.000 HD 
HETATM    3  H1  UNL     1     -10.774  14.397  70.539  1.00  0.00     0.000 HD 
HETATM    4  CA  UNL     1     -11.028  14.785  68.462  1.00  0.00    -0.258 C  
HETATM    5  C   UNL     1     -11.721  13.433  68.213  1.00  0.00    -0.356 C  
HETATM    6  OXT UNL     1     -12.377  13.149  67.224  1.00  0.00    -0.244 OA 
HETATM    7  O   UNL     1     -11.530  12.579  69.253  1.00  0.00    -0.273 OA 
ENDROOT
BRANCH   4   8
HETATM    8  C   UNL     1     -10.210  15.236  67.236  1.00  0.00    -0.248 C  
BRANCH   8   9
HETATM    9  C   UNL     1      -9.146  16.271  67.538  1.00  0.00    -0.196 A  
HETATM   10  C   UNL     1      -9.460  17.640  67.482  1.00  0.00    -0.256 A  
HETATM   11  C   UNL     1      -8.460  18.586  67.678  1.00  0.00    -0.263 A  
HETATM   12  O   UNL     1      -8.716  19.928  67.618  1.00  0.00    -0.320 OA 
HETATM   13  C   UNL     1      -7.154  18.184  67.934  1.00  0.00    -0.218 A  
HETATM   14  H   UNL     1      -8.033  20.574  67.752  1.00  0.00     0.000 HD 
HETATM   15  O   UNL     1      -6.171  19.118  68.096  1.00  0.00    -0.213 OA 
HETATM   16  C   UNL     1      -6.829  16.839  68.020  1.00  0.00    -0.152 A  
HETATM   17  C   UNL     1      -7.828  15.881  67.831  1.00  0.00    -0.148 A  
HETATM   18  H   UNL     1      -5.279  18.843  68.270  1.00  0.00     0.000 HD 
ENDBRANCH   8   9
ENDBRANCH   4   8
TORSDOF 2
ENDMDL
MODEL      210
REMARK 921   NORMALIZED FREE ENERGY PREDICTED BY IDOCK:   -3.06 KCAL/MOL
REMARK 922        TOTAL FREE ENERGY PREDICTED BY IDOCK:   -3.60 KCAL/MOL
REMARK 923 INTER-LIGAND FREE ENERGY PREDICTED BY IDOCK:   -3.37 KCAL/MOL
REMARK 924 INTRA-LIGAND FREE ENERGY PREDICTED BY IDOCK:   -0.23 KCAL/MOL
REMARK 927      BINDING AFFINITY PREDICTED BY RF-SCORE:    0.00 PKD
ROOT
HETATM    1  N   UNL     1     -12.978  10.122  70.327  1.00  0.00    -0.577 NA 
HETATM    2  H2  UNL     1     -12.788  10.459  69.384  1.00  0.00     0.000 HD 
HETATM    3  H1  UNL     1     -13.940   9.790  70.402  1.00  0.00     0.000 HD 
HETATM    4  CA  UNL     1     -11.951   9.113  70.742  1.00  0.00    -0.191 C  
HETATM    5  C   UNL     1     -12.273   8.631  72.167  1.00  0.00    -0.386 C  
HETATM    6  OXT UNL     1     -11.583   7.871  72.827  1.00  0.00    -0.383 OA 
HETATM    7  O   UNL     1     -13.451   9.144  72.610  1.00  0.00    -0.463 OA 
ENDROOT
BRANCH   4   8
HETATM    8  C   UNL     1     -10.498   9.615  70.628  1.00  0.00    -0.379 C  
BRANCH   8   9
HETATM    9  C   UNL     1      -9.633   8.820  69.673  1.00  0.00    -0.171 A  
HETATM   10  C   UNL     1      -8.842   7.762  70.153  1.00  0.00    -0.145 A  
HETATM   11  C   UNL     1      -7.987   7.090  69.287  1.00  0.00    -0.119 A  
HETATM   12  O   UNL     1      -7.189   6.065  69.713  1.00  0.00    -0.069 OA 
HETATM   13  C   UNL     1      -7.915   7.457  67.948  1.00  0.00    -0.119 A  
HETATM   14  H   UNL     1      -6.605   5.606  69.121  1.00  0.00     0.000 HD 
HETATM   15  O   UNL     1      -7.051   6.812  67.109  1.00  0.00    -0.075 OA 
HETATM   16  C   UNL     1      -8.705   8.480  67.448  1.00  0.00    -0.136 A  
HETATM   17  C   UNL     1      -9.572   9.157  68.309  1.00  0.00    -0.161 A  
HETATM   18  H   UNL     1      -7.001   7.064  66.194  1.00  0.00     0.000 HD 
ENDBRANCH   8   9
ENDBRANCH   4   8
TORSDOF 2
ENDMDL
MODEL      211
REMARK 921   NORMALIZED FREE ENERGY PREDICTED BY IDOCK:   -3.05 KCAL/MOL
REMARK 922        TOTAL FREE ENERGY PREDICTED BY IDOCK:   -3.60 KCAL/MOL
REMARK 923 INTER-LIGAND FREE ENERGY PREDICTED BY IDOCK:   -3.39 KCAL/MOL
REMARK 924 INTRA-LIGAND FREE ENERGY PREDICTED BY IDOCK:   -0.21 KCAL/MOL
REMARK 927      BINDING AFFINITY PREDICTED BY RF-SCORE:    0.00 PKD
ROOT
HETATM    1  N   UNL     1     -11.102  10.971  67.678  1.00  0.00    -0.281 NA 
HETATM    2  H2  UNL     1     -10.699  10.195  67.154  1.00  0.00     0.000 HD 
HETATM    3  H1  UNL     1     -11.921  11.342  67.195  1.00  0.00     0.000 HD 
HETATM    4  CA  UNL     1     -11.363  10.569  69.097  1.00  0.00    -0.257 C  
HETATM    5  C   UNL     1     -11.970  11.765  69.852  1.00  0.00    -0.332 C  
HETATM    6  OXT UNL     1     -12.220  11.792  71.046  1.00  0.00    -0.325 OA 
HETATM    7  O   UNL     1     -12.221  12.804  69.013  1.00  0.00    -0.196 OA 
ENDROOT
BRANCH   4   8
HETATM    8  C   UNL     1     -10.126  10.008  69.827  1.00  0.00    -0.284 C  
BRANCH   8   9
HETATM    9  C   UNL     1     -10.214   8.537  70.173  1.00  0.00    -0.202 A  
HETATM   10  C   UNL     1     -10.536   8.140  71.483  1.00  0.00    -0.282 A  
HETATM   11  C   UNL     1     -10.535   6.790  71.816  1.00  0.00    -0.207 A  
HETATM   12  O   UNL     1     -10.828   6.359  73.080  1.00  0.00    -0.244 OA 
HETATM   13  C   UNL     1     -10.222   5.832  70.858  1.00  0.00    -0.216 A  
HETATM   14  H   UNL     1     -10.827   5.437  73.307  1.00  0.00     0.000 HD 
HETATM   15  O   UNL     1     -10.193   4.510  71.200  1.00  0.00    -0.174 OA 
HETATM   16  C   UNL     1      -9.927   6.201  69.555  1.00  0.00    -0.207 A  
HETATM   17  C   UNL     1      -9.932   7.554  69.209  1.00  0.00    -0.179 A  
HETATM   18  H   UNL     1      -9.978   3.856  70.545  1.00  0.00     0.000 HD 
ENDBRANCH   8   9
ENDBRANCH   4   8
TORSDOF 2
ENDMDL
MODEL      212
REMARK 921   NORMALIZED FREE ENERGY PREDICTED BY IDOCK:   -3.05 KCAL/MOL
REMARK 922        TOTAL FREE ENERGY PREDICTED BY IDOCK:   -3.59 KCAL/MOL
REMARK 923 INTER-LIGAND FREE ENERGY PREDICTED BY IDOCK:   -3.39 KCAL/MOL
REMARK 924 INTRA-LIGAND FREE ENERGY PREDICTED BY IDOCK:   -0.21 KCAL/MOL
REMARK 927      BINDING AFFINITY PREDICTED BY RF-SCORE:    0.00 PKD
ROOT
HETATM    1  N   UNL     1     -11.616  14.784  68.110  1.00  0.00    -0.321 NA 
HETATM    2  H2  UNL     1     -12.458  14.390  68.529  1.00  0.00     0.000 HD 
HETATM    3  H1  UNL     1     -11.425  15.711  68.493  1.00  0.00     0.000 HD 
HETATM    4  CA  UNL     1     -10.470  13.827  68.232  1.00  0.00    -0.248 C  
HETATM    5  C   UNL     1      -9.222  14.458  67.590  1.00  0.00    -0.196 C  
HETATM    6  OXT UNL     1      -8.144  13.903  67.449  1.00  0.00    -0.170 OA 
HETATM    7  O   UNL     1      -9.457  15.740  67.205  1.00  0.00    -0.210 OA 
ENDROOT
BRANCH   4   8
HETATM    8  C   UNL     1     -10.758  12.427  67.654  1.00  0.00    -0.248 C  
BRANCH   8   9
HETATM    9  C   UNL     1     -10.687  11.303  68.666  1.00  0.00    -0.241 A  
HETATM   10  C   UNL     1      -9.875  10.182  68.417  1.00  0.00    -0.164 A  
HETATM   11  C   UNL     1      -9.877   9.116  69.309  1.00  0.00    -0.175 A  
HETATM   12  O   UNL     1      -9.115   8.001  69.100  1.00  0.00    -0.145 OA 
HETATM   13  C   UNL     1     -10.674   9.156  70.448  1.00  0.00    -0.238 A  
HETATM   14  H   UNL     1      -9.116   7.272  69.710  1.00  0.00     0.000 HD 
HETATM   15  O   UNL     1     -10.694   8.093  71.304  1.00  0.00    -0.220 OA 
HETATM   16  C   UNL     1     -11.461  10.263  70.725  1.00  0.00    -0.438 A  
HETATM   17  C   UNL     1     -11.461  11.342  69.838  1.00  0.00    -0.373 A  
HETATM   18  H   UNL     1     -11.239   8.120  72.082  1.00  0.00     0.000 HD 
ENDBRANCH   8   9
ENDBRANCH   4   8
TORSDOF 2
ENDMDL
MODEL      213
REMARK 921   NORMALIZED FREE ENERGY PREDICTED BY IDOCK:   -3.04 KCAL/MOL
REMARK 922        TOTAL FREE ENERGY PREDICTED BY IDOCK:   -3.59 KCAL/MOL
REMARK 923 INTER-LIGAND FREE ENERGY PREDICTED BY IDOCK:   -3.67 KCAL/MOL
REMARK 924 INTRA-LIGAND FREE ENERGY PREDICTED BY IDOCK:    0.08 KCAL/MOL
REMARK 927      BINDING AFFINITY PREDICTED BY RF-SCORE:    0.00 PKD
ROOT
HETATM    1  N   UNL     1      -7.696  16.026  67.679  1.00  0.00    -0.137 NA 
HETATM    2  H2  UNL     1      -8.458  15.960  67.005  1.00  0.00     0.000 HD 
HETATM    3  H1  UNL     1      -7.604  16.982  68.023  1.00  0.00     0.000 HD 
HETATM    4  CA  UNL     1      -7.859  15.002  68.760  1.00  0.00    -0.151 C  
HETATM    5  C   UNL     1      -6.691  15.136  69.754  1.00  0.00    -0.180 C  
HETATM    6  OXT UNL     1      -6.484  14.396  70.702  1.00  0.00    -0.152 OA 
HETATM    7  O   UNL     1      -5.910  16.208  69.460  1.00  0.00    -0.132 OA 
ENDROOT
BRANCH   4   8
HETATM    8  C   UNL     1      -7.997  13.558  68.240  1.00  0.00    -0.147 C  
BRANCH   8   9
HETATM    9  C   UNL     1      -9.308  13.265  67.542  1.00  0.00    -0.218 A  
HETATM   10  C   UNL     1     -10.200  12.323  68.085  1.00  0.00    -0.212 A  
HETATM   11  C   UNL     1     -11.363  11.997  67.397  1.00  0.00    -0.327 A  
HETATM   12  O   UNL     1     -12.251  11.076  67.879  1.00  0.00    -0.612 OA 
HETATM   13  C   UNL     1     -11.651  12.602  66.179  1.00  0.00    -0.393 A  
HETATM   14  H   UNL     1     -13.046  10.854  67.410  1.00  0.00     0.000 HD 
HETATM   15  O   UNL     1     -12.781  12.254  65.494  1.00  0.00    -0.438 OA 
HETATM   16  C   UNL     1     -10.798  13.552  65.639  1.00  0.00    -0.292 A  
HETATM   17  C   UNL     1      -9.630  13.891  66.326  1.00  0.00    -0.274 A  
HETATM   18  H   UNL     1     -12.976  12.668  64.661  1.00  0.00     0.000 HD 
ENDBRANCH   8   9
ENDBRANCH   4   8
TORSDOF 2
ENDMDL
MODEL      214
REMARK 921   NORMALIZED FREE ENERGY PREDICTED BY IDOCK:   -3.04 KCAL/MOL
REMARK 922        TOTAL FREE ENERGY PREDICTED BY IDOCK:   -3.58 KCAL/MOL
REMARK 923 INTER-LIGAND FREE ENERGY PREDICTED BY IDOCK:   -3.56 KCAL/MOL
REMARK 924 INTRA-LIGAND FREE ENERGY PREDICTED BY IDOCK:   -0.01 KCAL/MOL
REMARK 927      BINDING AFFINITY PREDICTED BY RF-SCORE:    0.00 PKD
ROOT
HETATM    1  N   UNL     1      -7.193  13.111  69.437  1.00  0.00    -0.319 NA 
HETATM    2  H2  UNL     1      -7.507  12.184  69.150  1.00  0.00     0.000 HD 
HETATM    3  H1  UNL     1      -6.341  13.044  69.994  1.00  0.00     0.000 HD 
HETATM    4  CA  UNL     1      -7.074  14.017  68.250  1.00  0.00    -0.110 C  
HETATM    5  C   UNL     1      -6.598  15.401  68.724  1.00  0.00    -0.106 C  
HETATM    6  OXT UNL     1      -6.481  16.388  68.015  1.00  0.00    -0.124 OA 
HETATM    7  O   UNL     1      -6.298  15.395  70.049  1.00  0.00    -0.160 OA 
ENDROOT
BRANCH   4   8
HETATM    8  C   UNL     1      -8.360  14.118  67.407  1.00  0.00    -0.210 C  
BRANCH   8   9
HETATM    9  C   UNL     1      -9.473  13.189  67.845  1.00  0.00    -0.218 A  
HETATM   10  C   UNL     1      -9.474  11.846  67.428  1.00  0.00    -0.175 A  
HETATM   11  C   UNL     1     -10.541  11.020  67.764  1.00  0.00    -0.211 A  
HETATM   12  O   UNL     1     -10.591   9.712  67.368  1.00  0.00    -0.258 OA 
HETATM   13  C   UNL     1     -11.601  11.514  68.515  1.00  0.00    -0.313 A  
HETATM   14  H   UNL     1     -11.320   9.148  67.598  1.00  0.00     0.000 HD 
HETATM   15  O   UNL     1     -12.660  10.704  68.816  1.00  0.00    -0.733 OA 
HETATM   16  C   UNL     1     -11.606  12.827  68.958  1.00  0.00    -0.366 A  
HETATM   17  C   UNL     1     -10.537  13.663  68.631  1.00  0.00    -0.260 A  
HETATM   18  H   UNL     1     -13.384  11.042  69.329  1.00  0.00     0.000 HD 
ENDBRANCH   8   9
ENDBRANCH   4   8
TORSDOF 2
ENDMDL
MODEL      215
REMARK 921   NORMALIZED FREE ENERGY PREDICTED BY IDOCK:   -3.02 KCAL/MOL
REMARK 922        TOTAL FREE ENERGY PREDICTED BY IDOCK:   -3.56 KCAL/MOL
REMARK 923 INTER-LIGAND FREE ENERGY PREDICTED BY IDOCK:   -3.36 KCAL/MOL
REMARK 924 INTRA-LIGAND FREE ENERGY PREDICTED BY IDOCK:   -0.20 KCAL/MOL
REMARK 927      BINDING AFFINITY PREDICTED BY RF-SCORE:    0.00 PKD
ROOT
HETATM    1  N   UNL     1      -8.835   6.540  68.257  1.00  0.00    -0.120 NA 
HETATM    2  H2  UNL     1      -9.764   6.605  68.671  1.00  0.00     0.000 HD 
HETATM    3  H1  UNL     1      -8.870   6.028  67.375  1.00  0.00     0.000 HD 
HETATM    4  CA  UNL     1      -8.211   7.898  68.148  1.00  0.00    -0.123 C  
HETATM    5  C   UNL     1      -6.813   7.755  67.520  1.00  0.00    -0.069 C  
HETATM    6  OXT UNL     1      -6.012   8.663  67.370  1.00  0.00    -0.046 OA 
HETATM    7  O   UNL     1      -6.576   6.478  67.123  1.00  0.00    -0.050 OA 
ENDROOT
BRANCH   4   8
HETATM    8  C   UNL     1      -8.157   8.672  69.480  1.00  0.00    -0.110 C  
BRANCH   8   9
HETATM    9  C   UNL     1      -9.511   8.977  70.084  1.00  0.00    -0.217 A  
HETATM   10  C   UNL     1     -10.442   9.753  69.372  1.00  0.00    -0.241 A  
HETATM   11  C   UNL     1     -11.651  10.099  69.965  1.00  0.00    -0.253 A  
HETATM   12  O   UNL     1     -12.579  10.864  69.316  1.00  0.00    -0.625 OA 
HETATM   13  C   UNL     1     -11.945   9.677  71.257  1.00  0.00    -0.380 A  
HETATM   14  H   UNL     1     -13.405  11.101  69.721  1.00  0.00     0.000 HD 
HETATM   15  O   UNL     1     -13.121  10.046  71.844  1.00  0.00    -0.412 OA 
HETATM   16  C   UNL     1     -11.052   8.889  71.966  1.00  0.00    -0.421 A  
HETATM   17  C   UNL     1      -9.838   8.530  71.377  1.00  0.00    -0.296 A  
HETATM   18  H   UNL     1     -13.321   9.758  72.727  1.00  0.00     0.000 HD 
ENDBRANCH   8   9
ENDBRANCH   4   8
TORSDOF 2
ENDMDL
MODEL      216
REMARK 921   NORMALIZED FREE ENERGY PREDICTED BY IDOCK:   -2.99 KCAL/MOL
REMARK 922        TOTAL FREE ENERGY PREDICTED BY IDOCK:   -3.53 KCAL/MOL
REMARK 923 INTER-LIGAND FREE ENERGY PREDICTED BY IDOCK:   -3.29 KCAL/MOL
REMARK 924 INTRA-LIGAND FREE ENERGY PREDICTED BY IDOCK:   -0.24 KCAL/MOL
REMARK 927      BINDING AFFINITY PREDICTED BY RF-SCORE:    0.00 PKD
ROOT
HETATM    1  N   UNL     1      -7.630   9.787  67.437  1.00  0.00    -0.091 NA 
HETATM    2  H2  UNL     1      -7.256  10.366  66.686  1.00  0.00     0.000 HD 
HETATM    3  H1  UNL     1      -6.898   9.557  68.110  1.00  0.00     0.000 HD 
HETATM    4  CA  UNL     1      -8.837  10.430  68.047  1.00  0.00    -0.130 C  
HETATM    5  C   UNL     1      -9.369   9.526  69.174  1.00  0.00    -0.163 C  
HETATM    6  OXT UNL     1     -10.390   9.723  69.813  1.00  0.00    -0.211 OA 
HETATM    7  O   UNL     1      -8.542   8.470  69.393  1.00  0.00    -0.125 OA 
ENDROOT
BRANCH   4   8
HETATM    8  C   UNL     1      -9.943  10.778  67.031  1.00  0.00    -0.236 C  
BRANCH   8   9
HETATM    9  C   UNL     1     -10.338  12.239  67.008  1.00  0.00    -0.237 A  
HETATM   10  C   UNL     1      -9.571  13.165  66.281  1.00  0.00    -0.241 A  
HETATM   11  C   UNL     1      -9.890  14.518  66.331  1.00  0.00    -0.290 A  
HETATM   12  O   UNL     1      -9.163  15.455  65.652  1.00  0.00    -0.377 OA 
HETATM   13  C   UNL     1     -10.967  14.956  67.093  1.00  0.00    -0.323 A  
HETATM   14  H   UNL     1      -9.381  16.379  65.686  1.00  0.00     0.000 HD 
HETATM   15  O   UNL     1     -11.256  16.289  67.162  1.00  0.00    -0.092 OA 
HETATM   16  C   UNL     1     -11.753  14.056  67.796  1.00  0.00    -0.403 A  
HETATM   17  C   UNL     1     -11.444  12.695  67.747  1.00  0.00    -0.375 A  
HETATM   18  H   UNL     1     -11.992  16.589  67.683  1.00  0.00     0.000 HD 
ENDBRANCH   8   9
ENDBRANCH   4   8
TORSDOF 2
ENDMDL
MODEL      217
REMARK 921   NORMALIZED FREE ENERGY PREDICTED BY IDOCK:   -2.98 KCAL/MOL
REMARK 922        TOTAL FREE ENERGY PREDICTED BY IDOCK:   -3.52 KCAL/MOL
REMARK 923 INTER-LIGAND FREE ENERGY PREDICTED BY IDOCK:   -3.30 KCAL/MOL
REMARK 924 INTRA-LIGAND FREE ENERGY PREDICTED BY IDOCK:   -0.22 KCAL/MOL
REMARK 927      BINDING AFFINITY PREDICTED BY RF-SCORE:    0.00 PKD
ROOT
HETATM    1  N   UNL     1     -10.717  10.340  67.277  1.00  0.00    -0.269 NA 
HETATM    2  H2  UNL     1     -10.206   9.560  66.865  1.00  0.00     0.000 HD 
HETATM    3  H1  UNL     1     -11.495  10.616  66.678  1.00  0.00     0.000 HD 
HETATM    4  CA  UNL     1     -11.117  10.022  68.685  1.00  0.00    -0.174 C  
HETATM    5  C   UNL     1     -11.883  11.222  69.270  1.00  0.00    -0.354 C  
HETATM    6  OXT UNL     1     -12.273  11.316  70.423  1.00  0.00    -0.325 OA 
HETATM    7  O   UNL     1     -12.098  12.179  68.329  1.00  0.00    -0.407 OA 
ENDROOT
BRANCH   4   8
HETATM    8  C   UNL     1      -9.941   9.605  69.592  1.00  0.00    -0.239 C  
BRANCH   8   9
HETATM    9  C   UNL     1      -9.969   8.155  70.028  1.00  0.00    -0.192 A  
HETATM   10  C   UNL     1      -8.940   7.281  69.634  1.00  0.00    -0.141 A  
HETATM   11  C   UNL     1      -9.013   5.934  69.968  1.00  0.00    -0.141 A  
HETATM   12  O   UNL     1      -8.044   5.046  69.594  1.00  0.00    -0.076 OA 
HETATM   13  C   UNL     1     -10.095   5.448  70.693  1.00  0.00    -0.231 A  
HETATM   14  H   UNL     1      -8.093   4.125  69.822  1.00  0.00     0.000 HD 
HETATM   15  O   UNL     1     -10.175   4.118  70.991  1.00  0.00    -0.119 OA 
HETATM   16  C   UNL     1     -11.107   6.298  71.114  1.00  0.00    -0.356 A  
HETATM   17  C   UNL     1     -11.039   7.654  70.789  1.00  0.00    -0.276 A  
HETATM   18  H   UNL     1     -10.915   3.786  71.486  1.00  0.00     0.000 HD 
ENDBRANCH   8   9
ENDBRANCH   4   8
TORSDOF 2
ENDMDL
MODEL      218
REMARK 921   NORMALIZED FREE ENERGY PREDICTED BY IDOCK:   -2.98 KCAL/MOL
REMARK 922        TOTAL FREE ENERGY PREDICTED BY IDOCK:   -3.51 KCAL/MOL
REMARK 923 INTER-LIGAND FREE ENERGY PREDICTED BY IDOCK:   -3.29 KCAL/MOL
REMARK 924 INTRA-LIGAND FREE ENERGY PREDICTED BY IDOCK:   -0.22 KCAL/MOL
REMARK 927      BINDING AFFINITY PREDICTED BY RF-SCORE:    0.00 PKD
ROOT
HETATM    1  N   UNL     1     -10.269   2.505  64.697  1.00  0.00    -0.342 NA 
HETATM    2  H2  UNL     1     -10.838   1.956  65.340  1.00  0.00     0.000 HD 
HETATM    3  H1  UNL     1     -10.741   2.607  63.798  1.00  0.00     0.000 HD 
HETATM    4  CA  UNL     1      -9.870   3.804  65.326  1.00  0.00    -0.146 C  
HETATM    5  C   UNL     1      -9.014   4.601  64.326  1.00  0.00    -0.136 C  
HETATM    6  OXT UNL     1      -8.462   5.665  64.560  1.00  0.00    -0.135 OA 
HETATM    7  O   UNL     1      -8.957   3.981  63.118  1.00  0.00    -0.103 OA 
ENDROOT
BRANCH   4   8
HETATM    8  C   UNL     1      -9.157   3.650  66.685  1.00  0.00    -0.173 C  
BRANCH   8   9
HETATM    9  C   UNL     1      -9.730   4.505  67.795  1.00  0.00    -0.199 A  
HETATM   10  C   UNL     1      -9.545   4.133  69.138  1.00  0.00    -0.243 A  
HETATM   11  C   UNL     1     -10.143   4.875  70.149  1.00  0.00    -0.261 A  
HETATM   12  O   UNL     1     -10.003   4.541  71.467  1.00  0.00    -0.180 OA 
HETATM   13  C   UNL     1     -10.918   5.987  69.839  1.00  0.00    -0.388 A  
HETATM   14  H   UNL     1     -10.411   5.049  72.159  1.00  0.00     0.000 HD 
HETATM   15  O   UNL     1     -11.527   6.694  70.836  1.00  0.00    -0.306 OA 
HETATM   16  C   UNL     1     -11.091   6.387  68.523  1.00  0.00    -0.385 A  
HETATM   17  C   UNL     1     -10.489   5.652  67.500  1.00  0.00    -0.294 A  
HETATM   18  H   UNL     1     -12.057   7.454  70.624  1.00  0.00     0.000 HD 
ENDBRANCH   8   9
ENDBRANCH   4   8
TORSDOF 2
ENDMDL
MODEL      219
REMARK 921   NORMALIZED FREE ENERGY PREDICTED BY IDOCK:   -2.96 KCAL/MOL
REMARK 922        TOTAL FREE ENERGY PREDICTED BY IDOCK:   -3.49 KCAL/MOL
REMARK 923 INTER-LIGAND FREE ENERGY PREDICTED BY IDOCK:   -3.45 KCAL/MOL
REMARK 924 INTRA-LIGAND FREE ENERGY PREDICTED BY IDOCK:   -0.04 KCAL/MOL
REMARK 927      BINDING AFFINITY PREDICTED BY RF-SCORE:    0.00 PKD
ROOT
HETATM    1  N   UNL     1      -9.994  12.879  68.608  1.00  0.00    -0.391 NA 
HETATM    2  H2  UNL     1      -9.192  13.171  69.166  1.00  0.00     0.000 HD 
HETATM    3  H1  UNL     1     -10.571  13.683  68.361  1.00  0.00     0.000 HD 
HETATM    4  CA  UNL     1      -9.549  12.064  67.432  1.00  0.00    -0.176 C  
HETATM    5  C   UNL     1     -10.786  11.645  66.619  1.00  0.00    -0.283 C  
HETATM    6  OXT UNL     1     -10.774  10.905  65.648  1.00  0.00    -0.206 OA 
HETATM    7  O   UNL     1     -11.917  12.220  67.105  1.00  0.00    -0.564 OA 
ENDROOT
BRANCH   4   8
HETATM    8  C   UNL     1      -8.677  10.849  67.805  1.00  0.00    -0.129 C  
BRANCH   8   9
HETATM    9  C   UNL     1      -9.257   9.971  68.894  1.00  0.00    -0.169 A  
HETATM   10  C   UNL     1      -8.672   9.955  70.172  1.00  0.00    -0.142 A  
HETATM   11  C   UNL     1      -9.157   9.086  71.143  1.00  0.00    -0.246 A  
HETATM   12  O   UNL     1      -8.610   9.026  72.394  1.00  0.00    -0.354 OA 
HETATM   13  C   UNL     1     -10.220   8.237  70.857  1.00  0.00    -0.191 A  
HETATM   14  H   UNL     1      -8.941   8.433  73.058  1.00  0.00     0.000 HD 
HETATM   15  O   UNL     1     -10.671   7.364  71.806  1.00  0.00    -0.213 OA 
HETATM   16  C   UNL     1     -10.828   8.255  69.611  1.00  0.00    -0.154 A  
HETATM   17  C   UNL     1     -10.353   9.130  68.631  1.00  0.00    -0.233 A  
HETATM   18  H   UNL     1     -11.398   6.784  71.610  1.00  0.00     0.000 HD 
ENDBRANCH   8   9
ENDBRANCH   4   8
TORSDOF 2
ENDMDL
MODEL      220
REMARK 921   NORMALIZED FREE ENERGY PREDICTED BY IDOCK:   -2.95 KCAL/MOL
REMARK 922        TOTAL FREE ENERGY PREDICTED BY IDOCK:   -3.48 KCAL/MOL
REMARK 923 INTER-LIGAND FREE ENERGY PREDICTED BY IDOCK:   -3.29 KCAL/MOL
REMARK 924 INTRA-LIGAND FREE ENERGY PREDICTED BY IDOCK:   -0.19 KCAL/MOL
REMARK 927      BINDING AFFINITY PREDICTED BY RF-SCORE:    0.00 PKD
ROOT
HETATM    1  N   UNL     1      -8.611   7.703  68.722  1.00  0.00    -0.129 NA 
HETATM    2  H2  UNL     1      -9.616   7.532  68.710  1.00  0.00     0.000 HD 
HETATM    3  H1  UNL     1      -8.283   7.976  67.795  1.00  0.00     0.000 HD 
HETATM    4  CA  UNL     1      -8.255   8.673  69.806  1.00  0.00    -0.121 C  
HETATM    5  C   UNL     1      -6.733   8.903  69.790  1.00  0.00    -0.045 C  
HETATM    6  OXT UNL     1      -6.113   9.574  70.599  1.00  0.00    -0.055 OA 
HETATM    7  O   UNL     1      -6.148   8.274  68.737  1.00  0.00    -0.042 OA 
ENDROOT
BRANCH   4   8
HETATM    8  C   UNL     1      -8.751   8.260  71.206  1.00  0.00    -0.186 C  
BRANCH   8   9
HETATM    9  C   UNL     1     -10.232   7.953  71.282  1.00  0.00    -0.218 A  
HETATM   10  C   UNL     1     -11.172   8.994  71.199  1.00  0.00    -0.375 A  
HETATM   11  C   UNL     1     -12.526   8.716  71.353  1.00  0.00    -0.301 A  
HETATM   12  O   UNL     1     -13.474   9.699  71.294  1.00  0.00    -0.401 OA 
HETATM   13  C   UNL     1     -12.953   7.414  71.582  1.00  0.00    -0.366 A  
HETATM   14  H   UNL     1     -14.399   9.510  71.399  1.00  0.00     0.000 HD 
HETATM   15  O   UNL     1     -14.281   7.153  71.763  1.00  0.00    -0.472 OA 
HETATM   16  C   UNL     1     -12.044   6.369  71.641  1.00  0.00    -0.319 A  
HETATM   17  C   UNL     1     -10.683   6.636  71.481  1.00  0.00    -0.263 A  
HETATM   18  H   UNL     1     -14.572   6.262  71.920  1.00  0.00     0.000 HD 
ENDBRANCH   8   9
ENDBRANCH   4   8
TORSDOF 2
ENDMDL
MODEL      221
REMARK 921   NORMALIZED FREE ENERGY PREDICTED BY IDOCK:   -2.95 KCAL/MOL
REMARK 922        TOTAL FREE ENERGY PREDICTED BY IDOCK:   -3.48 KCAL/MOL
REMARK 923 INTER-LIGAND FREE ENERGY PREDICTED BY IDOCK:   -3.25 KCAL/MOL
REMARK 924 INTRA-LIGAND FREE ENERGY PREDICTED BY IDOCK:   -0.22 KCAL/MOL
REMARK 927      BINDING AFFINITY PREDICTED BY RF-SCORE:    0.00 PKD
ROOT
HETATM    1  N   UNL     1     -11.341   4.425  65.036  1.00  0.00    -1.102 NA 
HETATM    2  H2  UNL     1     -12.146   4.739  65.578  1.00  0.00     0.000 HD 
HETATM    3  H1  UNL     1     -11.419   4.735  64.067  1.00  0.00     0.000 HD 
HETATM    4  CA  UNL     1     -10.065   4.834  65.705  1.00  0.00    -0.214 C  
HETATM    5  C   UNL     1      -8.877   4.344  64.858  1.00  0.00    -0.143 C  
HETATM    6  OXT UNL     1      -7.701   4.442  65.168  1.00  0.00    -0.083 OA 
HETATM    7  O   UNL     1      -9.297   3.794  63.688  1.00  0.00    -0.119 OA 
ENDROOT
BRANCH   4   8
HETATM    8  C   UNL     1      -9.947   4.366  67.170  1.00  0.00    -0.182 C  
BRANCH   8   9
HETATM    9  C   UNL     1      -9.923   5.487  68.187  1.00  0.00    -0.197 A  
HETATM   10  C   UNL     1      -8.827   6.366  68.242  1.00  0.00    -0.115 A  
HETATM   11  C   UNL     1      -8.772   7.341  69.231  1.00  0.00    -0.137 A  
HETATM   12  O   UNL     1      -7.719   8.207  69.332  1.00  0.00    -0.098 OA 
HETATM   13  C   UNL     1      -9.799   7.454  70.162  1.00  0.00    -0.180 A  
HETATM   14  H   UNL     1      -7.682   8.873  70.007  1.00  0.00     0.000 HD 
HETATM   15  O   UNL     1      -9.723   8.395  71.150  1.00  0.00    -0.167 OA 
HETATM   16  C   UNL     1     -10.901   6.615  70.109  1.00  0.00    -0.330 A  
HETATM   17  C   UNL     1     -10.968   5.637  69.116  1.00  0.00    -0.188 A  
HETATM   18  H   UNL     1     -10.425   8.472  71.786  1.00  0.00     0.000 HD 
ENDBRANCH   8   9
ENDBRANCH   4   8
TORSDOF 2
ENDMDL
MODEL      222
REMARK 921   NORMALIZED FREE ENERGY PREDICTED BY IDOCK:   -2.92 KCAL/MOL
REMARK 922        TOTAL FREE ENERGY PREDICTED BY IDOCK:   -3.45 KCAL/MOL
REMARK 923 INTER-LIGAND FREE ENERGY PREDICTED BY IDOCK:   -3.27 KCAL/MOL
REMARK 924 INTRA-LIGAND FREE ENERGY PREDICTED BY IDOCK:   -0.18 KCAL/MOL
REMARK 927      BINDING AFFINITY PREDICTED BY RF-SCORE:    0.00 PKD
ROOT
HETATM    1  N   UNL     1      -9.648  11.086  68.204  1.00  0.00    -0.165 NA 
HETATM    2  H2  UNL     1      -8.977  10.610  67.601  1.00  0.00     0.000 HD 
HETATM    3  H1  UNL     1     -10.112  11.841  67.698  1.00  0.00     0.000 HD 
HETATM    4  CA  UNL     1     -10.589  10.101  68.825  1.00  0.00    -0.213 C  
HETATM    5  C   UNL     1     -11.582  10.858  69.725  1.00  0.00    -0.322 C  
HETATM    6  OXT UNL     1     -12.425  10.338  70.438  1.00  0.00    -0.276 OA 
HETATM    7  O   UNL     1     -11.422  12.203  69.617  1.00  0.00    -0.280 OA 
ENDROOT
BRANCH   4   8
HETATM    8  C   UNL     1      -9.888   8.960  69.589  1.00  0.00    -0.182 C  
BRANCH   8   9
HETATM    9  C   UNL     1      -9.891   7.628  68.870  1.00  0.00    -0.164 A  
HETATM   10  C   UNL     1      -9.582   7.566  67.500  1.00  0.00    -0.175 A  
HETATM   11  C   UNL     1      -9.667   6.353  66.826  1.00  0.00    -0.158 A  
HETATM   12  O   UNL     1      -9.391   6.249  65.492  1.00  0.00    -0.376 OA 
HETATM   13  C   UNL     1     -10.050   5.200  67.503  1.00  0.00    -0.167 A  
HETATM   14  H   UNL     1      -9.449   5.421  65.031  1.00  0.00     0.000 HD 
HETATM   15  O   UNL     1     -10.160   4.018  66.828  1.00  0.00    -0.333 OA 
HETATM   16  C   UNL     1     -10.333   5.234  68.860  1.00  0.00    -0.228 A  
HETATM   17  C   UNL     1     -10.244   6.447  69.546  1.00  0.00    -0.228 A  
HETATM   18  H   UNL     1     -10.422   3.231  67.291  1.00  0.00     0.000 HD 
ENDBRANCH   8   9
ENDBRANCH   4   8
TORSDOF 2
ENDMDL
MODEL      223
REMARK 921   NORMALIZED FREE ENERGY PREDICTED BY IDOCK:   -2.89 KCAL/MOL
REMARK 922        TOTAL FREE ENERGY PREDICTED BY IDOCK:   -3.41 KCAL/MOL
REMARK 923 INTER-LIGAND FREE ENERGY PREDICTED BY IDOCK:   -3.49 KCAL/MOL
REMARK 924 INTRA-LIGAND FREE ENERGY PREDICTED BY IDOCK:    0.07 KCAL/MOL
REMARK 927      BINDING AFFINITY PREDICTED BY RF-SCORE:    0.00 PKD
ROOT
HETATM    1  N   UNL     1      -8.520   7.710  68.487  1.00  0.00    -0.129 NA 
HETATM    2  H2  UNL     1      -9.263   7.593  69.176  1.00  0.00     0.000 HD 
HETATM    3  H1  UNL     1      -7.666   7.248  68.800  1.00  0.00     0.000 HD 
HETATM    4  CA  UNL     1      -8.986   7.275  67.131  1.00  0.00    -0.126 C  
HETATM    5  C   UNL     1      -7.838   7.468  66.125  1.00  0.00    -0.096 C  
HETATM    6  OXT UNL     1      -7.919   7.286  64.920  1.00  0.00    -0.120 OA 
HETATM    7  O   UNL     1      -6.692   7.852  66.746  1.00  0.00    -0.060 OA 
ENDROOT
BRANCH   4   8
HETATM    8  C   UNL     1     -10.277   7.973  66.659  1.00  0.00    -0.315 C  
BRANCH   8   9
HETATM    9  C   UNL     1     -10.142   9.466  66.446  1.00  0.00    -0.332 A  
HETATM   10  C   UNL     1      -9.882   9.973  65.161  1.00  0.00    -0.388 A  
HETATM   11  C   UNL     1      -9.677  11.337  64.985  1.00  0.00    -0.251 A  
HETATM   12  O   UNL     1      -9.406  11.872  63.757  1.00  0.00    -0.498 OA 
HETATM   13  C   UNL     1      -9.733  12.201  66.073  1.00  0.00    -0.244 A  
HETATM   14  H   UNL     1      -9.266  12.804  63.636  1.00  0.00     0.000 HD 
HETATM   15  O   UNL     1      -9.500  13.535  65.898  1.00  0.00    -0.479 OA 
HETATM   16  C   UNL     1     -10.014  11.724  67.344  1.00  0.00    -0.198 A  
HETATM   17  C   UNL     1     -10.228  10.357  67.530  1.00  0.00    -0.251 A  
HETATM   18  H   UNL     1      -9.539  14.125  66.641  1.00  0.00     0.000 HD 
ENDBRANCH   8   9
ENDBRANCH   4   8
TORSDOF 2
ENDMDL
MODEL      224
REMARK 921   NORMALIZED FREE ENERGY PREDICTED BY IDOCK:   -2.86 KCAL/MOL
REMARK 922        TOTAL FREE ENERGY PREDICTED BY IDOCK:   -3.38 KCAL/MOL
REMARK 923 INTER-LIGAND FREE ENERGY PREDICTED BY IDOCK:   -3.25 KCAL/MOL
REMARK 924 INTRA-LIGAND FREE ENERGY PREDICTED BY IDOCK:   -0.13 KCAL/MOL
REMARK 927      BINDING AFFINITY PREDICTED BY RF-SCORE:    0.00 PKD
ROOT
HETATM    1  N   UNL     1      -7.900   8.179  68.901  1.00  0.00    -0.110 NA 
HETATM    2  H2  UNL     1      -8.248   8.146  69.860  1.00  0.00     0.000 HD 
HETATM    3  H1  UNL     1      -6.902   7.970  68.875  1.00  0.00     0.000 HD 
HETATM    4  CA  UNL     1      -8.729   7.304  68.012  1.00  0.00    -0.127 C  
HETATM    5  C   UNL     1      -8.173   7.381  66.579  1.00  0.00    -0.120 C  
HETATM    6  OXT UNL     1      -8.672   6.850  65.599  1.00  0.00    -0.145 OA 
HETATM    7  O   UNL     1      -7.026   8.107  66.530  1.00  0.00    -0.066 OA 
ENDROOT
BRANCH   4   8
HETATM    8  C   UNL     1     -10.238   7.618  68.052  1.00  0.00    -0.248 C  
BRANCH   8   9
HETATM    9  C   UNL     1     -10.571   9.095  68.060  1.00  0.00    -0.253 A  
HETATM   10  C   UNL     1     -10.896   9.736  69.269  1.00  0.00    -0.240 A  
HETATM   11  C   UNL     1     -11.282  11.072  69.260  1.00  0.00    -0.257 A  
HETATM   12  O   UNL     1     -11.620  11.732  70.408  1.00  0.00    -0.506 OA 
HETATM   13  C   UNL     1     -11.343  11.777  68.063  1.00  0.00    -0.288 A  
HETATM   14  H   UNL     1     -11.883  12.644  70.402  1.00  0.00     0.000 HD 
HETATM   15  O   UNL     1     -11.752  13.080  68.058  1.00  0.00    -0.319 OA 
HETATM   16  C   UNL     1     -11.001  11.170  66.864  1.00  0.00    -0.333 A  
HETATM   17  C   UNL     1     -10.606   9.831  66.863  1.00  0.00    -0.243 A  
HETATM   18  H   UNL     1     -11.794  13.561  67.240  1.00  0.00     0.000 HD 
ENDBRANCH   8   9
ENDBRANCH   4   8
TORSDOF 2
ENDMDL
MODEL      225
REMARK 921   NORMALIZED FREE ENERGY PREDICTED BY IDOCK:   -2.84 KCAL/MOL
REMARK 922        TOTAL FREE ENERGY PREDICTED BY IDOCK:   -3.36 KCAL/MOL
REMARK 923 INTER-LIGAND FREE ENERGY PREDICTED BY IDOCK:   -3.11 KCAL/MOL
REMARK 924 INTRA-LIGAND FREE ENERGY PREDICTED BY IDOCK:   -0.25 KCAL/MOL
REMARK 927      BINDING AFFINITY PREDICTED BY RF-SCORE:    0.00 PKD
ROOT
HETATM    1  N   UNL     1     -10.403  14.658  67.662  1.00  0.00    -0.233 NA 
HETATM    2  H2  UNL     1     -11.390  14.451  67.813  1.00  0.00     0.000 HD 
HETATM    3  H1  UNL     1     -10.087  15.385  68.305  1.00  0.00     0.000 HD 
HETATM    4  CA  UNL     1      -9.587  13.402  67.715  1.00  0.00    -0.213 C  
HETATM    5  C   UNL     1      -8.108  13.758  67.485  1.00  0.00    -0.185 C  
HETATM    6  OXT UNL     1      -7.196  12.953  67.385  1.00  0.00    -0.151 OA 
HETATM    7  O   UNL     1      -7.925  15.103  67.423  1.00  0.00    -0.159 OA 
ENDROOT
BRANCH   4   8
HETATM    8  C   UNL     1     -10.064  12.304  66.744  1.00  0.00    -0.224 C  
BRANCH   8   9
HETATM    9  C   UNL     1     -10.239  10.940  67.376  1.00  0.00    -0.236 A  
HETATM   10  C   UNL     1     -10.240  10.807  68.776  1.00  0.00    -0.207 A  
HETATM   11  C   UNL     1     -10.318   9.543  69.350  1.00  0.00    -0.214 A  
HETATM   12  O   UNL     1     -10.308   9.365  70.705  1.00  0.00    -0.254 OA 
HETATM   13  C   UNL     1     -10.399   8.411  68.546  1.00  0.00    -0.200 A  
HETATM   14  H   UNL     1     -10.361   8.502  71.098  1.00  0.00     0.000 HD 
HETATM   15  O   UNL     1     -10.444   7.171  69.117  1.00  0.00    -0.201 OA 
HETATM   16  C   UNL     1     -10.425   8.522  67.165  1.00  0.00    -0.370 A  
HETATM   17  C   UNL     1     -10.355   9.788  66.579  1.00  0.00    -0.262 A  
HETATM   18  H   UNL     1     -10.499   6.398  68.567  1.00  0.00     0.000 HD 
ENDBRANCH   8   9
ENDBRANCH   4   8
TORSDOF 2
ENDMDL
MODEL      226
REMARK 921   NORMALIZED FREE ENERGY PREDICTED BY IDOCK:   -2.82 KCAL/MOL
REMARK 922        TOTAL FREE ENERGY PREDICTED BY IDOCK:   -3.33 KCAL/MOL
REMARK 923 INTER-LIGAND FREE ENERGY PREDICTED BY IDOCK:   -3.08 KCAL/MOL
REMARK 924 INTRA-LIGAND FREE ENERGY PREDICTED BY IDOCK:   -0.25 KCAL/MOL
REMARK 927      BINDING AFFINITY PREDICTED BY RF-SCORE:    0.00 PKD
ROOT
HETATM    1  N   UNL     1      -9.706   3.730  69.471  1.00  0.00    -0.155 NA 
HETATM    2  H2  UNL     1     -10.645   3.854  69.093  1.00  0.00     0.000 HD 
HETATM    3  H1  UNL     1      -9.075   3.369  68.754  1.00  0.00     0.000 HD 
HETATM    4  CA  UNL     1      -9.229   4.992  70.122  1.00  0.00    -0.135 C  
HETATM    5  C   UNL     1      -7.812   4.762  70.677  1.00  0.00    -0.069 C  
HETATM    6  OXT UNL     1      -7.175   5.567  71.338  1.00  0.00    -0.069 OA 
HETATM    7  O   UNL     1      -7.333   3.541  70.324  1.00  0.00    -0.041 OA 
ENDROOT
BRANCH   4   8
HETATM    8  C   UNL     1     -10.181   5.536  71.205  1.00  0.00    -0.283 C  
BRANCH   8   9
HETATM    9  C   UNL     1     -10.565   6.990  71.030  1.00  0.00    -0.239 A  
HETATM   10  C   UNL     1     -10.108   7.710  69.912  1.00  0.00    -0.198 A  
HETATM   11  C   UNL     1     -10.395   9.066  69.799  1.00  0.00    -0.211 A  
HETATM   12  O   UNL     1      -9.958   9.808  68.737  1.00  0.00    -0.159 OA 
HETATM   13  C   UNL     1     -11.136   9.710  70.782  1.00  0.00    -0.334 A  
HETATM   14  H   UNL     1     -10.154  10.734  68.659  1.00  0.00     0.000 HD 
HETATM   15  O   UNL     1     -11.388  11.049  70.679  1.00  0.00    -0.425 OA 
HETATM   16  C   UNL     1     -11.619   9.013  71.879  1.00  0.00    -0.441 A  
HETATM   17  C   UNL     1     -11.342   7.650  71.999  1.00  0.00    -0.322 A  
HETATM   18  H   UNL     1     -11.895  11.489  71.352  1.00  0.00     0.000 HD 
ENDBRANCH   8   9
ENDBRANCH   4   8
TORSDOF 2
ENDMDL
MODEL      227
REMARK 921   NORMALIZED FREE ENERGY PREDICTED BY IDOCK:   -2.81 KCAL/MOL
REMARK 922        TOTAL FREE ENERGY PREDICTED BY IDOCK:   -3.33 KCAL/MOL
REMARK 923 INTER-LIGAND FREE ENERGY PREDICTED BY IDOCK:   -3.14 KCAL/MOL
REMARK 924 INTRA-LIGAND FREE ENERGY PREDICTED BY IDOCK:   -0.19 KCAL/MOL
REMARK 927      BINDING AFFINITY PREDICTED BY RF-SCORE:    0.00 PKD
ROOT
HETATM    1  N   UNL     1      -6.155  12.179  68.350  1.00  0.00    -0.050 NA 
HETATM    2  H2  UNL     1      -6.329  11.178  68.445  1.00  0.00     0.000 HD 
HETATM    3  H1  UNL     1      -5.250  12.344  67.907  1.00  0.00     0.000 HD 
HETATM    4  CA  UNL     1      -7.302  12.850  67.660  1.00  0.00    -0.145 C  
HETATM    5  C   UNL     1      -7.000  14.354  67.537  1.00  0.00    -0.159 C  
HETATM    6  OXT UNL     1      -7.768  15.194  67.098  1.00  0.00    -0.200 OA 
HETATM    7  O   UNL     1      -5.743  14.643  67.964  1.00  0.00    -0.126 OA 
ENDROOT
BRANCH   4   8
HETATM    8  C   UNL     1      -8.669  12.600  68.328  1.00  0.00    -0.169 C  
BRANCH   8   9
HETATM    9  C   UNL     1      -9.245  11.222  68.083  1.00  0.00    -0.170 A  
HETATM   10  C   UNL     1      -9.131  10.627  66.814  1.00  0.00    -0.167 A  
HETATM   11  C   UNL     1      -9.734   9.398  66.571  1.00  0.00    -0.236 A  
HETATM   12  O   UNL     1      -9.662   8.789  65.349  1.00  0.00    -0.436 OA 
HETATM   13  C   UNL     1     -10.445   8.753  67.577  1.00  0.00    -0.271 A  
HETATM   14  H   UNL     1     -10.073   7.950  65.183  1.00  0.00     0.000 HD 
HETATM   15  O   UNL     1     -11.060   7.561  67.322  1.00  0.00    -0.551 OA 
HETATM   16  C   UNL     1     -10.547   9.311  68.843  1.00  0.00    -0.222 A  
HETATM   17  C   UNL     1      -9.939  10.541  69.099  1.00  0.00    -0.236 A  
HETATM   18  H   UNL     1     -11.545   7.121  68.010  1.00  0.00     0.000 HD 
ENDBRANCH   8   9
ENDBRANCH   4   8
TORSDOF 2
ENDMDL
MODEL      228
REMARK 921   NORMALIZED FREE ENERGY PREDICTED BY IDOCK:   -2.81 KCAL/MOL
REMARK 922        TOTAL FREE ENERGY PREDICTED BY IDOCK:   -3.32 KCAL/MOL
REMARK 923 INTER-LIGAND FREE ENERGY PREDICTED BY IDOCK:   -3.34 KCAL/MOL
REMARK 924 INTRA-LIGAND FREE ENERGY PREDICTED BY IDOCK:    0.02 KCAL/MOL
REMARK 927      BINDING AFFINITY PREDICTED BY RF-SCORE:    0.00 PKD
ROOT
HETATM    1  N   UNL     1      -7.610   8.156  66.269  1.00  0.00    -0.088 NA 
HETATM    2  H2  UNL     1      -6.883   8.753  65.876  1.00  0.00     0.000 HD 
HETATM    3  H1  UNL     1      -7.531   7.206  65.905  1.00  0.00     0.000 HD 
HETATM    4  CA  UNL     1      -7.606   8.238  67.765  1.00  0.00    -0.102 C  
HETATM    5  C   UNL     1      -8.715   7.326  68.318  1.00  0.00    -0.125 C  
HETATM    6  OXT UNL     1      -9.029   7.230  69.494  1.00  0.00    -0.143 OA 
HETATM    7  O   UNL     1      -9.307   6.608  67.327  1.00  0.00    -0.128 OA 
ENDROOT
BRANCH   4   8
HETATM    8  C   UNL     1      -7.725   9.673  68.315  1.00  0.00    -0.082 C  
BRANCH   8   9
HETATM    9  C   UNL     1      -8.953  10.425  67.848  1.00  0.00    -0.128 A  
HETATM   10  C   UNL     1     -10.139  10.374  68.601  1.00  0.00    -0.188 A  
HETATM   11  C   UNL     1     -11.287  10.998  68.125  1.00  0.00    -0.307 A  
HETATM   12  O   UNL     1     -12.465  10.962  68.817  1.00  0.00    -0.767 OA 
HETATM   13  C   UNL     1     -11.266  11.674  66.911  1.00  0.00    -0.313 A  
HETATM   14  H   UNL     1     -13.250  11.388  68.492  1.00  0.00     0.000 HD 
HETATM   15  O   UNL     1     -12.405  12.258  66.435  1.00  0.00    -0.531 OA 
HETATM   16  C   UNL     1     -10.100  11.758  66.165  1.00  0.00    -0.255 A  
HETATM   17  C   UNL     1      -8.940  11.141  66.638  1.00  0.00    -0.175 A  
HETATM   18  H   UNL     1     -12.390  12.720  65.604  1.00  0.00     0.000 HD 
ENDBRANCH   8   9
ENDBRANCH   4   8
TORSDOF 2
ENDMDL
MODEL      229
REMARK 921   NORMALIZED FREE ENERGY PREDICTED BY IDOCK:   -2.79 KCAL/MOL
REMARK 922        TOTAL FREE ENERGY PREDICTED BY IDOCK:   -3.31 KCAL/MOL
REMARK 923 INTER-LIGAND FREE ENERGY PREDICTED BY IDOCK:   -3.24 KCAL/MOL
REMARK 924 INTRA-LIGAND FREE ENERGY PREDICTED BY IDOCK:   -0.07 KCAL/MOL
REMARK 927      BINDING AFFINITY PREDICTED BY RF-SCORE:    0.00 PKD
ROOT
HETATM    1  N   UNL     1     -10.310  11.750  69.058  1.00  0.00    -0.395 NA 
HETATM    2  H2  UNL     1      -9.716  11.124  68.515  1.00  0.00     0.000 HD 
HETATM    3  H1  UNL     1     -10.674  12.500  68.468  1.00  0.00     0.000 HD 
HETATM    4  CA  UNL     1     -11.369  10.976  69.780  1.00  0.00    -0.292 C  
HETATM    5  C   UNL     1     -12.242  11.955  70.585  1.00  0.00    -0.331 C  
HETATM    6  OXT UNL     1     -13.140  11.636  71.347  1.00  0.00    -0.375 OA 
HETATM    7  O   UNL     1     -11.904  13.246  70.329  1.00  0.00    -0.307 OA 
ENDROOT
BRANCH   4   8
HETATM    8  C   UNL     1     -10.820   9.843  70.671  1.00  0.00    -0.400 C  
BRANCH   8   9
HETATM    9  C   UNL     1      -9.822   8.934  69.986  1.00  0.00    -0.188 A  
HETATM   10  C   UNL     1     -10.087   8.441  68.697  1.00  0.00    -0.210 A  
HETATM   11  C   UNL     1      -9.206   7.541  68.107  1.00  0.00    -0.137 A  
HETATM   12  O   UNL     1      -9.431   7.024  66.862  1.00  0.00    -0.147 OA 
HETATM   13  C   UNL     1      -8.063   7.132  68.785  1.00  0.00    -0.121 A  
HETATM   14  H   UNL     1      -8.830   6.410  66.459  1.00  0.00     0.000 HD 
HETATM   15  O   UNL     1      -7.218   6.224  68.211  1.00  0.00    -0.080 OA 
HETATM   16  C   UNL     1      -7.770   7.627  70.046  1.00  0.00    -0.092 A  
HETATM   17  C   UNL     1      -8.645   8.536  70.644  1.00  0.00    -0.163 A  
HETATM   18  H   UNL     1      -6.438   5.945  68.675  1.00  0.00     0.000 HD 
ENDBRANCH   8   9
ENDBRANCH   4   8
TORSDOF 2
ENDMDL
MODEL      230
REMARK 921   NORMALIZED FREE ENERGY PREDICTED BY IDOCK:   -2.78 KCAL/MOL
REMARK 922        TOTAL FREE ENERGY PREDICTED BY IDOCK:   -3.29 KCAL/MOL
REMARK 923 INTER-LIGAND FREE ENERGY PREDICTED BY IDOCK:   -3.15 KCAL/MOL
REMARK 924 INTRA-LIGAND FREE ENERGY PREDICTED BY IDOCK:   -0.14 KCAL/MOL
REMARK 927      BINDING AFFINITY PREDICTED BY RF-SCORE:    0.00 PKD
ROOT
HETATM    1  N   UNL     1      -8.064   8.892  66.389  1.00  0.00    -0.109 NA 
HETATM    2  H2  UNL     1      -8.065   8.317  67.231  1.00  0.00     0.000 HD 
HETATM    3  H1  UNL     1      -7.523   8.444  65.649  1.00  0.00     0.000 HD 
HETATM    4  CA  UNL     1      -9.465   9.244  65.990  1.00  0.00    -0.247 C  
HETATM    5  C   UNL     1      -9.419  10.110  64.719  1.00  0.00    -0.295 C  
HETATM    6  OXT UNL     1     -10.386  10.630  64.185  1.00  0.00    -0.351 OA 
HETATM    7  O   UNL     1      -8.153  10.215  64.236  1.00  0.00    -0.153 OA 
ENDROOT
BRANCH   4   8
HETATM    8  C   UNL     1     -10.283   9.920  67.108  1.00  0.00    -0.285 C  
BRANCH   8   9
HETATM    9  C   UNL     1     -10.156   9.263  68.466  1.00  0.00    -0.211 A  
HETATM   10  C   UNL     1     -10.879   8.091  68.751  1.00  0.00     0.019 A  
HETATM   11  C   UNL     1     -10.822   7.539  70.026  1.00  0.00    -0.249 A  
HETATM   12  O   UNL     1     -11.520   6.409  70.352  1.00  0.00    -0.361 OA 
HETATM   13  C   UNL     1     -10.052   8.137  71.016  1.00  0.00    -0.187 A  
HETATM   14  H   UNL     1     -11.481   6.031  71.223  1.00  0.00     0.000 HD 
HETATM   15  O   UNL     1     -10.025   7.605  72.274  1.00  0.00    -0.173 OA 
HETATM   16  C   UNL     1      -9.311   9.277  70.748  1.00  0.00    -0.322 A  
HETATM   17  C   UNL     1      -9.355   9.836  69.469  1.00  0.00    -0.226 A  
HETATM   18  H   UNL     1      -9.499   8.015  72.951  1.00  0.00     0.000 HD 
ENDBRANCH   8   9
ENDBRANCH   4   8
TORSDOF 2
ENDMDL
MODEL      231
REMARK 921   NORMALIZED FREE ENERGY PREDICTED BY IDOCK:   -2.78 KCAL/MOL
REMARK 922        TOTAL FREE ENERGY PREDICTED BY IDOCK:   -3.29 KCAL/MOL
REMARK 923 INTER-LIGAND FREE ENERGY PREDICTED BY IDOCK:   -3.16 KCAL/MOL
REMARK 924 INTRA-LIGAND FREE ENERGY PREDICTED BY IDOCK:   -0.13 KCAL/MOL
REMARK 927      BINDING AFFINITY PREDICTED BY RF-SCORE:    0.00 PKD
ROOT
HETATM    1  N   UNL     1      -9.112  10.454  69.890  1.00  0.00    -0.387 NA 
HETATM    2  H2  UNL     1      -8.955  11.068  69.091  1.00  0.00     0.000 HD 
HETATM    3  H1  UNL     1      -8.548  10.751  70.687  1.00  0.00     0.000 HD 
HETATM    4  CA  UNL     1     -10.576  10.341  70.187  1.00  0.00    -0.246 C  
HETATM    5  C   UNL     1     -10.769   9.408  71.396  1.00  0.00    -0.337 C  
HETATM    6  OXT UNL     1     -11.846   9.043  71.839  1.00  0.00    -0.344 OA 
HETATM    7  O   UNL     1      -9.577   9.045  71.937  1.00  0.00    -0.287 OA 
ENDROOT
BRANCH   4   8
HETATM    8  C   UNL     1     -11.427   9.892  68.983  1.00  0.00     0.003 C  
BRANCH   8   9
HETATM    9  C   UNL     1     -10.687   9.043  67.972  1.00  0.00    -0.184 A  
HETATM   10  C   UNL     1     -10.421   7.690  68.248  1.00  0.00    -0.219 A  
HETATM   11  C   UNL     1      -9.668   6.938  67.353  1.00  0.00    -0.139 A  
HETATM   12  O   UNL     1      -9.373   5.624  67.587  1.00  0.00    -0.110 OA 
HETATM   13  C   UNL     1      -9.183   7.516  66.185  1.00  0.00    -0.105 A  
HETATM   14  H   UNL     1      -8.859   5.109  66.976  1.00  0.00     0.000 HD 
HETATM   15  O   UNL     1      -8.419   6.778  65.325  1.00  0.00    -0.225 OA 
HETATM   16  C   UNL     1      -9.456   8.840  65.881  1.00  0.00    -0.278 A  
HETATM   17  C   UNL     1     -10.217   9.603  66.771  1.00  0.00    -0.308 A  
HETATM   18  H   UNL     1      -8.088   7.174  64.528  1.00  0.00     0.000 HD 
ENDBRANCH   8   9
ENDBRANCH   4   8
TORSDOF 2
ENDMDL
MODEL      232
REMARK 921   NORMALIZED FREE ENERGY PREDICTED BY IDOCK:   -2.78 KCAL/MOL
REMARK 922        TOTAL FREE ENERGY PREDICTED BY IDOCK:   -3.29 KCAL/MOL
REMARK 923 INTER-LIGAND FREE ENERGY PREDICTED BY IDOCK:   -3.22 KCAL/MOL
REMARK 924 INTRA-LIGAND FREE ENERGY PREDICTED BY IDOCK:   -0.06 KCAL/MOL
REMARK 927      BINDING AFFINITY PREDICTED BY RF-SCORE:    0.00 PKD
ROOT
HETATM    1  N   UNL     1     -10.063  11.984  68.380  1.00  0.00    -0.208 NA 
HETATM    2  H2  UNL     1     -10.363  12.230  69.323  1.00  0.00     0.000 HD 
HETATM    3  H1  UNL     1     -10.289  12.734  67.726  1.00  0.00     0.000 HD 
HETATM    4  CA  UNL     1      -8.620  11.584  68.374  1.00  0.00    -0.159 C  
HETATM    5  C   UNL     1      -8.208  11.222  66.936  1.00  0.00    -0.153 C  
HETATM    6  OXT UNL     1      -7.121  10.777  66.605  1.00  0.00    -0.117 OA 
HETATM    7  O   UNL     1      -9.210  11.479  66.054  1.00  0.00    -0.214 OA 
ENDROOT
BRANCH   4   8
HETATM    8  C   UNL     1      -8.279  10.452  69.363  1.00  0.00    -0.158 C  
BRANCH   8   9
HETATM    9  C   UNL     1      -9.398   9.458  69.590  1.00  0.00    -0.199 A  
HETATM   10  C   UNL     1     -10.338   9.676  70.612  1.00  0.00    -0.365 A  
HETATM   11  C   UNL     1     -11.313   8.719  70.869  1.00  0.00    -0.275 A  
HETATM   12  O   UNL     1     -12.238   8.883  71.863  1.00  0.00    -0.325 OA 
HETATM   13  C   UNL     1     -11.366   7.552  70.117  1.00  0.00    -0.151 A  
HETATM   14  H   UNL     1     -12.905   8.230  72.039  1.00  0.00     0.000 HD 
HETATM   15  O   UNL     1     -12.308   6.603  70.395  1.00  0.00    -0.529 OA 
HETATM   16  C   UNL     1     -10.465   7.329  69.087  1.00  0.00    -0.222 A  
HETATM   17  C   UNL     1      -9.486   8.287  68.816  1.00  0.00    -0.148 A  
HETATM   18  H   UNL     1     -12.344   5.805  69.881  1.00  0.00     0.000 HD 
ENDBRANCH   8   9
ENDBRANCH   4   8
TORSDOF 2
ENDMDL
MODEL      233
REMARK 921   NORMALIZED FREE ENERGY PREDICTED BY IDOCK:   -2.76 KCAL/MOL
REMARK 922        TOTAL FREE ENERGY PREDICTED BY IDOCK:   -3.27 KCAL/MOL
REMARK 923 INTER-LIGAND FREE ENERGY PREDICTED BY IDOCK:   -3.10 KCAL/MOL
REMARK 924 INTRA-LIGAND FREE ENERGY PREDICTED BY IDOCK:   -0.17 KCAL/MOL
REMARK 927      BINDING AFFINITY PREDICTED BY RF-SCORE:    0.00 PKD
ROOT
HETATM    1  N   UNL     1      -9.309  13.917  66.986  1.00  0.00    -0.242 NA 
HETATM    2  H2  UNL     1     -10.161  14.311  66.589  1.00  0.00     0.000 HD 
HETATM    3  H1  UNL     1      -9.047  13.061  66.496  1.00  0.00     0.000 HD 
HETATM    4  CA  UNL     1      -8.224  14.950  67.031  1.00  0.00    -0.196 C  
HETATM    5  C   UNL     1      -6.958  14.317  67.636  1.00  0.00    -0.184 C  
HETATM    6  OXT UNL     1      -5.923  14.913  67.888  1.00  0.00    -0.139 OA 
HETATM    7  O   UNL     1      -7.121  12.984  67.845  1.00  0.00    -0.097 OA 
ENDROOT
BRANCH   4   8
HETATM    8  C   UNL     1      -8.620  16.243  67.771  1.00  0.00    -0.175 C  
BRANCH   8   9
HETATM    9  C   UNL     1      -7.878  17.480  67.314  1.00  0.00    -0.221 A  
HETATM   10  C   UNL     1      -7.496  17.615  65.967  1.00  0.00    -0.282 A  
HETATM   11  C   UNL     1      -6.743  18.714  65.570  1.00  0.00    -0.249 A  
HETATM   12  O   UNL     1      -6.338  18.879  64.274  1.00  0.00    -0.392 OA 
HETATM   13  C   UNL     1      -6.370  19.681  66.496  1.00  0.00    -0.183 A  
HETATM   14  H   UNL     1      -5.823  19.629  64.002  1.00  0.00     0.000 HD 
HETATM   15  O   UNL     1      -5.604  20.742  66.104  1.00  0.00    -0.182 OA 
HETATM   16  C   UNL     1      -6.758  19.580  67.823  1.00  0.00    -0.259 A  
HETATM   17  C   UNL     1      -7.520  18.484  68.231  1.00  0.00    -0.298 A  
HETATM   18  H   UNL     1      -5.349  21.403  66.737  1.00  0.00     0.000 HD 
ENDBRANCH   8   9
ENDBRANCH   4   8
TORSDOF 2
ENDMDL
MODEL      234
REMARK 921   NORMALIZED FREE ENERGY PREDICTED BY IDOCK:   -2.75 KCAL/MOL
REMARK 922        TOTAL FREE ENERGY PREDICTED BY IDOCK:   -3.26 KCAL/MOL
REMARK 923 INTER-LIGAND FREE ENERGY PREDICTED BY IDOCK:   -3.07 KCAL/MOL
REMARK 924 INTRA-LIGAND FREE ENERGY PREDICTED BY IDOCK:   -0.19 KCAL/MOL
REMARK 927      BINDING AFFINITY PREDICTED BY RF-SCORE:    0.00 PKD
ROOT
HETATM    1  N   UNL     1     -11.321   8.017  69.495  1.00  0.00    -0.424 NA 
HETATM    2  H2  UNL     1     -11.898   8.856  69.447  1.00  0.00     0.000 HD 
HETATM    3  H1  UNL     1     -11.881   7.185  69.312  1.00  0.00     0.000 HD 
HETATM    4  CA  UNL     1     -10.123   8.152  68.605  1.00  0.00    -0.196 C  
HETATM    5  C   UNL     1      -9.280   6.869  68.706  1.00  0.00    -0.131 C  
HETATM    6  OXT UNL     1      -8.197   6.692  68.170  1.00  0.00    -0.113 OA 
HETATM    7  O   UNL     1      -9.900   5.926  69.462  1.00  0.00    -0.155 OA 
ENDROOT
BRANCH   4   8
HETATM    8  C   UNL     1      -9.276   9.410  68.880  1.00  0.00    -0.140 C  
BRANCH   8   9
HETATM    9  C   UNL     1      -9.640  10.611  68.033  1.00  0.00    -0.167 A  
HETATM   10  C   UNL     1      -9.195  11.893  68.400  1.00  0.00    -0.173 A  
HETATM   11  C   UNL     1      -9.601  13.001  67.665  1.00  0.00    -0.206 A  
HETATM   12  O   UNL     1      -9.204  14.268  67.994  1.00  0.00    -0.180 OA 
HETATM   13  C   UNL     1     -10.441  12.847  66.568  1.00  0.00    -0.265 A  
HETATM   14  H   UNL     1      -9.482  15.025  67.492  1.00  0.00     0.000 HD 
HETATM   15  O   UNL     1     -10.860  13.943  65.870  1.00  0.00    -0.283 OA 
HETATM   16  C   UNL     1     -10.870  11.589  66.175  1.00  0.00    -0.330 A  
HETATM   17  C   UNL     1     -10.462  10.469  66.902  1.00  0.00    -0.303 A  
HETATM   18  H   UNL     1     -11.434  13.837  65.121  1.00  0.00     0.000 HD 
ENDBRANCH   8   9
ENDBRANCH   4   8
TORSDOF 2
ENDMDL
MODEL      235
REMARK 921   NORMALIZED FREE ENERGY PREDICTED BY IDOCK:   -2.75 KCAL/MOL
REMARK 922        TOTAL FREE ENERGY PREDICTED BY IDOCK:   -3.26 KCAL/MOL
REMARK 923 INTER-LIGAND FREE ENERGY PREDICTED BY IDOCK:   -3.26 KCAL/MOL
REMARK 924 INTRA-LIGAND FREE ENERGY PREDICTED BY IDOCK:    0.01 KCAL/MOL
REMARK 927      BINDING AFFINITY PREDICTED BY RF-SCORE:    0.00 PKD
ROOT
HETATM    1  N   UNL     1      -8.843   6.212  71.743  1.00  0.00    -0.138 NA 
HETATM    2  H2  UNL     1      -9.250   6.892  72.385  1.00  0.00     0.000 HD 
HETATM    3  H1  UNL     1      -8.049   5.740  72.177  1.00  0.00     0.000 HD 
HETATM    4  CA  UNL     1      -9.896   5.281  71.226  1.00  0.00    -0.173 C  
HETATM    5  C   UNL     1      -9.243   4.274  70.264  1.00  0.00    -0.133 C  
HETATM    6  OXT UNL     1      -9.840   3.434  69.609  1.00  0.00    -0.071 OA 
HETATM    7  O   UNL     1      -7.891   4.416  70.240  1.00  0.00    -0.058 OA 
ENDROOT
BRANCH   4   8
HETATM    8  C   UNL     1     -11.096   5.994  70.570  1.00  0.00    -0.385 C  
BRANCH   8   9
HETATM    9  C   UNL     1     -10.758   6.764  69.311  1.00  0.00    -0.288 A  
HETATM   10  C   UNL     1     -10.209   8.056  69.402  1.00  0.00    -0.210 A  
HETATM   11  C   UNL     1      -9.978   8.790  68.244  1.00  0.00    -0.176 A  
HETATM   12  O   UNL     1      -9.460  10.054  68.285  1.00  0.00    -0.138 OA 
HETATM   13  C   UNL     1     -10.282   8.251  66.999  1.00  0.00    -0.310 A  
HETATM   14  H   UNL     1      -9.302  10.556  67.494  1.00  0.00     0.000 HD 
HETATM   15  O   UNL     1     -10.080   8.990  65.868  1.00  0.00    -0.418 OA 
HETATM   16  C   UNL     1     -10.798   6.969  66.887  1.00  0.00    -0.350 A  
HETATM   17  C   UNL     1     -11.028   6.221  68.043  1.00  0.00    -0.418 A  
HETATM   18  H   UNL     1     -10.288   8.622  65.017  1.00  0.00     0.000 HD 
ENDBRANCH   8   9
ENDBRANCH   4   8
TORSDOF 2
ENDMDL
MODEL      236
REMARK 921   NORMALIZED FREE ENERGY PREDICTED BY IDOCK:   -2.75 KCAL/MOL
REMARK 922        TOTAL FREE ENERGY PREDICTED BY IDOCK:   -3.25 KCAL/MOL
REMARK 923 INTER-LIGAND FREE ENERGY PREDICTED BY IDOCK:   -3.33 KCAL/MOL
REMARK 924 INTRA-LIGAND FREE ENERGY PREDICTED BY IDOCK:    0.08 KCAL/MOL
REMARK 927      BINDING AFFINITY PREDICTED BY RF-SCORE:    0.00 PKD
ROOT
HETATM    1  N   UNL     1      -9.165   7.647  70.559  1.00  0.00    -0.159 NA 
HETATM    2  H2  UNL     1      -9.802   6.852  70.609  1.00  0.00     0.000 HD 
HETATM    3  H1  UNL     1      -8.264   7.412  70.976  1.00  0.00     0.000 HD 
HETATM    4  CA  UNL     1      -9.071   8.157  69.154  1.00  0.00    -0.148 C  
HETATM    5  C   UNL     1      -8.104   9.353  69.121  1.00  0.00    -0.107 C  
HETATM    6  OXT UNL     1      -7.872  10.046  68.144  1.00  0.00    -0.088 OA 
HETATM    7  O   UNL     1      -7.508   9.542  70.328  1.00  0.00    -0.107 OA 
ENDROOT
BRANCH   4   8
HETATM    8  C   UNL     1     -10.432   8.512  68.523  1.00  0.00    -0.205 C  
BRANCH   8   9
HETATM    9  C   UNL     1     -11.023   9.822  69.000  1.00  0.00    -0.193 A  
HETATM   10  C   UNL     1     -11.163  10.899  68.107  1.00  0.00    -0.363 A  
HETATM   11  C   UNL     1     -11.628  12.124  68.570  1.00  0.00    -0.315 A  
HETATM   12  O   UNL     1     -11.766  13.202  67.741  1.00  0.00    -0.321 OA 
HETATM   13  C   UNL     1     -11.960  12.288  69.910  1.00  0.00    -0.306 A  
HETATM   14  H   UNL     1     -12.084  14.039  68.056  1.00  0.00     0.000 HD 
HETATM   15  O   UNL     1     -12.388  13.503  70.364  1.00  0.00    -0.338 OA 
HETATM   16  C   UNL     1     -11.854  11.232  70.802  1.00  0.00    -0.288 A  
HETATM   17  C   UNL     1     -11.394   9.995  70.345  1.00  0.00    -0.392 A  
HETATM   18  H   UNL     1     -12.614  13.614  71.280  1.00  0.00     0.000 HD 
ENDBRANCH   8   9
ENDBRANCH   4   8
TORSDOF 2
ENDMDL
MODEL      237
REMARK 921   NORMALIZED FREE ENERGY PREDICTED BY IDOCK:   -2.75 KCAL/MOL
REMARK 922        TOTAL FREE ENERGY PREDICTED BY IDOCK:   -3.25 KCAL/MOL
REMARK 923 INTER-LIGAND FREE ENERGY PREDICTED BY IDOCK:   -3.14 KCAL/MOL
REMARK 924 INTRA-LIGAND FREE ENERGY PREDICTED BY IDOCK:   -0.12 KCAL/MOL
REMARK 927      BINDING AFFINITY PREDICTED BY RF-SCORE:    0.00 PKD
ROOT
HETATM    1  N   UNL     1     -11.941  12.395  68.906  1.00  0.00    -0.285 NA 
HETATM    2  H2  UNL     1     -12.514  13.238  68.863  1.00  0.00     0.000 HD 
HETATM    3  H1  UNL     1     -12.383  11.691  69.497  1.00  0.00     0.000 HD 
HETATM    4  CA  UNL     1     -11.609  11.912  67.528  1.00  0.00    -0.304 C  
HETATM    5  C   UNL     1     -10.746  10.643  67.637  1.00  0.00    -0.267 C  
HETATM    6  OXT UNL     1     -10.241  10.050  66.698  1.00  0.00    -0.217 OA 
HETATM    7  O   UNL     1     -10.625  10.236  68.928  1.00  0.00    -0.195 OA 
ENDROOT
BRANCH   4   8
HETATM    8  C   UNL     1     -10.941  12.976  66.634  1.00  0.00    -0.301 C  
BRANCH   8   9
HETATM    9  C   UNL     1      -9.875  13.798  67.328  1.00  0.00    -0.241 A  
HETATM   10  C   UNL     1     -10.184  15.075  67.827  1.00  0.00    -0.236 A  
HETATM   11  C   UNL     1      -9.182  15.859  68.388  1.00  0.00    -0.197 A  
HETATM   12  O   UNL     1      -9.433  17.112  68.873  1.00  0.00    -0.262 OA 
HETATM   13  C   UNL     1      -7.878  15.383  68.462  1.00  0.00    -0.134 A  
HETATM   14  H   UNL     1      -8.749  17.647  69.257  1.00  0.00     0.000 HD 
HETATM   15  O   UNL     1      -6.892  16.170  68.987  1.00  0.00    -0.151 OA 
HETATM   16  C   UNL     1      -7.557  14.116  67.999  1.00  0.00    -0.142 A  
HETATM   17  C   UNL     1      -8.558  13.319  67.440  1.00  0.00    -0.204 A  
HETATM   18  H   UNL     1      -6.001  15.844  69.036  1.00  0.00     0.000 HD 
ENDBRANCH   8   9
ENDBRANCH   4   8
TORSDOF 2
ENDMDL
MODEL      238
REMARK 921   NORMALIZED FREE ENERGY PREDICTED BY IDOCK:   -2.73 KCAL/MOL
REMARK 922        TOTAL FREE ENERGY PREDICTED BY IDOCK:   -3.24 KCAL/MOL
REMARK 923 INTER-LIGAND FREE ENERGY PREDICTED BY IDOCK:   -3.23 KCAL/MOL
REMARK 924 INTRA-LIGAND FREE ENERGY PREDICTED BY IDOCK:   -0.00 KCAL/MOL
REMARK 927      BINDING AFFINITY PREDICTED BY RF-SCORE:    0.00 PKD
ROOT
HETATM    1  N   UNL     1      -7.489   6.917  69.963  1.00  0.00    -0.091 NA 
HETATM    2  H2  UNL     1      -6.612   7.427  70.063  1.00  0.00     0.000 HD 
HETATM    3  H1  UNL     1      -7.315   5.963  69.646  1.00  0.00     0.000 HD 
HETATM    4  CA  UNL     1      -8.295   7.004  71.222  1.00  0.00    -0.114 C  
HETATM    5  C   UNL     1      -9.607   6.223  71.029  1.00  0.00    -0.175 C  
HETATM    6  OXT UNL     1     -10.520   6.168  71.838  1.00  0.00    -0.204 OA 
HETATM    7  O   UNL     1      -9.626   5.572  69.837  1.00  0.00    -0.149 OA 
ENDROOT
BRANCH   4   8
HETATM    8  C   UNL     1      -8.558   8.445  71.701  1.00  0.00    -0.223 C  
BRANCH   8   9
HETATM    9  C   UNL     1      -9.175   9.351  70.656  1.00  0.00    -0.303 A  
HETATM   10  C   UNL     1     -10.571   9.508  70.596  1.00  0.00    -0.374 A  
HETATM   11  C   UNL     1     -11.136  10.275  69.583  1.00  0.00    -0.274 A  
HETATM   12  O   UNL     1     -12.489  10.443  69.477  1.00  0.00    -0.584 OA 
HETATM   13  C   UNL     1     -10.328  10.890  68.634  1.00  0.00    -0.191 A  
HETATM   14  H   UNL     1     -12.876  10.967  68.786  1.00  0.00     0.000 HD 
HETATM   15  O   UNL     1     -10.892  11.616  67.625  1.00  0.00    -0.203 OA 
HETATM   16  C   UNL     1      -8.948  10.769  68.691  1.00  0.00    -0.162 A  
HETATM   17  C   UNL     1      -8.370  10.007  69.708  1.00  0.00    -0.187 A  
HETATM   18  H   UNL     1     -10.340  12.036  66.976  1.00  0.00     0.000 HD 
ENDBRANCH   8   9
ENDBRANCH   4   8
TORSDOF 2
ENDMDL
MODEL      239
REMARK 921   NORMALIZED FREE ENERGY PREDICTED BY IDOCK:   -2.71 KCAL/MOL
REMARK 922        TOTAL FREE ENERGY PREDICTED BY IDOCK:   -3.21 KCAL/MOL
REMARK 923 INTER-LIGAND FREE ENERGY PREDICTED BY IDOCK:   -3.08 KCAL/MOL
REMARK 924 INTRA-LIGAND FREE ENERGY PREDICTED BY IDOCK:   -0.13 KCAL/MOL
REMARK 927      BINDING AFFINITY PREDICTED BY RF-SCORE:    0.00 PKD
ROOT
HETATM    1  N   UNL     1     -10.403   4.313  63.732  1.00  0.00    -0.420 NA 
HETATM    2  H2  UNL     1     -10.684   5.283  63.597  1.00  0.00     0.000 HD 
HETATM    3  H1  UNL     1     -10.823   3.715  63.020  1.00  0.00     0.000 HD 
HETATM    4  CA  UNL     1      -8.911   4.204  63.816  1.00  0.00    -0.130 C  
HETATM    5  C   UNL     1      -8.529   2.727  64.020  1.00  0.00    -0.086 C  
HETATM    6  OXT UNL     1      -7.397   2.311  64.210  1.00  0.00    -0.055 OA 
HETATM    7  O   UNL     1      -9.618   1.918  63.944  1.00  0.00    -0.121 OA 
ENDROOT
BRANCH   4   8
HETATM    8  C   UNL     1      -8.276   5.107  64.892  1.00  0.00    -0.136 C  
BRANCH   8   9
HETATM    9  C   UNL     1      -9.215   5.507  66.010  1.00  0.00    -0.168 A  
HETATM   10  C   UNL     1      -9.700   6.825  66.085  1.00  0.00     0.041 A  
HETATM   11  C   UNL     1     -10.495   7.208  67.160  1.00  0.00    -0.319 A  
HETATM   12  O   UNL     1     -10.976   8.482  67.281  1.00  0.00    -0.447 OA 
HETATM   13  C   UNL     1     -10.817   6.294  68.156  1.00  0.00    -0.320 A  
HETATM   14  H   UNL     1     -11.519   8.744  68.015  1.00  0.00     0.000 HD 
HETATM   15  O   UNL     1     -11.573   6.685  69.224  1.00  0.00    -0.618 OA 
HETATM   16  C   UNL     1     -10.371   4.983  68.087  1.00  0.00    -0.091 A  
HETATM   17  C   UNL     1      -9.577   4.586  67.009  1.00  0.00    -0.210 A  
HETATM   18  H   UNL     1     -11.792   6.060  69.905  1.00  0.00     0.000 HD 
ENDBRANCH   8   9
ENDBRANCH   4   8
TORSDOF 2
ENDMDL
MODEL      240
REMARK 921   NORMALIZED FREE ENERGY PREDICTED BY IDOCK:   -2.70 KCAL/MOL
REMARK 922        TOTAL FREE ENERGY PREDICTED BY IDOCK:   -3.21 KCAL/MOL
REMARK 923 INTER-LIGAND FREE ENERGY PREDICTED BY IDOCK:   -3.00 KCAL/MOL
REMARK 924 INTRA-LIGAND FREE ENERGY PREDICTED BY IDOCK:   -0.21 KCAL/MOL
REMARK 927      BINDING AFFINITY PREDICTED BY RF-SCORE:    0.00 PKD
ROOT
HETATM    1  N   UNL     1      -9.966   9.190  71.214  1.00  0.00    -0.302 NA 
HETATM    2  H2  UNL     1      -9.357   9.540  70.475  1.00  0.00     0.000 HD 
HETATM    3  H1  UNL     1     -10.640   9.905  71.491  1.00  0.00     0.000 HD 
HETATM    4  CA  UNL     1     -10.590   7.890  70.809  1.00  0.00    -0.214 C  
HETATM    5  C   UNL     1     -11.500   7.398  71.949  1.00  0.00    -0.266 C  
HETATM    6  OXT UNL     1     -12.089   6.328  71.969  1.00  0.00    -0.337 OA 
HETATM    7  O   UNL     1     -11.590   8.318  72.944  1.00  0.00    -0.351 OA 
ENDROOT
BRANCH   4   8
HETATM    8  C   UNL     1      -9.574   6.810  70.389  1.00  0.00    -0.174 C  
BRANCH   8   9
HETATM    9  C   UNL     1      -9.417   6.643  68.892  1.00  0.00    -0.130 A  
HETATM   10  C   UNL     1      -8.234   6.097  68.364  1.00  0.00    -0.115 A  
HETATM   11  C   UNL     1      -8.063   6.023  66.987  1.00  0.00    -0.106 A  
HETATM   12  O   UNL     1      -6.924   5.513  66.429  1.00  0.00    -0.061 OA 
HETATM   13  C   UNL     1      -9.057   6.481  66.130  1.00  0.00    -0.124 A  
HETATM   14  H   UNL     1      -6.806   5.462  65.488  1.00  0.00     0.000 HD 
HETATM   15  O   UNL     1      -8.869   6.433  64.778  1.00  0.00    -0.348 OA 
HETATM   16  C   UNL     1     -10.242   6.999  66.630  1.00  0.00    -0.218 A  
HETATM   17  C   UNL     1     -10.427   7.072  68.012  1.00  0.00    -0.255 A  
HETATM   18  H   UNL     1      -9.549   6.746  64.193  1.00  0.00     0.000 HD 
ENDBRANCH   8   9
ENDBRANCH   4   8
TORSDOF 2
ENDMDL
MODEL      241
REMARK 921   NORMALIZED FREE ENERGY PREDICTED BY IDOCK:   -2.67 KCAL/MOL
REMARK 922        TOTAL FREE ENERGY PREDICTED BY IDOCK:   -3.17 KCAL/MOL
REMARK 923 INTER-LIGAND FREE ENERGY PREDICTED BY IDOCK:   -3.08 KCAL/MOL
REMARK 924 INTRA-LIGAND FREE ENERGY PREDICTED BY IDOCK:   -0.09 KCAL/MOL
REMARK 927      BINDING AFFINITY PREDICTED BY RF-SCORE:    0.00 PKD
ROOT
HETATM    1  N   UNL     1      -9.950   5.257  68.821  1.00  0.00    -0.165 NA 
HETATM    2  H2  UNL     1      -9.694   5.201  67.836  1.00  0.00     0.000 HD 
HETATM    3  H1  UNL     1     -10.401   4.393  69.124  1.00  0.00     0.000 HD 
HETATM    4  CA  UNL     1      -8.767   5.650  69.651  1.00  0.00    -0.110 C  
HETATM    5  C   UNL     1      -9.196   5.723  71.128  1.00  0.00    -0.153 C  
HETATM    6  OXT UNL     1      -8.488   6.097  72.050  1.00  0.00    -0.120 OA 
HETATM    7  O   UNL     1     -10.475   5.296  71.294  1.00  0.00    -0.226 OA 
ENDROOT
BRANCH   4   8
HETATM    8  C   UNL     1      -8.086   6.956  69.194  1.00  0.00    -0.121 C  
BRANCH   8   9
HETATM    9  C   UNL     1      -9.044   8.043  68.754  1.00  0.00    -0.144 A  
HETATM   10  C   UNL     1      -9.641   8.884  69.710  1.00  0.00    -0.175 A  
HETATM   11  C   UNL     1     -10.582   9.826  69.309  1.00  0.00    -0.221 A  
HETATM   12  O   UNL     1     -11.198  10.654  70.205  1.00  0.00    -0.298 OA 
HETATM   13  C   UNL     1     -10.932   9.942  67.969  1.00  0.00    -0.213 A  
HETATM   14  H   UNL     1     -11.841  11.298  69.932  1.00  0.00     0.000 HD 
HETATM   15  O   UNL     1     -11.879  10.848  67.587  1.00  0.00    -0.632 OA 
HETATM   16  C   UNL     1     -10.336   9.140  67.008  1.00  0.00    -0.333 A  
HETATM   17  C   UNL     1      -9.384   8.196  67.399  1.00  0.00    -0.171 A  
HETATM   18  H   UNL     1     -12.118  10.927  66.671  1.00  0.00     0.000 HD 
ENDBRANCH   8   9
ENDBRANCH   4   8
TORSDOF 2
ENDMDL
MODEL      242
REMARK 921   NORMALIZED FREE ENERGY PREDICTED BY IDOCK:   -2.66 KCAL/MOL
REMARK 922        TOTAL FREE ENERGY PREDICTED BY IDOCK:   -3.16 KCAL/MOL
REMARK 923 INTER-LIGAND FREE ENERGY PREDICTED BY IDOCK:   -3.17 KCAL/MOL
REMARK 924 INTRA-LIGAND FREE ENERGY PREDICTED BY IDOCK:    0.01 KCAL/MOL
REMARK 927      BINDING AFFINITY PREDICTED BY RF-SCORE:    0.00 PKD
ROOT
HETATM    1  N   UNL     1      -8.273   2.969  70.641  1.00  0.00    -0.052 NA 
HETATM    2  H2  UNL     1      -8.140   2.957  69.630  1.00  0.00     0.000 HD 
HETATM    3  H1  UNL     1      -8.138   2.036  71.031  1.00  0.00     0.000 HD 
HETATM    4  CA  UNL     1      -7.415   4.023  71.271  1.00  0.00    -0.051 C  
HETATM    5  C   UNL     1      -7.643   4.008  72.793  1.00  0.00    -0.074 C  
HETATM    6  OXT UNL     1      -7.158   4.798  73.587  1.00  0.00    -0.069 OA 
HETATM    7  O   UNL     1      -8.450   2.979  73.163  1.00  0.00    -0.078 OA 
ENDROOT
BRANCH   4   8
HETATM    8  C   UNL     1      -7.618   5.433  70.682  1.00  0.00    -0.081 C  
BRANCH   8   9
HETATM    9  C   UNL     1      -9.053   5.916  70.691  1.00  0.00    -0.159 A  
HETATM   10  C   UNL     1      -9.593   6.496  71.853  1.00  0.00    -0.156 A  
HETATM   11  C   UNL     1     -10.934   6.862  71.882  1.00  0.00    -0.235 A  
HETATM   12  O   UNL     1     -11.505   7.415  72.994  1.00  0.00    -0.554 OA 
HETATM   13  C   UNL     1     -11.740   6.662  70.768  1.00  0.00    -0.388 A  
HETATM   14  H   UNL     1     -12.421   7.665  73.015  1.00  0.00     0.000 HD 
HETATM   15  O   UNL     1     -13.064   6.996  70.814  1.00  0.00    -0.551 OA 
HETATM   16  C   UNL     1     -11.221   6.117  69.604  1.00  0.00    -0.488 A  
HETATM   17  C   UNL     1      -9.874   5.752  69.562  1.00  0.00    -0.231 A  
HETATM   18  H   UNL     1     -13.615   6.859  70.053  1.00  0.00     0.000 HD 
ENDBRANCH   8   9
ENDBRANCH   4   8
TORSDOF 2
ENDMDL
MODEL      243
REMARK 921   NORMALIZED FREE ENERGY PREDICTED BY IDOCK:   -2.65 KCAL/MOL
REMARK 922        TOTAL FREE ENERGY PREDICTED BY IDOCK:   -3.14 KCAL/MOL
REMARK 923 INTER-LIGAND FREE ENERGY PREDICTED BY IDOCK:   -2.95 KCAL/MOL
REMARK 924 INTRA-LIGAND FREE ENERGY PREDICTED BY IDOCK:   -0.20 KCAL/MOL
REMARK 927      BINDING AFFINITY PREDICTED BY RF-SCORE:    0.00 PKD
ROOT
HETATM    1  N   UNL     1     -10.623  10.339  70.513  1.00  0.00    -0.421 NA 
HETATM    2  H2  UNL     1      -9.923   9.637  70.753  1.00  0.00     0.000 HD 
HETATM    3  H1  UNL     1     -10.479  11.189  71.059  1.00  0.00     0.000 HD 
HETATM    4  CA  UNL     1     -10.657  10.564  69.033  1.00  0.00    -0.222 C  
HETATM    5  C   UNL     1     -11.722  11.628  68.715  1.00  0.00    -0.330 C  
HETATM    6  OXT UNL     1     -12.056  11.978  67.594  1.00  0.00    -0.547 OA 
HETATM    7  O   UNL     1     -12.247  12.159  69.850  1.00  0.00    -0.251 OA 
ENDROOT
BRANCH   4   8
HETATM    8  C   UNL     1     -10.874   9.280  68.208  1.00  0.00    -0.132 C  
BRANCH   8   9
HETATM    9  C   UNL     1      -9.839   8.201  68.443  1.00  0.00    -0.186 A  
HETATM   10  C   UNL     1     -10.228   6.952  68.959  1.00  0.00    -0.189 A  
HETATM   11  C   UNL     1      -9.263   5.994  69.250  1.00  0.00    -0.127 A  
HETATM   12  O   UNL     1      -9.594   4.773  69.766  1.00  0.00    -0.142 OA 
HETATM   13  C   UNL     1      -7.917   6.264  69.028  1.00  0.00    -0.110 A  
HETATM   14  H   UNL     1      -8.936   4.118  69.965  1.00  0.00     0.000 HD 
HETATM   15  O   UNL     1      -6.973   5.329  69.345  1.00  0.00    -0.052 OA 
HETATM   16  C   UNL     1      -7.515   7.479  68.495  1.00  0.00    -0.108 A  
HETATM   17  C   UNL     1      -8.477   8.445  68.193  1.00  0.00    -0.132 A  
HETATM   18  H   UNL     1      -6.054   5.514  69.194  1.00  0.00     0.000 HD 
ENDBRANCH   8   9
ENDBRANCH   4   8
TORSDOF 2
ENDMDL
MODEL      244
REMARK 921   NORMALIZED FREE ENERGY PREDICTED BY IDOCK:   -2.65 KCAL/MOL
REMARK 922        TOTAL FREE ENERGY PREDICTED BY IDOCK:   -3.14 KCAL/MOL
REMARK 923 INTER-LIGAND FREE ENERGY PREDICTED BY IDOCK:   -2.95 KCAL/MOL
REMARK 924 INTRA-LIGAND FREE ENERGY PREDICTED BY IDOCK:   -0.20 KCAL/MOL
REMARK 927      BINDING AFFINITY PREDICTED BY RF-SCORE:    0.00 PKD
ROOT
HETATM    1  N   UNL     1     -12.066   6.723  69.972  1.00  0.00    -0.638 NA 
HETATM    2  H2  UNL     1     -11.865   6.069  69.216  1.00  0.00     0.000 HD 
HETATM    3  H1  UNL     1     -13.051   6.674  70.236  1.00  0.00     0.000 HD 
HETATM    4  CA  UNL     1     -11.119   6.514  71.114  1.00  0.00    -0.282 C  
HETATM    5  C   UNL     1     -11.457   7.517  72.232  1.00  0.00    -0.303 C  
HETATM    6  OXT UNL     1     -10.821   7.664  73.263  1.00  0.00    -0.394 OA 
HETATM    7  O   UNL     1     -12.581   8.223  71.941  1.00  0.00    -0.315 OA 
ENDROOT
BRANCH   4   8
HETATM    8  C   UNL     1      -9.632   6.588  70.716  1.00  0.00    -0.190 C  
BRANCH   8   9
HETATM    9  C   UNL     1      -8.998   5.250  70.403  1.00  0.00    -0.154 A  
HETATM   10  C   UNL     1      -7.778   5.194  69.707  1.00  0.00    -0.071 A  
HETATM   11  C   UNL     1      -7.243   3.961  69.349  1.00  0.00    -0.046 A  
HETATM   12  O   UNL     1      -6.067   3.860  68.659  1.00  0.00    -0.029 OA 
HETATM   13  C   UNL     1      -7.905   2.785  69.682  1.00  0.00    -0.042 A  
HETATM   14  H   UNL     1      -5.701   3.018  68.415  1.00  0.00     0.000 HD 
HETATM   15  O   UNL     1      -7.389   1.580  69.302  1.00  0.00    -0.036 OA 
HETATM   16  C   UNL     1      -9.096   2.818  70.392  1.00  0.00    -0.185 A  
HETATM   17  C   UNL     1      -9.638   4.050  70.761  1.00  0.00    -0.263 A  
HETATM   18  H   UNL     1      -7.842   0.776  69.529  1.00  0.00     0.000 HD 
ENDBRANCH   8   9
ENDBRANCH   4   8
TORSDOF 2
ENDMDL
MODEL      245
REMARK 921   NORMALIZED FREE ENERGY PREDICTED BY IDOCK:   -2.63 KCAL/MOL
REMARK 922        TOTAL FREE ENERGY PREDICTED BY IDOCK:   -3.13 KCAL/MOL
REMARK 923 INTER-LIGAND FREE ENERGY PREDICTED BY IDOCK:   -3.02 KCAL/MOL
REMARK 924 INTRA-LIGAND FREE ENERGY PREDICTED BY IDOCK:   -0.11 KCAL/MOL
REMARK 927      BINDING AFFINITY PREDICTED BY RF-SCORE:    0.00 PKD
ROOT
HETATM    1  N   UNL     1      -8.208   4.145  71.962  1.00  0.00    -0.091 NA 
HETATM    2  H2  UNL     1      -7.483   4.791  72.270  1.00  0.00     0.000 HD 
HETATM    3  H1  UNL     1      -7.797   3.360  71.454  1.00  0.00     0.000 HD 
HETATM    4  CA  UNL     1      -9.074   3.737  73.114  1.00  0.00    -0.102 C  
HETATM    5  C   UNL     1     -10.153   2.764  72.608  1.00  0.00    -0.159 C  
HETATM    6  OXT UNL     1     -11.067   2.312  73.280  1.00  0.00    -0.170 OA 
HETATM    7  O   UNL     1      -9.957   2.442  71.303  1.00  0.00    -0.123 OA 
ENDROOT
BRANCH   4   8
HETATM    8  C   UNL     1      -9.695   4.922  73.882  1.00  0.00    -0.152 C  
BRANCH   8   9
HETATM    9  C   UNL     1     -10.255   6.017  72.999  1.00  0.00    -0.210 A  
HETATM   10  C   UNL     1      -9.488   7.163  72.727  1.00  0.00    -0.176 A  
HETATM   11  C   UNL     1     -10.039   8.202  71.985  1.00  0.00    -0.237 A  
HETATM   12  O   UNL     1      -9.335   9.341  71.708  1.00  0.00    -0.309 OA 
HETATM   13  C   UNL     1     -11.341   8.110  71.507  1.00  0.00    -0.263 A  
HETATM   14  H   UNL     1      -9.711  10.051  71.201  1.00  0.00     0.000 HD 
HETATM   15  O   UNL     1     -11.885   9.147  70.805  1.00  0.00    -0.327 OA 
HETATM   16  C   UNL     1     -12.105   6.977  71.743  1.00  0.00    -0.371 A  
HETATM   17  C   UNL     1     -11.559   5.926  72.481  1.00  0.00    -0.327 A  
HETATM   18  H   UNL     1     -12.776   9.084  70.479  1.00  0.00     0.000 HD 
ENDBRANCH   8   9
ENDBRANCH   4   8
TORSDOF 2
ENDMDL
MODEL      246
REMARK 921   NORMALIZED FREE ENERGY PREDICTED BY IDOCK:   -2.62 KCAL/MOL
REMARK 922        TOTAL FREE ENERGY PREDICTED BY IDOCK:   -3.12 KCAL/MOL
REMARK 923 INTER-LIGAND FREE ENERGY PREDICTED BY IDOCK:   -3.08 KCAL/MOL
REMARK 924 INTRA-LIGAND FREE ENERGY PREDICTED BY IDOCK:   -0.04 KCAL/MOL
REMARK 927      BINDING AFFINITY PREDICTED BY RF-SCORE:    0.00 PKD
ROOT
HETATM    1  N   UNL     1      -9.501   3.813  69.094  1.00  0.00    -0.176 NA 
HETATM    2  H2  UNL     1     -10.458   3.669  68.773  1.00  0.00     0.000 HD 
HETATM    3  H1  UNL     1      -9.010   2.921  69.171  1.00  0.00     0.000 HD 
HETATM    4  CA  UNL     1      -8.802   4.820  68.234  1.00  0.00    -0.104 C  
HETATM    5  C   UNL     1      -7.365   5.008  68.751  1.00  0.00    -0.062 C  
HETATM    6  OXT UNL     1      -6.561   5.819  68.321  1.00  0.00    -0.048 OA 
HETATM    7  O   UNL     1      -7.080   4.133  69.752  1.00  0.00    -0.041 OA 
ENDROOT
BRANCH   4   8
HETATM    8  C   UNL     1      -9.543   6.167  68.118  1.00  0.00    -0.117 C  
BRANCH   8   9
HETATM    9  C   UNL     1     -10.194   6.638  69.401  1.00  0.00    -0.207 A  
HETATM   10  C   UNL     1      -9.479   7.453  70.296  1.00  0.00    -0.165 A  
HETATM   11  C   UNL     1     -10.052   7.814  71.510  1.00  0.00    -0.178 A  
HETATM   12  O   UNL     1      -9.389   8.593  72.416  1.00  0.00    -0.282 OA 
HETATM   13  C   UNL     1     -11.330   7.376  71.841  1.00  0.00    -0.260 A  
HETATM   14  H   UNL     1      -9.780   8.839  73.246  1.00  0.00     0.000 HD 
HETATM   15  O   UNL     1     -11.874   7.709  73.048  1.00  0.00    -0.606 OA 
HETATM   16  C   UNL     1     -12.062   6.593  70.961  1.00  0.00    -0.384 A  
HETATM   17  C   UNL     1     -11.498   6.231  69.736  1.00  0.00    -0.449 A  
HETATM   18  H   UNL     1     -12.747   7.409  73.274  1.00  0.00     0.000 HD 
ENDBRANCH   8   9
ENDBRANCH   4   8
TORSDOF 2
ENDMDL
MODEL      247
REMARK 921   NORMALIZED FREE ENERGY PREDICTED BY IDOCK:   -2.60 KCAL/MOL
REMARK 922        TOTAL FREE ENERGY PREDICTED BY IDOCK:   -3.09 KCAL/MOL
REMARK 923 INTER-LIGAND FREE ENERGY PREDICTED BY IDOCK:   -2.97 KCAL/MOL
REMARK 924 INTRA-LIGAND FREE ENERGY PREDICTED BY IDOCK:   -0.12 KCAL/MOL
REMARK 927      BINDING AFFINITY PREDICTED BY RF-SCORE:    0.00 PKD
ROOT
HETATM    1  N   UNL     1     -11.248   7.604  68.553  1.00  0.00    -0.278 NA 
HETATM    2  H2  UNL     1     -11.016   7.232  67.632  1.00  0.00     0.000 HD 
HETATM    3  H1  UNL     1     -12.125   8.125  68.518  1.00  0.00     0.000 HD 
HETATM    4  CA  UNL     1     -11.228   6.515  69.581  1.00  0.00    -0.384 C  
HETATM    5  C   UNL     1     -11.583   7.117  70.952  1.00  0.00    -0.311 C  
HETATM    6  OXT UNL     1     -11.573   6.512  72.012  1.00  0.00    -0.281 OA 
HETATM    7  O   UNL     1     -11.937   8.425  70.843  1.00  0.00    -0.270 OA 
ENDROOT
BRANCH   4   8
HETATM    8  C   UNL     1      -9.904   5.727  69.634  1.00  0.00    -0.230 C  
BRANCH   8   9
HETATM    9  C   UNL     1      -9.354   5.331  68.281  1.00  0.00    -0.143 A  
HETATM   10  C   UNL     1     -10.148   4.590  67.387  1.00  0.00    -0.117 A  
HETATM   11  C   UNL     1      -9.610   4.158  66.180  1.00  0.00    -0.196 A  
HETATM   12  O   UNL     1     -10.340   3.424  65.288  1.00  0.00    -0.386 OA 
HETATM   13  C   UNL     1      -8.293   4.460  65.851  1.00  0.00    -0.113 A  
HETATM   14  H   UNL     1      -9.973   3.129  64.464  1.00  0.00     0.000 HD 
HETATM   15  O   UNL     1      -7.762   4.006  64.678  1.00  0.00    -0.079 OA 
HETATM   16  C   UNL     1      -7.502   5.211  66.706  1.00  0.00    -0.087 A  
HETATM   17  C   UNL     1      -8.035   5.655  67.918  1.00  0.00    -0.097 A  
HETATM   18  H   UNL     1      -6.863   4.212  64.453  1.00  0.00     0.000 HD 
ENDBRANCH   8   9
ENDBRANCH   4   8
TORSDOF 2
ENDMDL
MODEL      248
REMARK 921   NORMALIZED FREE ENERGY PREDICTED BY IDOCK:   -2.58 KCAL/MOL
REMARK 922        TOTAL FREE ENERGY PREDICTED BY IDOCK:   -3.07 KCAL/MOL
REMARK 923 INTER-LIGAND FREE ENERGY PREDICTED BY IDOCK:   -2.90 KCAL/MOL
REMARK 924 INTRA-LIGAND FREE ENERGY PREDICTED BY IDOCK:   -0.17 KCAL/MOL
REMARK 927      BINDING AFFINITY PREDICTED BY RF-SCORE:    0.00 PKD
ROOT
HETATM    1  N   UNL     1     -11.993   7.497  70.093  1.00  0.00    -0.463 NA 
HETATM    2  H2  UNL     1     -11.950   6.982  69.213  1.00  0.00     0.000 HD 
HETATM    3  H1  UNL     1     -12.958   7.734  70.322  1.00  0.00     0.000 HD 
HETATM    4  CA  UNL     1     -11.276   6.749  71.175  1.00  0.00    -0.283 C  
HETATM    5  C   UNL     1     -11.364   7.557  72.482  1.00  0.00    -0.334 C  
HETATM    6  OXT UNL     1     -10.812   7.264  73.530  1.00  0.00    -0.375 OA 
HETATM    7  O   UNL     1     -12.161   8.648  72.337  1.00  0.00    -0.374 OA 
ENDROOT
BRANCH   4   8
HETATM    8  C   UNL     1      -9.818   6.390  70.828  1.00  0.00    -0.206 C  
BRANCH   8   9
HETATM    9  C   UNL     1      -9.287   5.164  71.541  1.00  0.00    -0.187 A  
HETATM   10  C   UNL     1      -8.001   5.182  72.111  1.00  0.00    -0.112 A  
HETATM   11  C   UNL     1      -7.487   4.028  72.691  1.00  0.00    -0.072 A  
HETATM   12  O   UNL     1      -6.237   3.996  73.243  1.00  0.00    -0.018 OA 
HETATM   13  C   UNL     1      -8.239   2.860  72.715  1.00  0.00    -0.071 A  
HETATM   14  H   UNL     1      -5.885   3.208  73.640  1.00  0.00     0.000 HD 
HETATM   15  O   UNL     1      -7.715   1.722  73.260  1.00  0.00    -0.039 OA 
HETATM   16  C   UNL     1      -9.519   2.828  72.183  1.00  0.00    -0.185 A  
HETATM   17  C   UNL     1     -10.047   3.983  71.604  1.00  0.00    -0.183 A  
HETATM   18  H   UNL     1      -8.230   0.923  73.276  1.00  0.00     0.000 HD 
ENDBRANCH   8   9
ENDBRANCH   4   8
TORSDOF 2
ENDMDL
MODEL      249
REMARK 921   NORMALIZED FREE ENERGY PREDICTED BY IDOCK:   -2.58 KCAL/MOL
REMARK 922        TOTAL FREE ENERGY PREDICTED BY IDOCK:   -3.07 KCAL/MOL
REMARK 923 INTER-LIGAND FREE ENERGY PREDICTED BY IDOCK:   -2.87 KCAL/MOL
REMARK 924 INTRA-LIGAND FREE ENERGY PREDICTED BY IDOCK:   -0.20 KCAL/MOL
REMARK 927      BINDING AFFINITY PREDICTED BY RF-SCORE:    0.00 PKD
ROOT
HETATM    1  N   UNL     1      -9.168  10.971  63.571  1.00  0.00    -0.316 NA 
HETATM    2  H2  UNL     1      -9.275  11.922  63.219  1.00  0.00     0.000 HD 
HETATM    3  H1  UNL     1      -8.404  10.496  63.090  1.00  0.00     0.000 HD 
HETATM    4  CA  UNL     1      -9.041  10.974  65.063  1.00  0.00    -0.164 C  
HETATM    5  C   UNL     1      -8.881   9.524  65.553  1.00  0.00    -0.168 C  
HETATM    6  OXT UNL     1      -8.837   9.175  66.722  1.00  0.00    -0.124 OA 
HETATM    7  O   UNL     1      -8.773   8.658  64.512  1.00  0.00    -0.125 OA 
ENDROOT
BRANCH   4   8
HETATM    8  C   UNL     1     -10.195  11.693  65.789  1.00  0.00    -0.281 C  
BRANCH   8   9
HETATM    9  C   UNL     1      -9.753  12.755  66.775  1.00  0.00    -0.243 A  
HETATM   10  C   UNL     1     -10.312  14.043  66.720  1.00  0.00    -0.271 A  
HETATM   11  C   UNL     1      -9.843  15.037  67.572  1.00  0.00    -0.217 A  
HETATM   12  O   UNL     1     -10.346  16.307  67.544  1.00  0.00    -0.275 OA 
HETATM   13  C   UNL     1      -8.828  14.759  68.481  1.00  0.00    -0.176 A  
HETATM   14  H   UNL     1     -10.026  16.986  68.126  1.00  0.00     0.000 HD 
HETATM   15  O   UNL     1      -8.352  15.747  69.295  1.00  0.00    -0.231 OA 
HETATM   16  C   UNL     1      -8.282  13.488  68.570  1.00  0.00    -0.104 A  
HETATM   17  C   UNL     1      -8.751  12.482  67.722  1.00  0.00    -0.178 A  
HETATM   18  H   UNL     1      -7.658  15.558  69.915  1.00  0.00     0.000 HD 
ENDBRANCH   8   9
ENDBRANCH   4   8
TORSDOF 2
ENDMDL
MODEL      250
REMARK 921   NORMALIZED FREE ENERGY PREDICTED BY IDOCK:   -2.58 KCAL/MOL
REMARK 922        TOTAL FREE ENERGY PREDICTED BY IDOCK:   -3.06 KCAL/MOL
REMARK 923 INTER-LIGAND FREE ENERGY PREDICTED BY IDOCK:   -3.06 KCAL/MOL
REMARK 924 INTRA-LIGAND FREE ENERGY PREDICTED BY IDOCK:   -0.00 KCAL/MOL
REMARK 927      BINDING AFFINITY PREDICTED BY RF-SCORE:    0.00 PKD
ROOT
HETATM    1  N   UNL     1      -9.566  10.496  68.481  1.00  0.00    -0.156 NA 
HETATM    2  H2  UNL     1      -9.646  11.263  69.148  1.00  0.00     0.000 HD 
HETATM    3  H1  UNL     1      -9.706  10.834  67.529  1.00  0.00     0.000 HD 
HETATM    4  CA  UNL     1      -8.280   9.756  68.683  1.00  0.00    -0.106 C  
HETATM    5  C   UNL     1      -8.199   8.609  67.659  1.00  0.00    -0.110 C  
HETATM    6  OXT UNL     1      -7.316   7.768  67.611  1.00  0.00    -0.088 OA 
HETATM    7  O   UNL     1      -9.236   8.654  66.781  1.00  0.00    -0.151 OA 
ENDROOT
BRANCH   4   8
HETATM    8  C   UNL     1      -8.070   9.245  70.122  1.00  0.00    -0.152 C  
BRANCH   8   9
HETATM    9  C   UNL     1      -9.272   8.551  70.725  1.00  0.00    -0.204 A  
HETATM   10  C   UNL     1      -9.745   7.350  70.167  1.00  0.00    -0.175 A  
HETATM   11  C   UNL     1     -10.898   6.760  70.672  1.00  0.00    -0.250 A  
HETATM   12  O   UNL     1     -11.402   5.601  70.151  1.00  0.00    -0.179 OA 
HETATM   13  C   UNL     1     -11.583   7.350  71.728  1.00  0.00    -0.272 A  
HETATM   14  H   UNL     1     -12.190   5.198  70.496  1.00  0.00     0.000 HD 
HETATM   15  O   UNL     1     -12.732   6.782  72.199  1.00  0.00    -0.531 OA 
HETATM   16  C   UNL     1     -11.119   8.520  72.310  1.00  0.00    -0.430 A  
HETATM   17  C   UNL     1      -9.958   9.116  71.814  1.00  0.00    -0.257 A  
HETATM   18  H   UNL     1     -13.199   7.185  72.921  1.00  0.00     0.000 HD 
ENDBRANCH   8   9
ENDBRANCH   4   8
TORSDOF 2
ENDMDL
MODEL      251
REMARK 921   NORMALIZED FREE ENERGY PREDICTED BY IDOCK:   -2.57 KCAL/MOL
REMARK 922        TOTAL FREE ENERGY PREDICTED BY IDOCK:   -3.06 KCAL/MOL
REMARK 923 INTER-LIGAND FREE ENERGY PREDICTED BY IDOCK:   -3.15 KCAL/MOL
REMARK 924 INTRA-LIGAND FREE ENERGY PREDICTED BY IDOCK:    0.08 KCAL/MOL
REMARK 927      BINDING AFFINITY PREDICTED BY RF-SCORE:    0.00 PKD
ROOT
HETATM    1  N   UNL     1      -7.488   5.546  70.988  1.00  0.00    -0.086 NA 
HETATM    2  H2  UNL     1      -7.198   6.266  71.650  1.00  0.00     0.000 HD 
HETATM    3  H1  UNL     1      -6.761   5.390  70.289  1.00  0.00     0.000 HD 
HETATM    4  CA  UNL     1      -7.915   4.306  71.712  1.00  0.00    -0.087 C  
HETATM    5  C   UNL     1      -8.342   3.249  70.679  1.00  0.00    -0.056 C  
HETATM    6  OXT UNL     1      -8.821   2.157  70.944  1.00  0.00    -0.059 OA 
HETATM    7  O   UNL     1      -8.103   3.670  69.409  1.00  0.00    -0.054 OA 
ENDROOT
BRANCH   4   8
HETATM    8  C   UNL     1      -9.012   4.543  72.768  1.00  0.00    -0.128 C  
BRANCH   8   9
HETATM    9  C   UNL     1     -10.002   5.632  72.412  1.00  0.00    -0.198 A  
HETATM   10  C   UNL     1     -10.690   5.585  71.187  1.00  0.00    -0.280 A  
HETATM   11  C   UNL     1     -11.535   6.629  70.829  1.00  0.00    -0.353 A  
HETATM   12  O   UNL     1     -12.213   6.632  69.642  1.00  0.00    -0.514 OA 
HETATM   13  C   UNL     1     -11.706   7.716  71.678  1.00  0.00    -0.281 A  
HETATM   14  H   UNL     1     -12.791   7.346  69.397  1.00  0.00     0.000 HD 
HETATM   15  O   UNL     1     -12.514   8.753  71.306  1.00  0.00    -0.322 OA 
HETATM   16  C   UNL     1     -11.057   7.770  72.902  1.00  0.00    -0.457 A  
HETATM   17  C   UNL     1     -10.211   6.723  73.274  1.00  0.00    -0.271 A  
HETATM   18  H   UNL     1     -12.630   9.496  71.887  1.00  0.00     0.000 HD 
ENDBRANCH   8   9
ENDBRANCH   4   8
TORSDOF 2
ENDMDL
MODEL      252
REMARK 921   NORMALIZED FREE ENERGY PREDICTED BY IDOCK:   -2.57 KCAL/MOL
REMARK 922        TOTAL FREE ENERGY PREDICTED BY IDOCK:   -3.06 KCAL/MOL
REMARK 923 INTER-LIGAND FREE ENERGY PREDICTED BY IDOCK:   -2.83 KCAL/MOL
REMARK 924 INTRA-LIGAND FREE ENERGY PREDICTED BY IDOCK:   -0.22 KCAL/MOL
REMARK 927      BINDING AFFINITY PREDICTED BY RF-SCORE:    0.00 PKD
ROOT
HETATM    1  N   UNL     1     -12.010   8.714  70.513  1.00  0.00    -0.483 NA 
HETATM    2  H2  UNL     1     -12.109   9.656  70.134  1.00  0.00     0.000 HD 
HETATM    3  H1  UNL     1     -12.837   8.155  70.303  1.00  0.00     0.000 HD 
HETATM    4  CA  UNL     1     -10.724   8.096  70.055  1.00  0.00    -0.243 C  
HETATM    5  C   UNL     1     -10.614   6.679  70.647  1.00  0.00    -0.227 C  
HETATM    6  OXT UNL     1      -9.648   5.941  70.533  1.00  0.00    -0.167 OA 
HETATM    7  O   UNL     1     -11.747   6.328  71.308  1.00  0.00    -0.310 OA 
ENDROOT
BRANCH   4   8
HETATM    8  C   UNL     1      -9.474   8.941  70.372  1.00  0.00    -0.227 C  
BRANCH   8   9
HETATM    9  C   UNL     1      -8.770   9.500  69.154  1.00  0.00    -0.146 A  
HETATM   10  C   UNL     1      -7.824  10.531  69.299  1.00  0.00    -0.144 A  
HETATM   11  C   UNL     1      -7.242  11.097  68.170  1.00  0.00    -0.080 A  
HETATM   12  O   UNL     1      -6.329  12.110  68.263  1.00  0.00    -0.050 OA 
HETATM   13  C   UNL     1      -7.586  10.645  66.902  1.00  0.00    -0.115 A  
HETATM   14  H   UNL     1      -5.931  12.497  67.493  1.00  0.00     0.000 HD 
HETATM   15  O   UNL     1      -7.032  11.227  65.797  1.00  0.00    -0.371 OA 
HETATM   16  C   UNL     1      -8.496   9.613  66.738  1.00  0.00    -0.129 A  
HETATM   17  C   UNL     1      -9.082   9.033  67.865  1.00  0.00    -0.141 A  
HETATM   18  H   UNL     1      -7.268  10.919  64.930  1.00  0.00     0.000 HD 
ENDBRANCH   8   9
ENDBRANCH   4   8
TORSDOF 2
ENDMDL
MODEL      253
REMARK 921   NORMALIZED FREE ENERGY PREDICTED BY IDOCK:   -2.55 KCAL/MOL
REMARK 922        TOTAL FREE ENERGY PREDICTED BY IDOCK:   -3.03 KCAL/MOL
REMARK 923 INTER-LIGAND FREE ENERGY PREDICTED BY IDOCK:   -2.93 KCAL/MOL
REMARK 924 INTRA-LIGAND FREE ENERGY PREDICTED BY IDOCK:   -0.10 KCAL/MOL
REMARK 927      BINDING AFFINITY PREDICTED BY RF-SCORE:    0.00 PKD
ROOT
HETATM    1  N   UNL     1     -10.103   5.461  70.100  1.00  0.00    -0.229 NA 
HETATM    2  H2  UNL     1      -9.231   4.970  69.904  1.00  0.00     0.000 HD 
HETATM    3  H1  UNL     1     -10.821   4.806  70.412  1.00  0.00     0.000 HD 
HETATM    4  CA  UNL     1      -9.865   6.598  71.045  1.00  0.00    -0.182 C  
HETATM    5  C   UNL     1     -11.202   7.311  71.315  1.00  0.00    -0.256 C  
HETATM    6  OXT UNL     1     -11.339   8.328  71.976  1.00  0.00    -0.280 OA 
HETATM    7  O   UNL     1     -12.240   6.653  70.735  1.00  0.00    -0.378 OA 
ENDROOT
BRANCH   4   8
HETATM    8  C   UNL     1      -8.780   7.588  70.575  1.00  0.00    -0.146 C  
BRANCH   8   9
HETATM    9  C   UNL     1      -8.716   7.783  69.075  1.00  0.00    -0.135 A  
HETATM   10  C   UNL     1      -9.575   8.702  68.447  1.00  0.00    -0.157 A  
HETATM   11  C   UNL     1      -9.570   8.817  67.062  1.00  0.00    -0.179 A  
HETATM   12  O   UNL     1     -10.398   9.686  66.408  1.00  0.00    -0.237 OA 
HETATM   13  C   UNL     1      -8.715   8.031  66.296  1.00  0.00    -0.153 A  
HETATM   14  H   UNL     1     -10.394   9.764  65.461  1.00  0.00     0.000 HD 
HETATM   15  O   UNL     1      -8.736   8.128  64.934  1.00  0.00    -0.373 OA 
HETATM   16  C   UNL     1      -7.842   7.139  66.897  1.00  0.00    -0.107 A  
HETATM   17  C   UNL     1      -7.835   7.021  68.289  1.00  0.00    -0.118 A  
HETATM   18  H   UNL     1      -8.153   7.591  64.411  1.00  0.00     0.000 HD 
ENDBRANCH   8   9
ENDBRANCH   4   8
TORSDOF 2
ENDMDL
MODEL      254
REMARK 921   NORMALIZED FREE ENERGY PREDICTED BY IDOCK:   -2.53 KCAL/MOL
REMARK 922        TOTAL FREE ENERGY PREDICTED BY IDOCK:   -3.01 KCAL/MOL
REMARK 923 INTER-LIGAND FREE ENERGY PREDICTED BY IDOCK:   -2.82 KCAL/MOL
REMARK 924 INTRA-LIGAND FREE ENERGY PREDICTED BY IDOCK:   -0.19 KCAL/MOL
REMARK 927      BINDING AFFINITY PREDICTED BY RF-SCORE:    0.00 PKD
ROOT
HETATM    1  N   UNL     1     -10.633  11.979  68.544  1.00  0.00    -0.225 NA 
HETATM    2  H2  UNL     1     -10.090  11.964  67.681  1.00  0.00     0.000 HD 
HETATM    3  H1  UNL     1     -11.544  12.412  68.387  1.00  0.00     0.000 HD 
HETATM    4  CA  UNL     1     -10.706  10.608  69.144  1.00  0.00    -0.228 C  
HETATM    5  C   UNL     1     -11.531  10.674  70.441  1.00  0.00    -0.334 C  
HETATM    6  OXT UNL     1     -11.708   9.745  71.212  1.00  0.00    -0.339 OA 
HETATM    7  O   UNL     1     -12.069  11.909  70.624  1.00  0.00    -0.373 OA 
ENDROOT
BRANCH   4   8
HETATM    8  C   UNL     1      -9.330   9.954  69.381  1.00  0.00    -0.226 C  
BRANCH   8   9
HETATM    9  C   UNL     1      -8.996   8.831  68.422  1.00  0.00    -0.141 A  
HETATM   10  C   UNL     1      -8.079   7.833  68.798  1.00  0.00    -0.126 A  
HETATM   11  C   UNL     1      -7.713   6.852  67.884  1.00  0.00    -0.112 A  
HETATM   12  O   UNL     1      -6.814   5.871  68.201  1.00  0.00    -0.062 OA 
HETATM   13  C   UNL     1      -8.253   6.849  66.603  1.00  0.00    -0.115 A  
HETATM   14  H   UNL     1      -6.564   5.201  67.577  1.00  0.00     0.000 HD 
HETATM   15  O   UNL     1      -7.866   5.899  65.701  1.00  0.00    -0.093 OA 
HETATM   16  C   UNL     1      -9.179   7.808  66.221  1.00  0.00    -0.217 A  
HETATM   17  C   UNL     1      -9.558   8.794  67.134  1.00  0.00    -0.228 A  
HETATM   18  H   UNL     1      -8.236   5.898  64.826  1.00  0.00     0.000 HD 
ENDBRANCH   8   9
ENDBRANCH   4   8
TORSDOF 2
ENDMDL
MODEL      255
REMARK 921   NORMALIZED FREE ENERGY PREDICTED BY IDOCK:   -2.52 KCAL/MOL
REMARK 922        TOTAL FREE ENERGY PREDICTED BY IDOCK:   -3.00 KCAL/MOL
REMARK 923 INTER-LIGAND FREE ENERGY PREDICTED BY IDOCK:   -2.75 KCAL/MOL
REMARK 924 INTRA-LIGAND FREE ENERGY PREDICTED BY IDOCK:   -0.25 KCAL/MOL
REMARK 927      BINDING AFFINITY PREDICTED BY RF-SCORE:    0.00 PKD
ROOT
HETATM    1  N   UNL     1      -7.491   8.823  66.735  1.00  0.00    -0.085 NA 
HETATM    2  H2  UNL     1      -8.374   9.233  66.435  1.00  0.00     0.000 HD 
HETATM    3  H1  UNL     1      -6.758   9.532  66.765  1.00  0.00     0.000 HD 
HETATM    4  CA  UNL     1      -7.668   8.075  68.020  1.00  0.00    -0.118 C  
HETATM    5  C   UNL     1      -6.314   7.472  68.437  1.00  0.00    -0.044 C  
HETATM    6  OXT UNL     1      -6.135   6.736  69.394  1.00  0.00    -0.024 OA 
HETATM    7  O   UNL     1      -5.315   7.879  67.611  1.00  0.00    -0.030 OA 
ENDROOT
BRANCH   4   8
HETATM    8  C   UNL     1      -8.775   7.003  67.975  1.00  0.00    -0.126 C  
BRANCH   8   9
HETATM    9  C   UNL     1      -9.849   7.165  69.030  1.00  0.00    -0.156 A  
HETATM   10  C   UNL     1      -9.729   8.165  70.010  1.00  0.00    -0.172 A  
HETATM   11  C   UNL     1     -10.675   8.255  71.025  1.00  0.00    -0.218 A  
HETATM   12  O   UNL     1     -10.590   9.202  72.007  1.00  0.00    -0.333 OA 
HETATM   13  C   UNL     1     -11.742   7.365  71.070  1.00  0.00    -0.297 A  
HETATM   14  H   UNL     1     -11.236   9.265  72.700  1.00  0.00     0.000 HD 
HETATM   15  O   UNL     1     -12.651   7.441  72.086  1.00  0.00    -0.454 OA 
HETATM   16  C   UNL     1     -11.893   6.388  70.098  1.00  0.00    -0.254 A  
HETATM   17  C   UNL     1     -10.952   6.294  69.071  1.00  0.00    -0.437 A  
HETATM   18  H   UNL     1     -13.380   6.832  72.117  1.00  0.00     0.000 HD 
ENDBRANCH   8   9
ENDBRANCH   4   8
TORSDOF 2
ENDMDL
MODEL      256
REMARK 921   NORMALIZED FREE ENERGY PREDICTED BY IDOCK:   -2.51 KCAL/MOL
REMARK 922        TOTAL FREE ENERGY PREDICTED BY IDOCK:   -2.99 KCAL/MOL
REMARK 923 INTER-LIGAND FREE ENERGY PREDICTED BY IDOCK:   -2.99 KCAL/MOL
REMARK 924 INTRA-LIGAND FREE ENERGY PREDICTED BY IDOCK:   -0.00 KCAL/MOL
REMARK 927      BINDING AFFINITY PREDICTED BY RF-SCORE:    0.00 PKD
ROOT
HETATM    1  N   UNL     1     -11.321   6.315  69.122  1.00  0.00    -0.533 NA 
HETATM    2  H2  UNL     1     -12.290   6.630  69.094  1.00  0.00     0.000 HD 
HETATM    3  H1  UNL     1     -11.207   5.568  69.809  1.00  0.00     0.000 HD 
HETATM    4  CA  UNL     1     -10.844   5.956  67.749  1.00  0.00    -0.235 C  
HETATM    5  C   UNL     1      -9.381   5.486  67.835  1.00  0.00    -0.110 C  
HETATM    6  OXT UNL     1      -8.674   5.202  66.881  1.00  0.00    -0.109 OA 
HETATM    7  O   UNL     1      -8.963   5.403  69.125  1.00  0.00    -0.103 OA 
ENDROOT
BRANCH   4   8
HETATM    8  C   UNL     1     -11.017   7.083  66.711  1.00  0.00    -0.123 C  
BRANCH   8   9
HETATM    9  C   UNL     1     -10.118   8.282  66.930  1.00  0.00    -0.366 A  
HETATM   10  C   UNL     1     -10.345   9.142  68.019  1.00  0.00    -0.272 A  
HETATM   11  C   UNL     1      -9.569  10.287  68.168  1.00  0.00    -0.140 A  
HETATM   12  O   UNL     1      -9.764  11.159  69.202  1.00  0.00    -0.374 OA 
HETATM   13  C   UNL     1      -8.568  10.580  67.249  1.00  0.00    -0.122 A  
HETATM   14  H   UNL     1      -9.234  11.940  69.304  1.00  0.00     0.000 HD 
HETATM   15  O   UNL     1      -7.830  11.721  67.386  1.00  0.00    -0.137 OA 
HETATM   16  C   UNL     1      -8.310   9.730  66.184  1.00  0.00    -0.122 A  
HETATM   17  C   UNL     1      -9.080   8.576  66.029  1.00  0.00    -0.246 A  
HETATM   18  H   UNL     1      -7.146  11.921  66.757  1.00  0.00     0.000 HD 
ENDBRANCH   8   9
ENDBRANCH   4   8
TORSDOF 2
ENDMDL
MODEL      257
REMARK 921   NORMALIZED FREE ENERGY PREDICTED BY IDOCK:   -2.48 KCAL/MOL
REMARK 922        TOTAL FREE ENERGY PREDICTED BY IDOCK:   -2.95 KCAL/MOL
REMARK 923 INTER-LIGAND FREE ENERGY PREDICTED BY IDOCK:   -2.85 KCAL/MOL
REMARK 924 INTRA-LIGAND FREE ENERGY PREDICTED BY IDOCK:   -0.10 KCAL/MOL
REMARK 927      BINDING AFFINITY PREDICTED BY RF-SCORE:    0.00 PKD
ROOT
HETATM    1  N   UNL     1     -11.460   6.946  67.813  1.00  0.00    -0.514 NA 
HETATM    2  H2  UNL     1     -11.521   6.673  66.832  1.00  0.00     0.000 HD 
HETATM    3  H1  UNL     1     -12.388   6.976  68.235  1.00  0.00     0.000 HD 
HETATM    4  CA  UNL     1     -10.487   6.071  68.542  1.00  0.00    -0.234 C  
HETATM    5  C   UNL     1     -10.425   6.514  70.015  1.00  0.00    -0.212 C  
HETATM    6  OXT UNL     1      -9.667   6.059  70.856  1.00  0.00    -0.170 OA 
HETATM    7  O   UNL     1     -11.344   7.478  70.281  1.00  0.00    -0.268 OA 
ENDROOT
BRANCH   4   8
HETATM    8  C   UNL     1      -9.085   6.025  67.904  1.00  0.00    -0.117 C  
BRANCH   8   9
HETATM    9  C   UNL     1      -8.703   7.272  67.135  1.00  0.00    -0.121 A  
HETATM   10  C   UNL     1      -8.938   7.345  65.751  1.00  0.00    -0.061 A  
HETATM   11  C   UNL     1      -8.511   8.458  65.035  1.00  0.00    -0.141 A  
HETATM   12  O   UNL     1      -8.705   8.565  63.687  1.00  0.00    -0.420 OA 
HETATM   13  C   UNL     1      -7.858   9.500  65.684  1.00  0.00    -0.101 A  
HETATM   14  H   UNL     1      -8.413   9.325  63.198  1.00  0.00     0.000 HD 
HETATM   15  O   UNL     1      -7.414  10.576  64.969  1.00  0.00    -0.274 OA 
HETATM   16  C   UNL     1      -7.640   9.459  67.052  1.00  0.00    -0.091 A  
HETATM   17  C   UNL     1      -8.071   8.349  67.780  1.00  0.00    -0.122 A  
HETATM   18  H   UNL     1      -6.967  11.288  65.413  1.00  0.00     0.000 HD 
ENDBRANCH   8   9
ENDBRANCH   4   8
TORSDOF 2
ENDMDL
MODEL      258
REMARK 921   NORMALIZED FREE ENERGY PREDICTED BY IDOCK:   -2.47 KCAL/MOL
REMARK 922        TOTAL FREE ENERGY PREDICTED BY IDOCK:   -2.94 KCAL/MOL
REMARK 923 INTER-LIGAND FREE ENERGY PREDICTED BY IDOCK:   -2.94 KCAL/MOL
REMARK 924 INTRA-LIGAND FREE ENERGY PREDICTED BY IDOCK:   -0.00 KCAL/MOL
REMARK 927      BINDING AFFINITY PREDICTED BY RF-SCORE:    0.00 PKD
ROOT
HETATM    1  N   UNL     1      -8.791   5.044  68.093  1.00  0.00    -0.102 NA 
HETATM    2  H2  UNL     1      -9.344   5.220  67.254  1.00  0.00     0.000 HD 
HETATM    3  H1  UNL     1      -8.377   4.112  68.060  1.00  0.00     0.000 HD 
HETATM    4  CA  UNL     1      -7.799   6.145  68.309  1.00  0.00    -0.104 C  
HETATM    5  C   UNL     1      -6.987   5.842  69.580  1.00  0.00    -0.063 C  
HETATM    6  OXT UNL     1      -6.155   6.583  70.079  1.00  0.00    -0.028 OA 
HETATM    7  O   UNL     1      -7.295   4.619  70.086  1.00  0.00    -0.049 OA 
ENDROOT
BRANCH   4   8
HETATM    8  C   UNL     1      -8.425   7.553  68.358  1.00  0.00    -0.125 C  
BRANCH   8   9
HETATM    9  C   UNL     1      -9.340   7.792  69.540  1.00  0.00    -0.149 A  
HETATM   10  C   UNL     1     -10.621   7.214  69.567  1.00  0.00    -0.247 A  
HETATM   11  C   UNL     1     -11.488   7.504  70.614  1.00  0.00    -0.269 A  
HETATM   12  O   UNL     1     -12.748   6.976  70.673  1.00  0.00    -0.600 OA 
HETATM   13  C   UNL     1     -11.092   8.358  71.637  1.00  0.00    -0.278 A  
HETATM   14  H   UNL     1     -13.340   7.174  71.389  1.00  0.00     0.000 HD 
HETATM   15  O   UNL     1     -11.960   8.662  72.647  1.00  0.00    -0.340 OA 
HETATM   16  C   UNL     1      -9.824   8.917  71.643  1.00  0.00    -0.387 A  
HETATM   17  C   UNL     1      -8.943   8.627  70.599  1.00  0.00    -0.199 A  
HETATM   18  H   UNL     1     -11.688   9.245  73.346  1.00  0.00     0.000 HD 
ENDBRANCH   8   9
ENDBRANCH   4   8
TORSDOF 2
ENDMDL
MODEL      259
REMARK 921   NORMALIZED FREE ENERGY PREDICTED BY IDOCK:   -2.46 KCAL/MOL
REMARK 922        TOTAL FREE ENERGY PREDICTED BY IDOCK:   -2.93 KCAL/MOL
REMARK 923 INTER-LIGAND FREE ENERGY PREDICTED BY IDOCK:   -2.75 KCAL/MOL
REMARK 924 INTRA-LIGAND FREE ENERGY PREDICTED BY IDOCK:   -0.18 KCAL/MOL
REMARK 927      BINDING AFFINITY PREDICTED BY RF-SCORE:    0.00 PKD
ROOT
HETATM    1  N   UNL     1     -10.219   9.286  65.855  1.00  0.00    -0.310 NA 
HETATM    2  H2  UNL     1     -10.229   8.289  66.066  1.00  0.00     0.000 HD 
HETATM    3  H1  UNL     1     -10.713   9.473  64.982  1.00  0.00     0.000 HD 
HETATM    4  CA  UNL     1     -10.724  10.077  67.022  1.00  0.00    -0.178 C  
HETATM    5  C   UNL     1     -10.692  11.573  66.662  1.00  0.00    -0.268 C  
HETATM    6  OXT UNL     1     -10.960  12.488  67.425  1.00  0.00    -0.242 OA 
HETATM    7  O   UNL     1     -10.341  11.763  65.363  1.00  0.00    -0.247 OA 
ENDROOT
BRANCH   4   8
HETATM    8  C   UNL     1      -9.977   9.796  68.341  1.00  0.00    -0.176 C  
BRANCH   8   9
HETATM    9  C   UNL     1      -9.964   8.340  68.757  1.00  0.00    -0.193 A  
HETATM   10  C   UNL     1      -8.782   7.586  68.648  1.00  0.00    -0.128 A  
HETATM   11  C   UNL     1      -8.797   6.230  68.952  1.00  0.00    -0.124 A  
HETATM   12  O   UNL     1      -7.675   5.456  68.847  1.00  0.00    -0.081 OA 
HETATM   13  C   UNL     1      -9.974   5.618  69.369  1.00  0.00    -0.197 A  
HETATM   14  H   UNL     1      -7.685   4.529  69.055  1.00  0.00     0.000 HD 
HETATM   15  O   UNL     1      -9.988   4.279  69.638  1.00  0.00    -0.214 OA 
HETATM   16  C   UNL     1     -11.143   6.348  69.509  1.00  0.00    -0.460 A  
HETATM   17  C   UNL     1     -11.137   7.712  69.211  1.00  0.00     0.066 A  
HETATM   18  H   UNL     1     -10.792   3.860  69.922  1.00  0.00     0.000 HD 
ENDBRANCH   8   9
ENDBRANCH   4   8
TORSDOF 2
ENDMDL
MODEL      260
REMARK 921   NORMALIZED FREE ENERGY PREDICTED BY IDOCK:   -2.45 KCAL/MOL
REMARK 922        TOTAL FREE ENERGY PREDICTED BY IDOCK:   -2.92 KCAL/MOL
REMARK 923 INTER-LIGAND FREE ENERGY PREDICTED BY IDOCK:   -2.70 KCAL/MOL
REMARK 924 INTRA-LIGAND FREE ENERGY PREDICTED BY IDOCK:   -0.22 KCAL/MOL
REMARK 927      BINDING AFFINITY PREDICTED BY RF-SCORE:    0.00 PKD
ROOT
HETATM    1  N   UNL     1      -9.332  13.381  67.426  1.00  0.00    -0.212 NA 
HETATM    2  H2  UNL     1      -9.954  13.956  66.858  1.00  0.00     0.000 HD 
HETATM    3  H1  UNL     1      -9.092  12.519  66.936  1.00  0.00     0.000 HD 
HETATM    4  CA  UNL     1      -8.145  14.177  67.875  1.00  0.00    -0.154 C  
HETATM    5  C   UNL     1      -7.233  13.276  68.727  1.00  0.00    -0.088 C  
HETATM    6  OXT UNL     1      -6.227  13.642  69.312  1.00  0.00    -0.092 OA 
HETATM    7  O   UNL     1      -7.677  11.991  68.738  1.00  0.00    -0.118 OA 
ENDROOT
BRANCH   4   8
HETATM    8  C   UNL     1      -8.506  15.479  68.617  1.00  0.00    -0.174 C  
BRANCH   8   9
HETATM    9  C   UNL     1      -7.841  16.722  68.064  1.00  0.00    -0.178 A  
HETATM   10  C   UNL     1      -7.130  17.580  68.921  1.00  0.00    -0.253 A  
HETATM   11  C   UNL     1      -6.592  18.762  68.424  1.00  0.00    -0.233 A  
HETATM   12  O   UNL     1      -5.906  19.633  69.223  1.00  0.00    -0.229 OA 
HETATM   13  C   UNL     1      -6.750  19.095  67.083  1.00  0.00    -0.197 A  
HETATM   14  H   UNL     1      -5.538  20.440  68.884  1.00  0.00     0.000 HD 
HETATM   15  O   UNL     1      -6.245  20.272  66.609  1.00  0.00    -0.175 OA 
HETATM   16  C   UNL     1      -7.425  18.250  66.216  1.00  0.00    -0.295 A  
HETATM   17  C   UNL     1      -7.963  17.058  66.704  1.00  0.00    -0.302 A  
HETATM   18  H   UNL     1      -6.353  20.500  65.693  1.00  0.00     0.000 HD 
ENDBRANCH   8   9
ENDBRANCH   4   8
TORSDOF 2
ENDMDL
MODEL      261
REMARK 921   NORMALIZED FREE ENERGY PREDICTED BY IDOCK:   -2.44 KCAL/MOL
REMARK 922        TOTAL FREE ENERGY PREDICTED BY IDOCK:   -2.91 KCAL/MOL
REMARK 923 INTER-LIGAND FREE ENERGY PREDICTED BY IDOCK:   -2.74 KCAL/MOL
REMARK 924 INTRA-LIGAND FREE ENERGY PREDICTED BY IDOCK:   -0.17 KCAL/MOL
REMARK 927      BINDING AFFINITY PREDICTED BY RF-SCORE:    0.00 PKD
ROOT
HETATM    1  N   UNL     1      -9.995  10.396  69.099  1.00  0.00    -0.213 NA 
HETATM    2  H2  UNL     1     -10.090   9.893  69.981  1.00  0.00     0.000 HD 
HETATM    3  H1  UNL     1      -9.299  11.138  69.184  1.00  0.00     0.000 HD 
HETATM    4  CA  UNL     1      -9.734   9.442  67.974  1.00  0.00    -0.145 C  
HETATM    5  C   UNL     1      -9.596  10.239  66.665  1.00  0.00    -0.175 C  
HETATM    6  OXT UNL     1      -9.463   9.753  65.554  1.00  0.00    -0.221 OA 
HETATM    7  O   UNL     1      -9.621  11.578  66.896  1.00  0.00    -0.183 OA 
ENDROOT
BRANCH   4   8
HETATM    8  C   UNL     1     -10.785   8.321  67.846  1.00  0.00    -0.138 C  
BRANCH   8   9
HETATM    9  C   UNL     1     -10.499   7.094  68.686  1.00  0.00    -0.218 A  
HETATM   10  C   UNL     1      -9.834   5.992  68.119  1.00  0.00    -0.148 A  
HETATM   11  C   UNL     1      -9.648   4.837  68.870  1.00  0.00    -0.162 A  
HETATM   12  O   UNL     1      -9.020   3.737  68.356  1.00  0.00    -0.104 OA 
HETATM   13  C   UNL     1     -10.113   4.768  70.179  1.00  0.00    -0.240 A  
HETATM   14  H   UNL     1      -8.893   2.948  68.868  1.00  0.00     0.000 HD 
HETATM   15  O   UNL     1      -9.953   3.620  70.900  1.00  0.00    -0.149 OA 
HETATM   16  C   UNL     1     -10.748   5.853  70.764  1.00  0.00    -0.344 A  
HETATM   17  C   UNL     1     -10.933   7.020  70.021  1.00  0.00    -0.303 A  
HETATM   18  H   UNL     1     -10.271   3.573  71.794  1.00  0.00     0.000 HD 
ENDBRANCH   8   9
ENDBRANCH   4   8
TORSDOF 2
ENDMDL
MODEL      262
REMARK 921   NORMALIZED FREE ENERGY PREDICTED BY IDOCK:   -2.41 KCAL/MOL
REMARK 922        TOTAL FREE ENERGY PREDICTED BY IDOCK:   -2.88 KCAL/MOL
REMARK 923 INTER-LIGAND FREE ENERGY PREDICTED BY IDOCK:   -2.68 KCAL/MOL
REMARK 924 INTRA-LIGAND FREE ENERGY PREDICTED BY IDOCK:   -0.20 KCAL/MOL
REMARK 927      BINDING AFFINITY PREDICTED BY RF-SCORE:    0.00 PKD
ROOT
HETATM    1  N   UNL     1      -7.990   7.786  72.090  1.00  0.00    -0.104 NA 
HETATM    2  H2  UNL     1      -8.659   7.020  72.029  1.00  0.00     0.000 HD 
HETATM    3  H1  UNL     1      -7.073   7.440  72.375  1.00  0.00     0.000 HD 
HETATM    4  CA  UNL     1      -7.973   8.573  70.815  1.00  0.00    -0.107 C  
HETATM    5  C   UNL     1      -6.952   9.717  70.948  1.00  0.00    -0.029 C  
HETATM    6  OXT UNL     1      -6.758  10.589  70.116  1.00  0.00    -0.137 OA 
HETATM    7  O   UNL     1      -6.262   9.632  72.115  1.00  0.00    -0.294 OA 
ENDROOT
BRANCH   4   8
HETATM    8  C   UNL     1      -9.357   9.097  70.383  1.00  0.00    -0.272 C  
BRANCH   8   9
HETATM    9  C   UNL     1      -9.535   9.241  68.887  1.00  0.00    -0.154 A  
HETATM   10  C   UNL     1      -9.046   8.248  68.020  1.00  0.00    -0.139 A  
HETATM   11  C   UNL     1      -9.138   8.426  66.644  1.00  0.00    -0.164 A  
HETATM   12  O   UNL     1      -8.663   7.494  65.764  1.00  0.00    -0.176 OA 
HETATM   13  C   UNL     1      -9.716   9.578  66.123  1.00  0.00    -0.258 A  
HETATM   14  H   UNL     1      -8.726   7.615  64.824  1.00  0.00     0.000 HD 
HETATM   15  O   UNL     1      -9.776   9.759  64.770  1.00  0.00    -0.389 OA 
HETATM   16  C   UNL     1     -10.228  10.557  66.960  1.00  0.00    -0.275 A  
HETATM   17  C   UNL     1     -10.147  10.385  68.343  1.00  0.00    -0.181 A  
HETATM   18  H   UNL     1     -10.170  10.546  64.414  1.00  0.00     0.000 HD 
ENDBRANCH   8   9
ENDBRANCH   4   8
TORSDOF 2
ENDMDL
MODEL      263
REMARK 921   NORMALIZED FREE ENERGY PREDICTED BY IDOCK:   -2.39 KCAL/MOL
REMARK 922        TOTAL FREE ENERGY PREDICTED BY IDOCK:   -2.86 KCAL/MOL
REMARK 923 INTER-LIGAND FREE ENERGY PREDICTED BY IDOCK:   -2.67 KCAL/MOL
REMARK 924 INTRA-LIGAND FREE ENERGY PREDICTED BY IDOCK:   -0.20 KCAL/MOL
REMARK 927      BINDING AFFINITY PREDICTED BY RF-SCORE:    0.00 PKD
ROOT
HETATM    1  N   UNL     1      -9.069  10.340  68.982  1.00  0.00    -0.173 NA 
HETATM    2  H2  UNL     1      -8.438  10.497  68.197  1.00  0.00     0.000 HD 
HETATM    3  H1  UNL     1      -8.685  10.742  69.837  1.00  0.00     0.000 HD 
HETATM    4  CA  UNL     1     -10.450  10.817  68.651  1.00  0.00    -0.192 C  
HETATM    5  C   UNL     1     -11.369  10.562  69.859  1.00  0.00    -0.309 C  
HETATM    6  OXT UNL     1     -12.573  10.761  69.884  1.00  0.00    -0.294 OA 
HETATM    7  O   UNL     1     -10.667  10.098  70.927  1.00  0.00    -0.249 OA 
ENDROOT
BRANCH   4   8
HETATM    8  C   UNL     1     -11.031  10.209  67.359  1.00  0.00    -0.295 C  
BRANCH   8   9
HETATM    9  C   UNL     1     -10.340  10.656  66.089  1.00  0.00    -0.291 A  
HETATM   10  C   UNL     1      -9.707   9.712  65.261  1.00  0.00    -0.330 A  
HETATM   11  C   UNL     1      -9.003  10.137  64.140  1.00  0.00    -0.238 A  
HETATM   12  O   UNL     1      -8.361   9.256  63.316  1.00  0.00    -0.169 OA 
HETATM   13  C   UNL     1      -8.928  11.491  63.831  1.00  0.00     0.273 A  
HETATM   14  H   UNL     1      -7.880   9.547  62.550  1.00  0.00     0.000 HD 
HETATM   15  O   UNL     1      -8.210  11.904  62.746  1.00  0.00    -0.257 OA 
HETATM   16  C   UNL     1      -9.567  12.436  64.619  1.00  0.00     0.132 A  
HETATM   17  C   UNL     1     -10.281  12.018  65.744  1.00  0.00    -0.274 A  
HETATM   18  H   UNL     1      -8.158  12.829  62.535  1.00  0.00     0.000 HD 
ENDBRANCH   8   9
ENDBRANCH   4   8
TORSDOF 2
ENDMDL
MODEL      264
REMARK 921   NORMALIZED FREE ENERGY PREDICTED BY IDOCK:   -2.38 KCAL/MOL
REMARK 922        TOTAL FREE ENERGY PREDICTED BY IDOCK:   -2.85 KCAL/MOL
REMARK 923 INTER-LIGAND FREE ENERGY PREDICTED BY IDOCK:   -2.65 KCAL/MOL
REMARK 924 INTRA-LIGAND FREE ENERGY PREDICTED BY IDOCK:   -0.20 KCAL/MOL
REMARK 927      BINDING AFFINITY PREDICTED BY RF-SCORE:    0.00 PKD
ROOT
HETATM    1  N   UNL     1      -8.760   8.957  70.590  1.00  0.00    -0.177 NA 
HETATM    2  H2  UNL     1      -7.908   8.398  70.648  1.00  0.00     0.000 HD 
HETATM    3  H1  UNL     1      -9.011   9.129  69.616  1.00  0.00     0.000 HD 
HETATM    4  CA  UNL     1      -9.854   8.333  71.401  1.00  0.00    -0.184 C  
HETATM    5  C   UNL     1     -11.117   9.205  71.288  1.00  0.00    -0.335 C  
HETATM    6  OXT UNL     1     -12.159   9.019  71.895  1.00  0.00    -0.336 OA 
HETATM    7  O   UNL     1     -10.943  10.218  70.399  1.00  0.00    -0.296 OA 
ENDROOT
BRANCH   4   8
HETATM    8  C   UNL     1      -9.475   8.074  72.872  1.00  0.00    -0.346 C  
BRANCH   8   9
HETATM    9  C   UNL     1      -9.110   6.637  73.183  1.00  0.00    -0.141 A  
HETATM   10  C   UNL     1     -10.105   5.644  73.192  1.00  0.00    -0.200 A  
HETATM   11  C   UNL     1      -9.779   4.343  73.559  1.00  0.00    -0.120 A  
HETATM   12  O   UNL     1     -10.717   3.349  73.596  1.00  0.00    -0.176 OA 
HETATM   13  C   UNL     1      -8.474   4.020  73.911  1.00  0.00    -0.091 A  
HETATM   14  H   UNL     1     -10.495   2.461  73.847  1.00  0.00     0.000 HD 
HETATM   15  O   UNL     1      -8.167   2.747  74.299  1.00  0.00    -0.066 OA 
HETATM   16  C   UNL     1      -7.473   4.978  73.882  1.00  0.00    -0.087 A  
HETATM   17  C   UNL     1      -7.788   6.286  73.509  1.00  0.00    -0.097 A  
HETATM   18  H   UNL     1      -7.275   2.526  74.540  1.00  0.00     0.000 HD 
ENDBRANCH   8   9
ENDBRANCH   4   8
TORSDOF 2
ENDMDL
MODEL      265
REMARK 921   NORMALIZED FREE ENERGY PREDICTED BY IDOCK:   -2.30 KCAL/MOL
REMARK 922        TOTAL FREE ENERGY PREDICTED BY IDOCK:   -2.75 KCAL/MOL
REMARK 923 INTER-LIGAND FREE ENERGY PREDICTED BY IDOCK:   -2.56 KCAL/MOL
REMARK 924 INTRA-LIGAND FREE ENERGY PREDICTED BY IDOCK:   -0.19 KCAL/MOL
REMARK 927      BINDING AFFINITY PREDICTED BY RF-SCORE:    0.00 PKD
ROOT
HETATM    1  N   UNL     1     -10.443   9.795  67.976  1.00  0.00    -0.212 NA 
HETATM    2  H2  UNL     1      -9.777   9.040  67.815  1.00  0.00     0.000 HD 
HETATM    3  H1  UNL     1     -11.179   9.781  67.269  1.00  0.00     0.000 HD 
HETATM    4  CA  UNL     1     -10.951   9.757  69.385  1.00  0.00    -0.212 C  
HETATM    5  C   UNL     1     -11.950  10.910  69.586  1.00  0.00    -0.343 C  
HETATM    6  OXT UNL     1     -12.481  11.207  70.644  1.00  0.00    -0.335 OA 
HETATM    7  O   UNL     1     -12.196  11.562  68.419  1.00  0.00    -0.540 OA 
ENDROOT
BRANCH   4   8
HETATM    8  C   UNL     1      -9.839   9.778  70.453  1.00  0.00    -0.269 C  
BRANCH   8   9
HETATM    9  C   UNL     1      -8.754   8.742  70.250  1.00  0.00    -0.170 A  
HETATM   10  C   UNL     1      -7.435   9.148  69.980  1.00  0.00    -0.077 A  
HETATM   11  C   UNL     1      -6.460   8.193  69.713  1.00  0.00    -0.036 A  
HETATM   12  O   UNL     1      -5.169   8.542  69.431  1.00  0.00    -0.030 OA 
HETATM   13  C   UNL     1      -6.783   6.841  69.717  1.00  0.00    -0.050 A  
HETATM   14  H   UNL     1      -4.503   7.890  69.248  1.00  0.00     0.000 HD 
HETATM   15  O   UNL     1      -5.827   5.911  69.425  1.00  0.00    -0.018 OA 
HETATM   16  C   UNL     1      -8.071   6.419  70.008  1.00  0.00    -0.121 A  
HETATM   17  C   UNL     1      -9.056   7.370  70.284  1.00  0.00    -0.151 A  
HETATM   18  H   UNL     1      -6.047   4.987  69.427  1.00  0.00     0.000 HD 
ENDBRANCH   8   9
ENDBRANCH   4   8
TORSDOF 2
ENDMDL
MODEL      266
REMARK 921   NORMALIZED FREE ENERGY PREDICTED BY IDOCK:   -2.22 KCAL/MOL
REMARK 922        TOTAL FREE ENERGY PREDICTED BY IDOCK:   -2.66 KCAL/MOL
REMARK 923 INTER-LIGAND FREE ENERGY PREDICTED BY IDOCK:   -2.92 KCAL/MOL
REMARK 924 INTRA-LIGAND FREE ENERGY PREDICTED BY IDOCK:    0.26 KCAL/MOL
REMARK 927      BINDING AFFINITY PREDICTED BY RF-SCORE:    0.00 PKD
ROOT
HETATM    1  N   UNL     1      -8.508   3.659  71.409  1.00  0.00    -0.071 NA 
HETATM    2  H2  UNL     1      -8.403   3.801  70.404  1.00  0.00     0.000 HD 
HETATM    3  H1  UNL     1      -8.434   2.668  71.641  1.00  0.00     0.000 HD 
HETATM    4  CA  UNL     1      -7.556   4.534  72.165  1.00  0.00    -0.089 C  
HETATM    5  C   UNL     1      -7.745   4.291  73.673  1.00  0.00    -0.082 C  
HETATM    6  OXT UNL     1      -7.181   4.907  74.563  1.00  0.00    -0.076 OA 
HETATM    7  O   UNL     1      -8.618   3.276  73.905  1.00  0.00    -0.074 OA 
ENDROOT
BRANCH   4   8
HETATM    8  C   UNL     1      -7.667   6.031  71.814  1.00  0.00    -0.101 C  
BRANCH   8   9
HETATM    9  C   UNL     1      -9.042   6.627  72.032  1.00  0.00    -0.139 A  
HETATM   10  C   UNL     1      -9.747   7.184  70.950  1.00  0.00    -0.170 A  
HETATM   11  C   UNL     1     -10.972   7.804  71.171  1.00  0.00    -0.239 A  
HETATM   12  O   UNL     1     -11.685   8.372  70.152  1.00  0.00    -0.470 OA 
HETATM   13  C   UNL     1     -11.504   7.869  72.453  1.00  0.00    -0.376 A  
HETATM   14  H   UNL     1     -12.522   8.795  70.302  1.00  0.00     0.000 HD 
HETATM   15  O   UNL     1     -12.694   8.506  72.666  1.00  0.00    -0.571 OA 
HETATM   16  C   UNL     1     -10.838   7.303  73.528  1.00  0.00    -0.290 A  
HETATM   17  C   UNL     1      -9.610   6.673  73.317  1.00  0.00    -0.175 A  
HETATM   18  H   UNL     1     -13.057   8.551  73.543  1.00  0.00     0.000 HD 
ENDBRANCH   8   9
ENDBRANCH   4   8
TORSDOF 2
ENDMDL
MODEL      267
REMARK 921   NORMALIZED FREE ENERGY PREDICTED BY IDOCK:   -2.21 KCAL/MOL
REMARK 922        TOTAL FREE ENERGY PREDICTED BY IDOCK:   -2.66 KCAL/MOL
REMARK 923 INTER-LIGAND FREE ENERGY PREDICTED BY IDOCK:   -2.46 KCAL/MOL
REMARK 924 INTRA-LIGAND FREE ENERGY PREDICTED BY IDOCK:   -0.20 KCAL/MOL
REMARK 927      BINDING AFFINITY PREDICTED BY RF-SCORE:    0.00 PKD
ROOT
HETATM    1  N   UNL     1      -8.113   4.752  64.511  1.00  0.00    -0.103 NA 
HETATM    2  H2  UNL     1      -8.670   3.928  64.738  1.00  0.00     0.000 HD 
HETATM    3  H1  UNL     1      -8.279   5.042  63.547  1.00  0.00     0.000 HD 
HETATM    4  CA  UNL     1      -8.341   5.834  65.521  1.00  0.00    -0.140 C  
HETATM    5  C   UNL     1      -7.485   7.057  65.143  1.00  0.00    -0.094 C  
HETATM    6  OXT UNL     1      -7.379   8.076  65.806  1.00  0.00    -0.076 OA 
HETATM    7  O   UNL     1      -6.863   6.876  63.948  1.00  0.00    -0.050 OA 
ENDROOT
BRANCH   4   8
HETATM    8  C   UNL     1      -8.090   5.396  66.977  1.00  0.00    -0.101 C  
BRANCH   8   9
HETATM    9  C   UNL     1      -9.150   5.848  67.960  1.00  0.00    -0.117 A  
HETATM   10  C   UNL     1      -9.205   5.281  69.246  1.00  0.00    -0.151 A  
HETATM   11  C   UNL     1     -10.230   5.639  70.114  1.00  0.00    -0.250 A  
HETATM   12  O   UNL     1     -10.331   5.103  71.368  1.00  0.00    -0.210 OA 
HETATM   13  C   UNL     1     -11.196   6.557  69.719  1.00  0.00    -0.395 A  
HETATM   14  H   UNL     1     -11.031   5.347  71.962  1.00  0.00     0.000 HD 
HETATM   15  O   UNL     1     -12.217   6.881  70.567  1.00  0.00    -0.569 OA 
HETATM   16  C   UNL     1     -11.145   7.147  68.466  1.00  0.00    -0.003 A  
HETATM   17  C   UNL     1     -10.116   6.799  67.588  1.00  0.00    -0.201 A  
HETATM   18  H   UNL     1     -12.878   7.508  70.296  1.00  0.00     0.000 HD 
ENDBRANCH   8   9
ENDBRANCH   4   8
TORSDOF 2
ENDMDL
MODEL      268
REMARK 921   NORMALIZED FREE ENERGY PREDICTED BY IDOCK:   -2.20 KCAL/MOL
REMARK 922        TOTAL FREE ENERGY PREDICTED BY IDOCK:   -2.64 KCAL/MOL
REMARK 923 INTER-LIGAND FREE ENERGY PREDICTED BY IDOCK:   -2.46 KCAL/MOL
REMARK 924 INTRA-LIGAND FREE ENERGY PREDICTED BY IDOCK:   -0.18 KCAL/MOL
REMARK 927      BINDING AFFINITY PREDICTED BY RF-SCORE:    0.00 PKD
ROOT
HETATM    1  N   UNL     1      -9.105  10.282  68.747  1.00  0.00    -0.151 NA 
HETATM    2  H2  UNL     1      -8.327   9.650  68.558  1.00  0.00     0.000 HD 
HETATM    3  H1  UNL     1      -9.511  10.622  67.875  1.00  0.00     0.000 HD 
HETATM    4  CA  UNL     1     -10.094   9.637  69.670  1.00  0.00    -0.224 C  
HETATM    5  C   UNL     1     -11.249  10.621  69.929  1.00  0.00    -0.308 C  
HETATM    6  OXT UNL     1     -12.174  10.434  70.703  1.00  0.00    -0.295 OA 
HETATM    7  O   UNL     1     -11.128  11.740  69.167  1.00  0.00    -0.232 OA 
ENDROOT
BRANCH   4   8
HETATM    8  C   UNL     1      -9.480   9.123  70.987  1.00  0.00    -0.344 C  
BRANCH   8   9
HETATM    9  C   UNL     1      -9.006   7.686  70.940  1.00  0.00    -0.148 A  
HETATM   10  C   UNL     1      -9.940   6.637  70.906  1.00  0.00    -0.204 A  
HETATM   11  C   UNL     1      -9.501   5.318  70.947  1.00  0.00    -0.165 A  
HETATM   12  O   UNL     1     -10.374   4.267  70.930  1.00  0.00    -0.072 OA 
HETATM   13  C   UNL     1      -8.141   5.034  71.017  1.00  0.00    -0.101 A  
HETATM   14  H   UNL     1     -10.074   3.366  70.958  1.00  0.00     0.000 HD 
HETATM   15  O   UNL     1      -7.718   3.738  71.087  1.00  0.00    -0.056 OA 
HETATM   16  C   UNL     1      -7.202   6.054  71.025  1.00  0.00    -0.074 A  
HETATM   17  C   UNL     1      -7.634   7.381  70.977  1.00  0.00    -0.086 A  
HETATM   18  H   UNL     1      -6.789   3.544  71.135  1.00  0.00     0.000 HD 
ENDBRANCH   8   9
ENDBRANCH   4   8
TORSDOF 2
ENDMDL
MODEL      269
REMARK 921   NORMALIZED FREE ENERGY PREDICTED BY IDOCK:   -2.17 KCAL/MOL
REMARK 922        TOTAL FREE ENERGY PREDICTED BY IDOCK:   -2.61 KCAL/MOL
REMARK 923 INTER-LIGAND FREE ENERGY PREDICTED BY IDOCK:   -2.40 KCAL/MOL
REMARK 924 INTRA-LIGAND FREE ENERGY PREDICTED BY IDOCK:   -0.21 KCAL/MOL
REMARK 927      BINDING AFFINITY PREDICTED BY RF-SCORE:    0.00 PKD
ROOT
HETATM    1  N   UNL     1     -11.558   8.654  69.941  1.00  0.00    -0.431 NA 
HETATM    2  H2  UNL     1     -10.781   8.998  69.378  1.00  0.00     0.000 HD 
HETATM    3  H1  UNL     1     -12.412   8.608  69.385  1.00  0.00     0.000 HD 
HETATM    4  CA  UNL     1     -11.194   7.362  70.606  1.00  0.00    -0.270 C  
HETATM    5  C   UNL     1     -12.390   6.878  71.445  1.00  0.00    -0.376 C  
HETATM    6  OXT UNL     1     -12.390   5.900  72.175  1.00  0.00    -0.182 OA 
HETATM    7  O   UNL     1     -13.478   7.671  71.260  1.00  0.00    -0.304 OA 
ENDROOT
BRANCH   4   8
HETATM    8  C   UNL     1      -9.903   7.430  71.447  1.00  0.00    -0.194 C  
BRANCH   8   9
HETATM    9  C   UNL     1      -8.740   6.647  70.876  1.00  0.00    -0.138 A  
HETATM   10  C   UNL     1      -8.732   6.287  69.517  1.00  0.00    -0.132 A  
HETATM   11  C   UNL     1      -7.702   5.497  69.018  1.00  0.00    -0.087 A  
HETATM   12  O   UNL     1      -7.662   5.111  67.707  1.00  0.00    -0.086 OA 
HETATM   13  C   UNL     1      -6.679   5.067  69.855  1.00  0.00    -0.040 A  
HETATM   14  H   UNL     1      -6.958   4.572  67.366  1.00  0.00     0.000 HD 
HETATM   15  O   UNL     1      -5.687   4.267  69.364  1.00  0.00    -0.016 OA 
HETATM   16  C   UNL     1      -6.654   5.433  71.192  1.00  0.00    -0.043 A  
HETATM   17  C   UNL     1      -7.680   6.232  71.701  1.00  0.00    -0.100 A  
HETATM   18  H   UNL     1      -4.988   3.973  69.937  1.00  0.00     0.000 HD 
ENDBRANCH   8   9
ENDBRANCH   4   8
TORSDOF 2
ENDMDL
MODEL      270
REMARK 921   NORMALIZED FREE ENERGY PREDICTED BY IDOCK:   -2.16 KCAL/MOL
REMARK 922        TOTAL FREE ENERGY PREDICTED BY IDOCK:   -2.60 KCAL/MOL
REMARK 923 INTER-LIGAND FREE ENERGY PREDICTED BY IDOCK:   -2.39 KCAL/MOL
REMARK 924 INTRA-LIGAND FREE ENERGY PREDICTED BY IDOCK:   -0.21 KCAL/MOL
REMARK 927      BINDING AFFINITY PREDICTED BY RF-SCORE:    0.00 PKD
ROOT
HETATM    1  N   UNL     1      -8.590  10.352  69.930  1.00  0.00    -0.367 NA 
HETATM    2  H2  UNL     1      -8.040  10.724  69.156  1.00  0.00     0.000 HD 
HETATM    3  H1  UNL     1      -9.299  11.025  70.222  1.00  0.00     0.000 HD 
HETATM    4  CA  UNL     1      -9.138   9.001  69.585  1.00  0.00    -0.154 C  
HETATM    5  C   UNL     1      -9.959   8.477  70.777  1.00  0.00    -0.191 C  
HETATM    6  OXT UNL     1     -10.469   7.371  70.849  1.00  0.00    -0.215 OA 
HETATM    7  O   UNL     1     -10.070   9.415  71.753  1.00  0.00    -0.200 OA 
ENDROOT
BRANCH   4   8
HETATM    8  C   UNL     1      -8.067   7.984  69.144  1.00  0.00    -0.119 C  
BRANCH   8   9
HETATM    9  C   UNL     1      -8.463   7.129  67.959  1.00  0.00    -0.122 A  
HETATM   10  C   UNL     1      -8.934   5.820  68.161  1.00  0.00    -0.114 A  
HETATM   11  C   UNL     1      -9.217   5.012  67.065  1.00  0.00    -0.120 A  
HETATM   12  O   UNL     1      -9.664   3.728  67.214  1.00  0.00    -0.210 OA 
HETATM   13  C   UNL     1      -9.041   5.494  65.773  1.00  0.00    -0.144 A  
HETATM   14  H   UNL     1      -9.858   3.176  66.466  1.00  0.00     0.000 HD 
HETATM   15  O   UNL     1      -9.293   4.684  64.703  1.00  0.00    -0.212 OA 
HETATM   16  C   UNL     1      -8.603   6.790  65.553  1.00  0.00    -0.095 A  
HETATM   17  C   UNL     1      -8.322   7.612  66.646  1.00  0.00    -0.127 A  
HETATM   18  H   UNL     1      -9.172   5.013  63.820  1.00  0.00     0.000 HD 
ENDBRANCH   8   9
ENDBRANCH   4   8
TORSDOF 2
ENDMDL
MODEL      271
REMARK 921   NORMALIZED FREE ENERGY PREDICTED BY IDOCK:   -2.11 KCAL/MOL
REMARK 922        TOTAL FREE ENERGY PREDICTED BY IDOCK:   -2.54 KCAL/MOL
REMARK 923 INTER-LIGAND FREE ENERGY PREDICTED BY IDOCK:   -2.30 KCAL/MOL
REMARK 924 INTRA-LIGAND FREE ENERGY PREDICTED BY IDOCK:   -0.25 KCAL/MOL
REMARK 927      BINDING AFFINITY PREDICTED BY RF-SCORE:    0.00 PKD
ROOT
HETATM    1  N   UNL     1      -8.128   9.018  68.332  1.00  0.00    -0.107 NA 
HETATM    2  H2  UNL     1      -7.772   8.194  68.817  1.00  0.00     0.000 HD 
HETATM    3  H1  UNL     1      -7.404   9.734  68.265  1.00  0.00     0.000 HD 
HETATM    4  CA  UNL     1      -8.729   8.634  67.015  1.00  0.00    -0.127 C  
HETATM    5  C   UNL     1      -9.251   9.902  66.317  1.00  0.00    -0.168 C  
HETATM    6  OXT UNL     1      -9.871   9.924  65.265  1.00  0.00    -0.302 OA 
HETATM    7  O   UNL     1      -8.920  11.022  67.011  1.00  0.00    -0.145 OA 
ENDROOT
BRANCH   4   8
HETATM    8  C   UNL     1      -9.822   7.552  67.116  1.00  0.00    -0.263 C  
BRANCH   8   9
HETATM    9  C   UNL     1      -9.561   6.316  66.282  1.00  0.00    -0.117 A  
HETATM   10  C   UNL     1      -8.492   6.295  65.368  1.00  0.00    -0.131 A  
HETATM   11  C   UNL     1      -8.308   5.190  64.546  1.00  0.00    -0.137 A  
HETATM   12  O   UNL     1      -7.291   5.133  63.633  1.00  0.00    -0.048 OA 
HETATM   13  C   UNL     1      -9.171   4.103  64.627  1.00  0.00    -0.151 A  
HETATM   14  H   UNL     1      -7.165   4.377  63.071  1.00  0.00     0.000 HD 
HETATM   15  O   UNL     1      -9.002   3.034  63.794  1.00  0.00    -0.095 OA 
HETATM   16  C   UNL     1     -10.215   4.092  65.539  1.00  0.00    -0.173 A  
HETATM   17  C   UNL     1     -10.405   5.195  66.374  1.00  0.00    -0.332 A  
HETATM   18  H   UNL     1      -9.593   2.292  63.850  1.00  0.00     0.000 HD 
ENDBRANCH   8   9
ENDBRANCH   4   8
TORSDOF 2
ENDMDL
MODEL      272
REMARK 921   NORMALIZED FREE ENERGY PREDICTED BY IDOCK:   -2.06 KCAL/MOL
REMARK 922        TOTAL FREE ENERGY PREDICTED BY IDOCK:   -2.48 KCAL/MOL
REMARK 923 INTER-LIGAND FREE ENERGY PREDICTED BY IDOCK:   -2.42 KCAL/MOL
REMARK 924 INTRA-LIGAND FREE ENERGY PREDICTED BY IDOCK:   -0.06 KCAL/MOL
REMARK 927      BINDING AFFINITY PREDICTED BY RF-SCORE:    0.00 PKD
ROOT
HETATM    1  N   UNL     1      -9.232   8.629  69.307  1.00  0.00    -0.149 NA 
HETATM    2  H2  UNL     1     -10.251   8.587  69.271  1.00  0.00     0.000 HD 
HETATM    3  H1  UNL     1      -8.858   8.993  68.430  1.00  0.00     0.000 HD 
HETATM    4  CA  UNL     1      -8.779   9.379  70.521  1.00  0.00    -0.231 C  
HETATM    5  C   UNL     1      -7.240   9.420  70.536  1.00  0.00    -0.123 C  
HETATM    6  OXT UNL     1      -6.556   9.884  71.434  1.00  0.00    -0.321 OA 
HETATM    7  O   UNL     1      -6.719   8.885  69.401  1.00  0.00    -0.047 OA 
ENDROOT
BRANCH   4   8
HETATM    8  C   UNL     1      -9.344   8.829  71.845  1.00  0.00    -0.343 C  
BRANCH   8   9
HETATM    9  C   UNL     1      -9.572   7.333  71.857  1.00  0.00    -0.164 A  
HETATM   10  C   UNL     1      -8.483   6.453  71.735  1.00  0.00    -0.124 A  
HETATM   11  C   UNL     1      -8.706   5.082  71.663  1.00  0.00    -0.132 A  
HETATM   12  O   UNL     1      -7.678   4.191  71.529  1.00  0.00    -0.062 OA 
HETATM   13  C   UNL     1     -10.000   4.579  71.717  1.00  0.00    -0.194 A  
HETATM   14  H   UNL     1      -7.830   3.255  71.480  1.00  0.00     0.000 HD 
HETATM   15  O   UNL     1     -10.214   3.234  71.615  1.00  0.00    -0.092 OA 
HETATM   16  C   UNL     1     -11.087   5.427  71.864  1.00  0.00    -0.179 A  
HETATM   17  C   UNL     1     -10.873   6.805  71.944  1.00  0.00    -0.261 A  
HETATM   18  H   UNL     1     -11.099   2.890  71.652  1.00  0.00     0.000 HD 
ENDBRANCH   8   9
ENDBRANCH   4   8
TORSDOF 2
ENDMDL
MODEL      273
REMARK 921   NORMALIZED FREE ENERGY PREDICTED BY IDOCK:   -2.01 KCAL/MOL
REMARK 922        TOTAL FREE ENERGY PREDICTED BY IDOCK:   -2.43 KCAL/MOL
REMARK 923 INTER-LIGAND FREE ENERGY PREDICTED BY IDOCK:   -2.23 KCAL/MOL
REMARK 924 INTRA-LIGAND FREE ENERGY PREDICTED BY IDOCK:   -0.20 KCAL/MOL
REMARK 927      BINDING AFFINITY PREDICTED BY RF-SCORE:    0.00 PKD
ROOT
HETATM    1  N   UNL     1     -10.732   9.020  70.552  1.00  0.00    -0.226 NA 
HETATM    2  H2  UNL     1      -9.820   9.329  70.216  1.00  0.00     0.000 HD 
HETATM    3  H1  UNL     1     -11.431   9.100  69.814  1.00  0.00     0.000 HD 
HETATM    4  CA  UNL     1     -10.636   7.652  71.155  1.00  0.00    -0.221 C  
HETATM    5  C   UNL     1     -12.029   7.225  71.648  1.00  0.00    -0.308 C  
HETATM    6  OXT UNL     1     -12.277   6.199  72.262  1.00  0.00    -0.293 OA 
HETATM    7  O   UNL     1     -12.979   8.132  71.297  1.00  0.00    -0.267 OA 
ENDROOT
BRANCH   4   8
HETATM    8  C   UNL     1      -9.579   7.532  72.271  1.00  0.00    -0.197 C  
BRANCH   8   9
HETATM    9  C   UNL     1      -8.887   6.187  72.338  1.00  0.00    -0.136 A  
HETATM   10  C   UNL     1      -8.917   5.323  71.229  1.00  0.00    -0.158 A  
HETATM   11  C   UNL     1      -8.352   4.057  71.325  1.00  0.00    -0.080 A  
HETATM   12  O   UNL     1      -8.371   3.179  70.277  1.00  0.00    -0.048 OA 
HETATM   13  C   UNL     1      -7.754   3.643  72.510  1.00  0.00    -0.067 A  
HETATM   14  H   UNL     1      -7.985   2.313  70.342  1.00  0.00     0.000 HD 
HETATM   15  O   UNL     1      -7.228   2.386  72.606  1.00  0.00    -0.030 OA 
HETATM   16  C   UNL     1      -7.691   4.489  73.606  1.00  0.00    -0.087 A  
HETATM   17  C   UNL     1      -8.249   5.765  73.518  1.00  0.00    -0.112 A  
HETATM   18  H   UNL     1      -6.820   2.103  73.416  1.00  0.00     0.000 HD 
ENDBRANCH   8   9
ENDBRANCH   4   8
TORSDOF 2
ENDMDL
MODEL      274
REMARK 921   NORMALIZED FREE ENERGY PREDICTED BY IDOCK:   -1.99 KCAL/MOL
REMARK 922        TOTAL FREE ENERGY PREDICTED BY IDOCK:   -2.41 KCAL/MOL
REMARK 923 INTER-LIGAND FREE ENERGY PREDICTED BY IDOCK:   -2.30 KCAL/MOL
REMARK 924 INTRA-LIGAND FREE ENERGY PREDICTED BY IDOCK:   -0.11 KCAL/MOL
REMARK 927      BINDING AFFINITY PREDICTED BY RF-SCORE:    0.00 PKD
ROOT
HETATM    1  N   UNL     1      -8.827   8.154  69.089  1.00  0.00    -0.144 NA 
HETATM    2  H2  UNL     1      -9.530   7.702  69.673  1.00  0.00     0.000 HD 
HETATM    3  H1  UNL     1      -9.216   8.390  68.176  1.00  0.00     0.000 HD 
HETATM    4  CA  UNL     1      -8.214   9.317  69.809  1.00  0.00    -0.131 C  
HETATM    5  C   UNL     1      -7.161   9.969  68.896  1.00  0.00    -0.068 C  
HETATM    6  OXT UNL     1      -6.423  10.888  69.215  1.00  0.00    -0.055 OA 
HETATM    7  O   UNL     1      -7.159   9.406  67.659  1.00  0.00    -0.080 OA 
ENDROOT
BRANCH   4   8
HETATM    8  C   UNL     1      -7.625   8.961  71.188  1.00  0.00    -0.143 C  
BRANCH   8   9
HETATM    9  C   UNL     1      -8.328   7.822  71.896  1.00  0.00    -0.136 A  
HETATM   10  C   UNL     1      -9.588   8.029  72.486  1.00  0.00    -0.306 A  
HETATM   11  C   UNL     1     -10.190   7.003  73.205  1.00  0.00    -0.275 A  
HETATM   12  O   UNL     1     -11.407   7.165  73.807  1.00  0.00    -0.449 OA 
HETATM   13  C   UNL     1      -9.556   5.774  73.339  1.00  0.00    -0.143 A  
HETATM   14  H   UNL     1     -11.819   6.464  74.299  1.00  0.00     0.000 HD 
HETATM   15  O   UNL     1     -10.140   4.781  74.073  1.00  0.00    -0.156 OA 
HETATM   16  C   UNL     1      -8.326   5.540  72.744  1.00  0.00    -0.113 A  
HETATM   17  C   UNL     1      -7.716   6.562  72.013  1.00  0.00    -0.098 A  
HETATM   18  H   UNL     1      -9.706   3.941  74.165  1.00  0.00     0.000 HD 
ENDBRANCH   8   9
ENDBRANCH   4   8
TORSDOF 2
ENDMDL
MODEL      275
REMARK 921   NORMALIZED FREE ENERGY PREDICTED BY IDOCK:   -1.95 KCAL/MOL
REMARK 922        TOTAL FREE ENERGY PREDICTED BY IDOCK:   -2.36 KCAL/MOL
REMARK 923 INTER-LIGAND FREE ENERGY PREDICTED BY IDOCK:   -2.13 KCAL/MOL
REMARK 924 INTRA-LIGAND FREE ENERGY PREDICTED BY IDOCK:   -0.23 KCAL/MOL
REMARK 927      BINDING AFFINITY PREDICTED BY RF-SCORE:    0.00 PKD
ROOT
HETATM    1  N   UNL     1      -9.538   4.121  66.195  1.00  0.00    -0.182 NA 
HETATM    2  H2  UNL     1     -10.432   4.175  66.681  1.00  0.00     0.000 HD 
HETATM    3  H1  UNL     1      -9.648   3.662  65.290  1.00  0.00     0.000 HD 
HETATM    4  CA  UNL     1      -8.899   5.474  66.118  1.00  0.00    -0.139 C  
HETATM    5  C   UNL     1      -7.554   5.349  65.379  1.00  0.00    -0.079 C  
HETATM    6  OXT UNL     1      -6.749   6.253  65.223  1.00  0.00    -0.045 OA 
HETATM    7  O   UNL     1      -7.370   4.094  64.893  1.00  0.00    -0.069 OA 
ENDROOT
BRANCH   4   8
HETATM    8  C   UNL     1      -8.732   6.168  67.484  1.00  0.00    -0.104 C  
BRANCH   8   9
HETATM    9  C   UNL     1      -9.068   7.644  67.484  1.00  0.00    -0.131 A  
HETATM   10  C   UNL     1      -8.150   8.575  68.000  1.00  0.00    -0.115 A  
HETATM   11  C   UNL     1      -8.498   9.919  68.074  1.00  0.00    -0.117 A  
HETATM   12  O   UNL     1      -7.643  10.858  68.582  1.00  0.00    -0.098 OA 
HETATM   13  C   UNL     1      -9.746  10.346  67.635  1.00  0.00    -0.168 A  
HETATM   14  H   UNL     1      -7.880  11.776  68.632  1.00  0.00     0.000 HD 
HETATM   15  O   UNL     1     -10.092  11.664  67.739  1.00  0.00    -0.182 OA 
HETATM   16  C   UNL     1     -10.656   9.448  67.099  1.00  0.00    -0.294 A  
HETATM   17  C   UNL     1     -10.314   8.097  67.014  1.00  0.00    -0.403 A  
HETATM   18  H   UNL     1     -10.945  11.955  67.439  1.00  0.00     0.000 HD 
ENDBRANCH   8   9
ENDBRANCH   4   8
TORSDOF 2
ENDMDL
MODEL      276
REMARK 921   NORMALIZED FREE ENERGY PREDICTED BY IDOCK:   -1.89 KCAL/MOL
REMARK 922        TOTAL FREE ENERGY PREDICTED BY IDOCK:   -2.30 KCAL/MOL
REMARK 923 INTER-LIGAND FREE ENERGY PREDICTED BY IDOCK:   -2.78 KCAL/MOL
REMARK 924 INTRA-LIGAND FREE ENERGY PREDICTED BY IDOCK:    0.48 KCAL/MOL
REMARK 927      BINDING AFFINITY PREDICTED BY RF-SCORE:    0.00 PKD
ROOT
HETATM    1  N   UNL     1      -9.190   9.285  68.636  1.00  0.00    -0.135 NA 
HETATM    2  H2  UNL     1      -9.538   9.097  67.696  1.00  0.00     0.000 HD 
HETATM    3  H1  UNL     1      -9.221   8.440  69.206  1.00  0.00     0.000 HD 
HETATM    4  CA  UNL     1      -7.840   9.931  68.577  1.00  0.00    -0.081 C  
HETATM    5  C   UNL     1      -7.352  10.199  70.012  1.00  0.00    -0.165 C  
HETATM    6  OXT UNL     1      -6.326  10.790  70.309  1.00  0.00    -0.136 OA 
HETATM    7  O   UNL     1      -8.203   9.672  70.931  1.00  0.00    -0.290 OA 
ENDROOT
BRANCH   4   8
HETATM    8  C   UNL     1      -7.793  11.209  67.715  1.00  0.00    -0.114 C  
BRANCH   8   9
HETATM    9  C   UNL     1      -8.892  12.208  68.013  1.00  0.00    -0.181 A  
HETATM   10  C   UNL     1      -8.581  13.569  68.175  1.00  0.00    -0.173 A  
HETATM   11  C   UNL     1      -9.580  14.468  68.530  1.00  0.00    -0.220 A  
HETATM   12  O   UNL     1      -9.320  15.798  68.713  1.00  0.00    -0.195 OA 
HETATM   13  C   UNL     1     -10.885  14.028  68.720  1.00  0.00    -0.263 A  
HETATM   14  H   UNL     1     -10.003  16.412  68.955  1.00  0.00     0.000 HD 
HETATM   15  O   UNL     1     -11.855  14.912  69.098  1.00  0.00    -0.299 OA 
HETATM   16  C   UNL     1     -11.217  12.694  68.539  1.00  0.00    -0.315 A  
HETATM   17  C   UNL     1     -10.222  11.784  68.177  1.00  0.00    -0.210 A  
HETATM   18  H   UNL     1     -12.746  14.610  69.228  1.00  0.00     0.000 HD 
ENDBRANCH   8   9
ENDBRANCH   4   8
TORSDOF 2
ENDMDL
MODEL      277
REMARK 921   NORMALIZED FREE ENERGY PREDICTED BY IDOCK:   -1.89 KCAL/MOL
REMARK 922        TOTAL FREE ENERGY PREDICTED BY IDOCK:   -2.30 KCAL/MOL
REMARK 923 INTER-LIGAND FREE ENERGY PREDICTED BY IDOCK:   -2.11 KCAL/MOL
REMARK 924 INTRA-LIGAND FREE ENERGY PREDICTED BY IDOCK:   -0.19 KCAL/MOL
REMARK 927      BINDING AFFINITY PREDICTED BY RF-SCORE:    0.00 PKD
ROOT
HETATM    1  N   UNL     1     -11.146   8.856  71.883  1.00  0.00    -0.358 NA 
HETATM    2  H2  UNL     1     -11.933   8.457  72.393  1.00  0.00     0.000 HD 
HETATM    3  H1  UNL     1     -10.914   9.781  72.247  1.00  0.00     0.000 HD 
HETATM    4  CA  UNL     1      -9.992   7.902  71.866  1.00  0.00    -0.179 C  
HETATM    5  C   UNL     1      -8.827   8.541  71.088  1.00  0.00    -0.179 C  
HETATM    6  OXT UNL     1      -7.771   7.990  70.821  1.00  0.00    -0.078 OA 
HETATM    7  O   UNL     1      -9.108   9.824  70.741  1.00  0.00    -0.127 OA 
ENDROOT
BRANCH   4   8
HETATM    8  C   UNL     1     -10.341   6.505  71.316  1.00  0.00    -0.234 C  
BRANCH   8   9
HETATM    9  C   UNL     1      -9.960   5.358  72.229  1.00  0.00    -0.219 A  
HETATM   10  C   UNL     1      -8.662   5.284  72.763  1.00  0.00    -0.119 A  
HETATM   11  C   UNL     1      -8.292   4.187  73.532  1.00  0.00    -0.089 A  
HETATM   12  O   UNL     1      -7.037   4.066  74.060  1.00  0.00    -0.058 OA 
HETATM   13  C   UNL     1      -9.202   3.165  73.779  1.00  0.00    -0.084 A  
HETATM   14  H   UNL     1      -6.785   3.317  74.585  1.00  0.00     0.000 HD 
HETATM   15  O   UNL     1      -8.823   2.075  74.510  1.00  0.00    -0.060 OA 
HETATM   16  C   UNL     1     -10.495   3.231  73.283  1.00  0.00    -0.254 A  
HETATM   17  C   UNL     1     -10.878   4.332  72.515  1.00  0.00    -0.067 A  
HETATM   18  H   UNL     1      -9.445   1.377  74.677  1.00  0.00     0.000 HD 
ENDBRANCH   8   9
ENDBRANCH   4   8
TORSDOF 2
ENDMDL
MODEL      278
REMARK 921   NORMALIZED FREE ENERGY PREDICTED BY IDOCK:   -1.88 KCAL/MOL
REMARK 922        TOTAL FREE ENERGY PREDICTED BY IDOCK:   -2.29 KCAL/MOL
REMARK 923 INTER-LIGAND FREE ENERGY PREDICTED BY IDOCK:   -2.27 KCAL/MOL
REMARK 924 INTRA-LIGAND FREE ENERGY PREDICTED BY IDOCK:   -0.02 KCAL/MOL
REMARK 927      BINDING AFFINITY PREDICTED BY RF-SCORE:    0.00 PKD
ROOT
HETATM    1  N   UNL     1      -5.837   9.999  70.172  1.00  0.00    -0.048 NA 
HETATM    2  H2  UNL     1      -6.001   9.026  70.430  1.00  0.00     0.000 HD 
HETATM    3  H1  UNL     1      -4.841  10.215  70.204  1.00  0.00     0.000 HD 
HETATM    4  CA  UNL     1      -6.487  10.312  68.860  1.00  0.00    -0.051 C  
HETATM    5  C   UNL     1      -6.217  11.786  68.509  1.00  0.00    -0.051 C  
HETATM    6  OXT UNL     1      -6.678  12.378  67.546  1.00  0.00    -0.116 OA 
HETATM    7  O   UNL     1      -5.372  12.362  69.403  1.00  0.00    -0.068 OA 
ENDROOT
BRANCH   4   8
HETATM    8  C   UNL     1      -7.993   9.985  68.811  1.00  0.00    -0.096 C  
BRANCH   8   9
HETATM    9  C   UNL     1      -8.587   9.965  67.419  1.00  0.00    -0.125 A  
HETATM   10  C   UNL     1      -8.023   9.145  66.425  1.00  0.00    -0.100 A  
HETATM   11  C   UNL     1      -8.520   9.193  65.127  1.00  0.00    -0.167 A  
HETATM   12  O   UNL     1      -7.993   8.425  64.126  1.00  0.00    -0.138 OA 
HETATM   13  C   UNL     1      -9.574  10.042  64.810  1.00  0.00    -0.308 A  
HETATM   14  H   UNL     1      -8.332   8.457  63.240  1.00  0.00     0.000 HD 
HETATM   15  O   UNL     1     -10.037  10.105  63.526  1.00  0.00    -0.480 OA 
HETATM   16  C   UNL     1     -10.161  10.838  65.781  1.00  0.00    -0.319 A  
HETATM   17  C   UNL     1      -9.674  10.793  67.089  1.00  0.00    -0.198 A  
HETATM   18  H   UNL     1     -10.757  10.685  63.310  1.00  0.00     0.000 HD 
ENDBRANCH   8   9
ENDBRANCH   4   8
TORSDOF 2
ENDMDL
MODEL      279
REMARK 921   NORMALIZED FREE ENERGY PREDICTED BY IDOCK:   -1.87 KCAL/MOL
REMARK 922        TOTAL FREE ENERGY PREDICTED BY IDOCK:   -2.28 KCAL/MOL
REMARK 923 INTER-LIGAND FREE ENERGY PREDICTED BY IDOCK:   -2.31 KCAL/MOL
REMARK 924 INTRA-LIGAND FREE ENERGY PREDICTED BY IDOCK:    0.03 KCAL/MOL
REMARK 927      BINDING AFFINITY PREDICTED BY RF-SCORE:    0.00 PKD
ROOT
HETATM    1  N   UNL     1      -6.355  11.647  66.367  1.00  0.00    -0.367 NA 
HETATM    2  H2  UNL     1      -5.371  11.428  66.215  1.00  0.00     0.000 HD 
HETATM    3  H1  UNL     1      -6.591  12.548  65.948  1.00  0.00     0.000 HD 
HETATM    4  CA  UNL     1      -7.223  10.516  65.907  1.00  0.00    -0.135 C  
HETATM    5  C   UNL     1      -8.697  10.886  66.154  1.00  0.00    -0.184 C  
HETATM    6  OXT UNL     1      -9.650  10.148  65.966  1.00  0.00    -0.183 OA 
HETATM    7  O   UNL     1      -8.819  12.166  66.595  1.00  0.00    -0.202 OA 
ENDROOT
BRANCH   4   8
HETATM    8  C   UNL     1      -6.868   9.156  66.540  1.00  0.00    -0.080 C  
BRANCH   8   9
HETATM    9  C   UNL     1      -7.194   9.045  68.014  1.00  0.00    -0.080 A  
HETATM   10  C   UNL     1      -8.218   8.183  68.446  1.00  0.00    -0.129 A  
HETATM   11  C   UNL     1      -8.569   8.147  69.790  1.00  0.00    -0.133 A  
HETATM   12  O   UNL     1      -9.567   7.335  70.252  1.00  0.00    -0.166 OA 
HETATM   13  C   UNL     1      -7.909   8.954  70.710  1.00  0.00    -0.119 A  
HETATM   14  H   UNL     1      -9.807   7.310  71.171  1.00  0.00     0.000 HD 
HETATM   15  O   UNL     1      -8.279   8.935  72.024  1.00  0.00    -0.362 OA 
HETATM   16  C   UNL     1      -6.879   9.791  70.309  1.00  0.00    -0.123 A  
HETATM   17  C   UNL     1      -6.514   9.830  68.962  1.00  0.00    -0.045 A  
HETATM   18  H   UNL     1      -7.828   9.487  72.652  1.00  0.00     0.000 HD 
ENDBRANCH   8   9
ENDBRANCH   4   8
TORSDOF 2
ENDMDL
MODEL      280
REMARK 921   NORMALIZED FREE ENERGY PREDICTED BY IDOCK:   -1.85 KCAL/MOL
REMARK 922        TOTAL FREE ENERGY PREDICTED BY IDOCK:   -2.25 KCAL/MOL
REMARK 923 INTER-LIGAND FREE ENERGY PREDICTED BY IDOCK:   -2.05 KCAL/MOL
REMARK 924 INTRA-LIGAND FREE ENERGY PREDICTED BY IDOCK:   -0.21 KCAL/MOL
REMARK 927      BINDING AFFINITY PREDICTED BY RF-SCORE:    0.00 PKD
ROOT
HETATM    1  N   UNL     1      -8.219   7.693  69.113  1.00  0.00    -0.128 NA 
HETATM    2  H2  UNL     1      -7.596   6.899  69.258  1.00  0.00     0.000 HD 
HETATM    3  H1  UNL     1      -7.698   8.570  69.150  1.00  0.00     0.000 HD 
HETATM    4  CA  UNL     1      -9.017   7.512  67.858  1.00  0.00    -0.131 C  
HETATM    5  C   UNL     1      -9.943   8.728  67.676  1.00  0.00    -0.193 C  
HETATM    6  OXT UNL     1     -10.781   8.851  66.797  1.00  0.00    -0.198 OA 
HETATM    7  O   UNL     1      -9.701   9.680  68.614  1.00  0.00    -0.150 OA 
ENDROOT
BRANCH   4   8
HETATM    8  C   UNL     1      -9.805   6.188  67.802  1.00  0.00    -0.131 C  
BRANCH   8   9
HETATM    9  C   UNL     1      -9.169   5.115  66.942  1.00  0.00    -0.118 A  
HETATM   10  C   UNL     1      -9.588   3.779  67.060  1.00  0.00    -0.213 A  
HETATM   11  C   UNL     1      -8.944   2.786  66.329  1.00  0.00    -0.143 A  
HETATM   12  O   UNL     1      -9.308   1.472  66.423  1.00  0.00    -0.320 OA 
HETATM   13  C   UNL     1      -7.893   3.111  65.479  1.00  0.00    -0.085 A  
HETATM   14  H   UNL     1      -8.869   0.794  65.923  1.00  0.00     0.000 HD 
HETATM   15  O   UNL     1      -7.246   2.127  64.788  1.00  0.00    -0.051 OA 
HETATM   16  C   UNL     1      -7.482   4.426  65.329  1.00  0.00    -0.077 A  
HETATM   17  C   UNL     1      -8.126   5.431  66.054  1.00  0.00    -0.107 A  
HETATM   18  H   UNL     1      -6.527   2.350  64.208  1.00  0.00     0.000 HD 
ENDBRANCH   8   9
ENDBRANCH   4   8
TORSDOF 2
ENDMDL
MODEL      281
REMARK 921   NORMALIZED FREE ENERGY PREDICTED BY IDOCK:   -1.79 KCAL/MOL
REMARK 922        TOTAL FREE ENERGY PREDICTED BY IDOCK:   -2.19 KCAL/MOL
REMARK 923 INTER-LIGAND FREE ENERGY PREDICTED BY IDOCK:   -2.57 KCAL/MOL
REMARK 924 INTRA-LIGAND FREE ENERGY PREDICTED BY IDOCK:    0.38 KCAL/MOL
REMARK 927      BINDING AFFINITY PREDICTED BY RF-SCORE:    0.00 PKD
ROOT
HETATM    1  N   UNL     1     -10.277   9.500  70.245  1.00  0.00    -0.242 NA 
HETATM    2  H2  UNL     1     -11.135   9.067  70.586  1.00  0.00     0.000 HD 
HETATM    3  H1  UNL     1     -10.376  10.515  70.212  1.00  0.00     0.000 HD 
HETATM    4  CA  UNL     1      -9.099   9.028  71.041  1.00  0.00    -0.257 C  
HETATM    5  C   UNL     1      -7.827   9.703  70.495  1.00  0.00    -0.121 C  
HETATM    6  OXT UNL     1      -6.689   9.469  70.870  1.00  0.00    -0.099 OA 
HETATM    7  O   UNL     1      -8.124  10.623  69.541  1.00  0.00    -0.135 OA 
ENDROOT
BRANCH   4   8
HETATM    8  C   UNL     1      -8.949   7.495  71.091  1.00  0.00    -0.144 C  
BRANCH   8   9
HETATM    9  C   UNL     1      -8.995   6.814  69.740  1.00  0.00    -0.144 A  
HETATM   10  C   UNL     1     -10.066   7.061  68.863  1.00  0.00    -0.174 A  
HETATM   11  C   UNL     1     -10.146   6.371  67.659  1.00  0.00    -0.151 A  
HETATM   12  O   UNL     1     -11.177   6.568  66.783  1.00  0.00    -0.661 OA 
HETATM   13  C   UNL     1      -9.170   5.442  67.316  1.00  0.00    -0.111 A  
HETATM   14  H   UNL     1     -11.232   6.097  65.960  1.00  0.00     0.000 HD 
HETATM   15  O   UNL     1      -9.271   4.746  66.146  1.00  0.00    -0.132 OA 
HETATM   16  C   UNL     1      -8.092   5.204  68.155  1.00  0.00    -0.094 A  
HETATM   17  C   UNL     1      -7.999   5.897  69.363  1.00  0.00    -0.102 A  
HETATM   18  H   UNL     1      -8.604   4.111  65.912  1.00  0.00     0.000 HD 
ENDBRANCH   8   9
ENDBRANCH   4   8
TORSDOF 2
ENDMDL
MODEL      282
REMARK 921   NORMALIZED FREE ENERGY PREDICTED BY IDOCK:   -1.61 KCAL/MOL
REMARK 922        TOTAL FREE ENERGY PREDICTED BY IDOCK:   -1.98 KCAL/MOL
REMARK 923 INTER-LIGAND FREE ENERGY PREDICTED BY IDOCK:   -1.83 KCAL/MOL
REMARK 924 INTRA-LIGAND FREE ENERGY PREDICTED BY IDOCK:   -0.15 KCAL/MOL
REMARK 927      BINDING AFFINITY PREDICTED BY RF-SCORE:    0.00 PKD
ROOT
HETATM    1  N   UNL     1      -8.100   9.622  67.729  1.00  0.00    -0.112 NA 
HETATM    2  H2  UNL     1      -7.484   8.887  67.384  1.00  0.00     0.000 HD 
HETATM    3  H1  UNL     1      -8.471  10.172  66.954  1.00  0.00     0.000 HD 
HETATM    4  CA  UNL     1      -9.152   9.048  68.628  1.00  0.00    -0.137 C  
HETATM    5  C   UNL     1     -10.059  10.188  69.125  1.00  0.00    -0.213 C  
HETATM    6  OXT UNL     1     -10.961  10.068  69.939  1.00  0.00    -0.253 OA 
HETATM    7  O   UNL     1      -9.746  11.368  68.528  1.00  0.00    -0.190 OA 
ENDROOT
BRANCH   4   8
HETATM    8  C   UNL     1      -8.592   8.218  69.799  1.00  0.00    -0.129 C  
BRANCH   8   9
HETATM    9  C   UNL     1      -8.509   6.730  69.531  1.00  0.00    -0.133 A  
HETATM   10  C   UNL     1      -8.730   6.235  68.233  1.00  0.00    -0.115 A  
HETATM   11  C   UNL     1      -8.735   4.863  68.009  1.00  0.00    -0.103 A  
HETATM   12  O   UNL     1      -8.959   4.337  66.768  1.00  0.00    -0.113 OA 
HETATM   13  C   UNL     1      -8.517   3.979  69.060  1.00  0.00    -0.077 A  
HETATM   14  H   UNL     1      -8.962   3.399  66.614  1.00  0.00     0.000 HD 
HETATM   15  O   UNL     1      -8.553   2.632  68.838  1.00  0.00    -0.064 OA 
HETATM   16  C   UNL     1      -8.271   4.448  70.342  1.00  0.00    -0.074 A  
HETATM   17  C   UNL     1      -8.258   5.824  70.576  1.00  0.00    -0.118 A  
HETATM   18  H   UNL     1      -8.405   2.029  69.557  1.00  0.00     0.000 HD 
ENDBRANCH   8   9
ENDBRANCH   4   8
TORSDOF 2
ENDMDL
MODEL      283
REMARK 921   NORMALIZED FREE ENERGY PREDICTED BY IDOCK:   -1.53 KCAL/MOL
REMARK 922        TOTAL FREE ENERGY PREDICTED BY IDOCK:   -1.90 KCAL/MOL
REMARK 923 INTER-LIGAND FREE ENERGY PREDICTED BY IDOCK:   -1.70 KCAL/MOL
REMARK 924 INTRA-LIGAND FREE ENERGY PREDICTED BY IDOCK:   -0.20 KCAL/MOL
REMARK 927      BINDING AFFINITY PREDICTED BY RF-SCORE:    0.00 PKD
ROOT
HETATM    1  N   UNL     1      -5.685   9.958  70.266  1.00  0.00    -0.046 NA 
HETATM    2  H2  UNL     1      -5.859   9.008  70.595  1.00  0.00     0.000 HD 
HETATM    3  H1  UNL     1      -4.683  10.126  70.170  1.00  0.00     0.000 HD 
HETATM    4  CA  UNL     1      -6.471  10.236  69.021  1.00  0.00    -0.045 C  
HETATM    5  C   UNL     1      -6.181  11.675  68.559  1.00  0.00    -0.051 C  
HETATM    6  OXT UNL     1      -6.727  12.238  67.624  1.00  0.00    -0.097 OA 
HETATM    7  O   UNL     1      -5.213  12.253  69.316  1.00  0.00    -0.066 OA 
ENDROOT
BRANCH   4   8
HETATM    8  C   UNL     1      -7.985   9.981  69.166  1.00  0.00    -0.116 C  
BRANCH   8   9
HETATM    9  C   UNL     1      -8.491   8.767  68.417  1.00  0.00    -0.130 A  
HETATM   10  C   UNL     1      -7.856   7.523  68.580  1.00  0.00    -0.122 A  
HETATM   11  C   UNL     1      -8.273   6.431  67.827  1.00  0.00    -0.118 A  
HETATM   12  O   UNL     1      -7.675   5.207  67.942  1.00  0.00    -0.086 OA 
HETATM   13  C   UNL     1      -9.317   6.562  66.919  1.00  0.00    -0.146 A  
HETATM   14  H   UNL     1      -7.960   4.460  67.428  1.00  0.00     0.000 HD 
HETATM   15  O   UNL     1      -9.701   5.492  66.161  1.00  0.00    -0.166 OA 
HETATM   16  C   UNL     1      -9.974   7.773  66.762  1.00  0.00    -0.331 A  
HETATM   17  C   UNL     1      -9.567   8.874  67.518  1.00  0.00    -0.183 A  
HETATM   18  H   UNL     1     -10.415   5.582  65.540  1.00  0.00     0.000 HD 
ENDBRANCH   8   9
ENDBRANCH   4   8
TORSDOF 2
ENDMDL
MODEL      284
REMARK 921   NORMALIZED FREE ENERGY PREDICTED BY IDOCK:   -1.31 KCAL/MOL
REMARK 922        TOTAL FREE ENERGY PREDICTED BY IDOCK:   -1.65 KCAL/MOL
REMARK 923 INTER-LIGAND FREE ENERGY PREDICTED BY IDOCK:   -1.93 KCAL/MOL
REMARK 924 INTRA-LIGAND FREE ENERGY PREDICTED BY IDOCK:    0.28 KCAL/MOL
REMARK 927      BINDING AFFINITY PREDICTED BY RF-SCORE:    0.00 PKD
ROOT
HETATM    1  N   UNL     1      -7.800   8.023  71.289  1.00  0.00    -0.086 NA 
HETATM    2  H2  UNL     1      -7.473   8.367  70.387  1.00  0.00     0.000 HD 
HETATM    3  H1  UNL     1      -7.104   8.198  72.014  1.00  0.00     0.000 HD 
HETATM    4  CA  UNL     1      -9.157   8.576  71.602  1.00  0.00    -0.229 C  
HETATM    5  C   UNL     1      -9.614   8.034  72.968  1.00  0.00    -0.277 C  
HETATM    6  OXT UNL     1     -10.708   8.227  73.473  1.00  0.00     0.305 OA 
HETATM    7  O   UNL     1      -8.630   7.315  73.570  1.00  0.00    -0.131 OA 
ENDROOT
BRANCH   4   8
HETATM    8  C   UNL     1     -10.209   8.312  70.507  1.00  0.00    -0.213 C  
BRANCH   8   9
HETATM    9  C   UNL     1      -9.665   8.332  69.094  1.00  0.00    -0.171 A  
HETATM   10  C   UNL     1      -8.667   9.256  68.737  1.00  0.00    -0.132 A  
HETATM   11  C   UNL     1      -8.230   9.326  67.419  1.00  0.00    -0.117 A  
HETATM   12  O   UNL     1      -7.272  10.218  67.025  1.00  0.00    -0.088 OA 
HETATM   13  C   UNL     1      -8.771   8.483  66.455  1.00  0.00    -0.132 A  
HETATM   14  H   UNL     1      -6.973  10.266  66.124  1.00  0.00     0.000 HD 
HETATM   15  O   UNL     1      -8.359   8.579  65.156  1.00  0.00    -0.153 OA 
HETATM   16  C   UNL     1      -9.737   7.548  66.791  1.00  0.00    -0.283 A  
HETATM   17  C   UNL     1     -10.178   7.465  68.114  1.00  0.00    -0.223 A  
HETATM   18  H   UNL     1      -8.730   8.003  64.498  1.00  0.00     0.000 HD 
ENDBRANCH   8   9
ENDBRANCH   4   8
TORSDOF 2
ENDMDL
MODEL      285
REMARK 921   NORMALIZED FREE ENERGY PREDICTED BY IDOCK:   -1.21 KCAL/MOL
REMARK 922        TOTAL FREE ENERGY PREDICTED BY IDOCK:   -1.53 KCAL/MOL
REMARK 923 INTER-LIGAND FREE ENERGY PREDICTED BY IDOCK:   -1.34 KCAL/MOL
REMARK 924 INTRA-LIGAND FREE ENERGY PREDICTED BY IDOCK:   -0.19 KCAL/MOL
REMARK 927      BINDING AFFINITY PREDICTED BY RF-SCORE:    0.00 PKD
ROOT
HETATM    1  N   UNL     1      -8.787   8.051  68.004  1.00  0.00    -0.128 NA 
HETATM    2  H2  UNL     1      -9.042   7.804  68.960  1.00  0.00     0.000 HD 
HETATM    3  H1  UNL     1      -8.298   8.946  67.983  1.00  0.00     0.000 HD 
HETATM    4  CA  UNL     1      -8.034   6.930  67.355  1.00  0.00    -0.112 C  
HETATM    5  C   UNL     1      -7.669   7.341  65.917  1.00  0.00    -0.097 C  
HETATM    6  OXT UNL     1      -7.126   6.621  65.094  1.00  0.00    -0.060 OA 
HETATM    7  O   UNL     1      -8.009   8.633  65.669  1.00  0.00    -0.097 OA 
ENDROOT
BRANCH   4   8
HETATM    8  C   UNL     1      -8.772   5.577  67.387  1.00  0.00    -0.107 C  
BRANCH   8   9
HETATM    9  C   UNL     1      -8.358   4.663  68.521  1.00  0.00    -0.088 A  
HETATM   10  C   UNL     1      -9.336   4.042  69.317  1.00  0.00    -0.238 A  
HETATM   11  C   UNL     1      -8.951   3.270  70.407  1.00  0.00    -0.101 A  
HETATM   12  O   UNL     1      -9.867   2.660  71.218  1.00  0.00    -0.154 OA 
HETATM   13  C   UNL     1      -7.604   3.106  70.710  1.00  0.00    -0.040 A  
HETATM   14  H   UNL     1      -9.604   2.132  71.962  1.00  0.00     0.000 HD 
HETATM   15  O   UNL     1      -7.234   2.371  71.800  1.00  0.00    -0.037 OA 
HETATM   16  C   UNL     1      -6.623   3.688  69.921  1.00  0.00    -0.033 A  
HETATM   17  C   UNL     1      -7.000   4.459  68.820  1.00  0.00    -0.051 A  
HETATM   18  H   UNL     1      -6.313   2.259  72.006  1.00  0.00     0.000 HD 
ENDBRANCH   8   9
ENDBRANCH   4   8
TORSDOF 2
ENDMDL
MODEL      286
REMARK 921   NORMALIZED FREE ENERGY PREDICTED BY IDOCK:   -1.18 KCAL/MOL
REMARK 922        TOTAL FREE ENERGY PREDICTED BY IDOCK:   -1.51 KCAL/MOL
REMARK 923 INTER-LIGAND FREE ENERGY PREDICTED BY IDOCK:   -1.39 KCAL/MOL
REMARK 924 INTRA-LIGAND FREE ENERGY PREDICTED BY IDOCK:   -0.11 KCAL/MOL
REMARK 927      BINDING AFFINITY PREDICTED BY RF-SCORE:    0.00 PKD
ROOT
HETATM    1  N   UNL     1      -7.894   8.975  68.064  1.00  0.00    -0.100 NA 
HETATM    2  H2  UNL     1      -8.445   8.415  68.715  1.00  0.00     0.000 HD 
HETATM    3  H1  UNL     1      -7.493   9.784  68.538  1.00  0.00     0.000 HD 
HETATM    4  CA  UNL     1      -6.886   8.120  67.359  1.00  0.00    -0.074 C  
HETATM    5  C   UNL     1      -6.078   9.000  66.388  1.00  0.00    -0.063 C  
HETATM    6  OXT UNL     1      -5.236   8.595  65.604  1.00  0.00    -0.033 OA 
HETATM    7  O   UNL     1      -6.404  10.313  66.521  1.00  0.00    -0.069 OA 
ENDROOT
BRANCH   4   8
HETATM    8  C   UNL     1      -7.492   6.897  66.643  1.00  0.00    -0.082 C  
BRANCH   8   9
HETATM    9  C   UNL     1      -7.769   5.714  67.547  1.00  0.00    -0.097 A  
HETATM   10  C   UNL     1      -8.541   4.636  67.079  1.00  0.00    -0.104 A  
HETATM   11  C   UNL     1      -8.862   3.592  67.940  1.00  0.00    -0.117 A  
HETATM   12  O   UNL     1      -9.621   2.531  67.532  1.00  0.00    -0.395 OA 
HETATM   13  C   UNL     1      -8.418   3.607  69.257  1.00  0.00    -0.065 A  
HETATM   14  H   UNL     1      -9.840   1.818  68.120  1.00  0.00     0.000 HD 
HETATM   15  O   UNL     1      -8.763   2.593  70.105  1.00  0.00    -0.058 OA 
HETATM   16  C   UNL     1      -7.634   4.648  69.730  1.00  0.00    -0.055 A  
HETATM   17  C   UNL     1      -7.301   5.698  68.872  1.00  0.00    -0.082 A  
HETATM   18  H   UNL     1      -8.460   2.604  71.005  1.00  0.00     0.000 HD 
ENDBRANCH   8   9
ENDBRANCH   4   8
TORSDOF 2
ENDMDL
MODEL      287
REMARK 921   NORMALIZED FREE ENERGY PREDICTED BY IDOCK:   -0.74 KCAL/MOL
REMARK 922        TOTAL FREE ENERGY PREDICTED BY IDOCK:   -1.01 KCAL/MOL
REMARK 923 INTER-LIGAND FREE ENERGY PREDICTED BY IDOCK:   -1.49 KCAL/MOL
REMARK 924 INTRA-LIGAND FREE ENERGY PREDICTED BY IDOCK:    0.49 KCAL/MOL
REMARK 927      BINDING AFFINITY PREDICTED BY RF-SCORE:    0.00 PKD
ROOT
HETATM    1  N   UNL     1      -7.467   8.301  71.239  1.00  0.00    -0.073 NA 
HETATM    2  H2  UNL     1      -7.381   9.213  70.792  1.00  0.00     0.000 HD 
HETATM    3  H1  UNL     1      -6.969   8.290  72.130  1.00  0.00     0.000 HD 
HETATM    4  CA  UNL     1      -8.906   7.898  71.341  1.00  0.00    -0.135 C  
HETATM    5  C   UNL     1      -8.991   6.520  72.020  1.00  0.00    -0.140 C  
HETATM    6  OXT UNL     1     -10.015   5.874  72.177  1.00  0.00    -0.169 OA 
HETATM    7  O   UNL     1      -7.772   6.103  72.451  1.00  0.00    -0.098 OA 
ENDROOT
BRANCH   4   8
HETATM    8  C   UNL     1      -9.658   7.915  69.995  1.00  0.00    -0.168 C  
BRANCH   8   9
HETATM    9  C   UNL     1      -8.889   7.313  68.838  1.00  0.00    -0.127 A  
HETATM   10  C   UNL     1      -7.590   7.765  68.545  1.00  0.00    -0.105 A  
HETATM   11  C   UNL     1      -6.921   7.269  67.432  1.00  0.00    -0.079 A  
HETATM   12  O   UNL     1      -5.664   7.691  67.100  1.00  0.00    -0.030 OA 
HETATM   13  C   UNL     1      -7.528   6.324  66.612  1.00  0.00    -0.090 A  
HETATM   14  H   UNL     1      -5.206   7.351  66.340  1.00  0.00     0.000 HD 
HETATM   15  O   UNL     1      -6.876   5.864  65.504  1.00  0.00    -0.050 OA 
HETATM   16  C   UNL     1      -8.797   5.846  66.899  1.00  0.00    -0.115 A  
HETATM   17  C   UNL     1      -9.475   6.333  68.018  1.00  0.00    -0.116 A  
HETATM   18  H   UNL     1      -7.291   5.218  64.943  1.00  0.00     0.000 HD 
ENDBRANCH   8   9
ENDBRANCH   4   8
TORSDOF 2
ENDMDL
