MODEL        1
REMARK 921   NORMALIZED FREE ENERGY PREDICTED BY IDOCK:   -7.07 KCAL/MOL
REMARK 922        TOTAL FREE ENERGY PREDICTED BY IDOCK:  -11.00 KCAL/MOL
REMARK 923 INTER-LIGAND FREE ENERGY PREDICTED BY IDOCK:   -9.97 KCAL/MOL
REMARK 924 INTRA-LIGAND FREE ENERGY PREDICTED BY IDOCK:   -1.03 KCAL/MOL
REMARK 927      BINDING AFFINITY PREDICTED BY RF-SCORE:    0.00 PKD
ROOT
HETATM    1  O   UNL     1     -13.099  11.850  63.534  1.00  0.00    -0.715 OA 
HETATM    2  C   UNL     1     -12.190  12.846  63.351  1.00  0.00    -0.490 C  
HETATM    3  C   UNL     1     -10.766  12.370  63.579  1.00  0.00    -0.430 C  
HETATM    4  O   UNL     1     -12.507  13.981  63.031  1.00  0.00    -0.641 OA 
ENDROOT
BRANCH   3   5
HETATM    5  O   UNL     1     -10.781  10.985  63.963  1.00  0.00    -0.379 OA 
BRANCH   5   6
HETATM    6  C   UNL     1      -9.880  10.741  65.060  1.00  0.00    -0.288 C  
BRANCH   6   7
HETATM    7  C   UNL     1     -10.201  11.733  66.194  1.00  0.00    -0.220 C  
BRANCH   7   8
HETATM    8  N   UNL     1     -11.537  11.577  66.793  1.00  0.00    -0.492 NA 
HETATM    9  C   UNL     1     -11.529  11.084  68.185  1.00  0.00    -0.302 C  
HETATM   10  C   UNL     1     -11.060  12.094  69.270  1.00  0.00    -0.167 C  
HETATM   11  N   UNL     1     -11.630  13.450  69.165  1.00  0.00    -0.294 NA 
HETATM   12  C   UNL     1     -11.737  13.915  67.783  1.00  0.00    -0.366 C  
HETATM   13  C   UNL     1     -12.271  12.859  66.788  1.00  0.00    -0.133 C  
BRANCH  11  14
HETATM   14  C   UNL     1     -11.061  14.411  70.154  1.00  0.00    -0.024 C  
BRANCH  14  15
HETATM   15  C   UNL     1     -12.029  14.863  71.279  1.00  0.00    -0.393 A  
HETATM   16  C   UNL     1     -11.539  15.344  72.503  1.00  0.00    -0.525 A  
HETATM   17  C   UNL     1     -13.429  14.878  71.098  1.00  0.00    -0.474 A  
HETATM   18  C   UNL     1     -12.409  15.830  73.493  1.00  0.00    -0.663 A  
HETATM   19  C   UNL     1     -13.782  15.842  73.273  1.00  0.00    -0.409 A  
HETATM   20  C   UNL     1     -14.295  15.363  72.076  1.00  0.00    -0.653 A  
ENDBRANCH  14  15
BRANCH  14  21
HETATM   21  C   UNL     1     -10.252  15.603  69.590  1.00  0.00    -0.291 A  
HETATM   22  C   UNL     1      -8.896  17.636  68.182  1.00  0.00    -0.269 A  
HETATM   23 CL   UNL     1      -8.090  18.804  67.211  1.00  0.00    -0.251 Cl 
HETATM   24  C   UNL     1      -8.193  16.539  68.660  1.00  0.00    -0.234 A  
HETATM   25  C   UNL     1     -10.925  16.766  69.167  1.00  0.00    -0.223 A  
HETATM   26  C   UNL     1      -8.863  15.547  69.382  1.00  0.00    -0.257 A  
HETATM   27  C   UNL     1     -10.250  17.776  68.468  1.00  0.00    -0.382 A  
ENDBRANCH  14  21
ENDBRANCH  11  14
ENDBRANCH   7   8
ENDBRANCH   6   7
ENDBRANCH   5   6
ENDBRANCH   3   5
TORSDOF 7
ENDMDL
MODEL        2
REMARK 921   NORMALIZED FREE ENERGY PREDICTED BY IDOCK:   -6.83 KCAL/MOL
REMARK 922        TOTAL FREE ENERGY PREDICTED BY IDOCK:  -10.65 KCAL/MOL
REMARK 923 INTER-LIGAND FREE ENERGY PREDICTED BY IDOCK:  -10.17 KCAL/MOL
REMARK 924 INTRA-LIGAND FREE ENERGY PREDICTED BY IDOCK:   -0.48 KCAL/MOL
REMARK 927      BINDING AFFINITY PREDICTED BY RF-SCORE:    0.00 PKD
ROOT
HETATM    1  O   UNL     1     -11.757  16.507  63.790  1.00  0.00    -1.086 OA 
HETATM    2  C   UNL     1     -11.703  15.273  64.360  1.00  0.00    -0.285 C  
HETATM    3  C   UNL     1     -10.579  15.159  65.375  1.00  0.00    -0.391 C  
HETATM    4  O   UNL     1     -12.487  14.379  64.079  1.00  0.00    -0.748 OA 
ENDROOT
BRANCH   3   5
HETATM    5  O   UNL     1      -9.854  16.400  65.424  1.00  0.00    -0.515 OA 
BRANCH   5   6
HETATM    6  C   UNL     1      -9.587  16.791  66.784  1.00  0.00    -0.249 C  
BRANCH   6   7
HETATM    7  C   UNL     1     -10.767  16.347  67.667  1.00  0.00    -0.312 C  
BRANCH   7   8
HETATM    8  N   UNL     1     -10.404  15.967  69.042  1.00  0.00    -0.218 NA 
HETATM    9  C   UNL     1     -11.540  15.527  69.877  1.00  0.00    -0.335 C  
HETATM   10  C   UNL     1     -12.132  14.127  69.549  1.00  0.00    -0.340 C  
HETATM   11  N   UNL     1     -11.144  13.051  69.345  1.00  0.00    -0.139 NA 
HETATM   12  C   UNL     1      -9.964  13.496  68.605  1.00  0.00    -0.145 C  
HETATM   13  C   UNL     1      -9.411  14.872  69.043  1.00  0.00    -0.196 C  
BRANCH  11  14
HETATM   14  C   UNL     1     -11.754  11.758  68.920  1.00  0.00    -0.323 C  
BRANCH  14  15
HETATM   15  C   UNL     1     -11.832  10.663  70.016  1.00  0.00    -0.403 A  
HETATM   16  C   UNL     1     -10.702   9.910  70.368  1.00  0.00    -0.379 A  
HETATM   17  C   UNL     1     -13.014  10.426  70.752  1.00  0.00    -0.422 A  
HETATM   18  C   UNL     1     -10.748   8.976  71.416  1.00  0.00    -0.401 A  
HETATM   19  C   UNL     1     -11.927   8.780  72.127  1.00  0.00    -0.436 A  
HETATM   20  C   UNL     1     -13.064   9.503  71.794  1.00  0.00    -0.504 A  
ENDBRANCH  14  15
BRANCH  14  21
HETATM   21  C   UNL     1     -11.285  11.171  67.567  1.00  0.00    -0.369 A  
HETATM   22  C   UNL     1     -10.046  10.246  65.208  1.00  0.00    -0.289 A  
HETATM   23 CL   UNL     1      -9.184   9.756  63.803  1.00  0.00    -0.283 Cl 
HETATM   24  C   UNL     1     -10.774  11.428  65.190  1.00  0.00    -0.332 A  
HETATM   25  C   UNL     1     -10.610   9.934  67.538  1.00  0.00    -0.333 A  
HETATM   26  C   UNL     1     -11.410  11.869  66.353  1.00  0.00    -0.400 A  
HETATM   27  C   UNL     1      -9.997   9.475  66.364  1.00  0.00    -0.339 A  
ENDBRANCH  14  21
ENDBRANCH  11  14
ENDBRANCH   7   8
ENDBRANCH   6   7
ENDBRANCH   5   6
ENDBRANCH   3   5
TORSDOF 7
ENDMDL
MODEL        3
REMARK 921   NORMALIZED FREE ENERGY PREDICTED BY IDOCK:   -6.62 KCAL/MOL
REMARK 922        TOTAL FREE ENERGY PREDICTED BY IDOCK:  -10.36 KCAL/MOL
REMARK 923 INTER-LIGAND FREE ENERGY PREDICTED BY IDOCK:   -9.16 KCAL/MOL
REMARK 924 INTRA-LIGAND FREE ENERGY PREDICTED BY IDOCK:   -1.20 KCAL/MOL
REMARK 927      BINDING AFFINITY PREDICTED BY RF-SCORE:    0.00 PKD
ROOT
HETATM    1  O   UNL     1      -9.621   9.109  65.621  1.00  0.00    -0.262 OA 
HETATM    2  C   UNL     1      -8.543   9.400  64.843  1.00  0.00    -0.176 C  
HETATM    3  C   UNL     1      -8.885  10.373  63.729  1.00  0.00    -0.212 C  
HETATM    4  O   UNL     1      -7.434   8.927  65.045  1.00  0.00    -0.093 OA 
ENDROOT
BRANCH   3   5
HETATM    5  O   UNL     1     -10.286  10.693  63.790  1.00  0.00    -0.320 OA 
BRANCH   5   6
HETATM    6  C   UNL     1     -10.496  12.115  63.710  1.00  0.00    -0.437 C  
BRANCH   6   7
HETATM    7  C   UNL     1     -10.571  12.686  65.139  1.00  0.00    -0.298 C  
BRANCH   7   8
HETATM    8  N   UNL     1     -11.782  12.318  65.890  1.00  0.00    -0.463 NA 
HETATM    9  C   UNL     1     -11.522  11.624  67.168  1.00  0.00    -0.271 C  
HETATM   10  C   UNL     1     -10.960  12.499  68.324  1.00  0.00    -0.240 C  
HETATM   11  N   UNL     1     -11.632  13.796  68.524  1.00  0.00    -0.314 NA 
HETATM   12  C   UNL     1     -11.986  14.452  67.265  1.00  0.00    -0.377 C  
HETATM   13  C   UNL     1     -12.595  13.512  66.199  1.00  0.00    -0.295 C  
BRANCH  11  14
HETATM   14  C   UNL     1     -10.984  14.647  69.563  1.00  0.00    -0.245 C  
BRANCH  14  15
HETATM   15  C   UNL     1     -11.870  14.996  70.788  1.00  0.00    -0.372 A  
HETATM   16  C   UNL     1     -11.302  15.480  71.976  1.00  0.00    -0.445 A  
HETATM   17  C   UNL     1     -13.279  14.911  70.740  1.00  0.00    -0.377 A  
HETATM   18  C   UNL     1     -12.106  15.875  73.059  1.00  0.00    -0.615 A  
HETATM   19  C   UNL     1     -13.491  15.789  72.969  1.00  0.00    -0.672 A  
HETATM   20  C   UNL     1     -14.080  15.305  71.810  1.00  0.00    -0.654 A  
ENDBRANCH  14  15
BRANCH  14  21
HETATM   21  C   UNL     1     -10.191  15.880  69.069  1.00  0.00    -0.227 A  
HETATM   22  C   UNL     1      -8.622  18.171  68.569  1.00  0.00    -0.294 A  
HETATM   23 CL   UNL     1      -7.658  19.584  68.399  1.00  0.00    -0.355 Cl 
HETATM   24  C   UNL     1      -9.999  18.291  68.704  1.00  0.00    -0.410 A  
HETATM   25  C   UNL     1      -8.804  15.776  68.846  1.00  0.00    -0.220 A  
HETATM   26  C   UNL     1     -10.777  17.151  68.923  1.00  0.00    -0.257 A  
HETATM   27  C   UNL     1      -8.026  16.915  68.597  1.00  0.00    -0.256 A  
ENDBRANCH  14  21
ENDBRANCH  11  14
ENDBRANCH   7   8
ENDBRANCH   6   7
ENDBRANCH   5   6
ENDBRANCH   3   5
TORSDOF 7
ENDMDL
MODEL        4
REMARK 921   NORMALIZED FREE ENERGY PREDICTED BY IDOCK:   -6.57 KCAL/MOL
REMARK 922        TOTAL FREE ENERGY PREDICTED BY IDOCK:  -10.29 KCAL/MOL
REMARK 923 INTER-LIGAND FREE ENERGY PREDICTED BY IDOCK:   -9.20 KCAL/MOL
REMARK 924 INTRA-LIGAND FREE ENERGY PREDICTED BY IDOCK:   -1.09 KCAL/MOL
REMARK 927      BINDING AFFINITY PREDICTED BY RF-SCORE:    0.00 PKD
ROOT
HETATM    1  O   UNL     1     -10.907  18.725  67.411  1.00  0.00    -0.449 OA 
HETATM    2  C   UNL     1     -10.341  19.587  66.524  1.00  0.00    -0.482 C  
HETATM    3  C   UNL     1      -9.056  20.196  67.056  1.00  0.00    -0.367 C  
HETATM    4  O   UNL     1     -10.825  19.820  65.427  1.00  0.00    -0.413 OA 
ENDROOT
BRANCH   3   5
HETATM    5  O   UNL     1      -8.812  19.707  68.386  1.00  0.00    -0.340 OA 
BRANCH   5   6
HETATM    6  C   UNL     1      -7.524  19.068  68.475  1.00  0.00    -0.317 C  
BRANCH   6   7
HETATM    7  C   UNL     1      -7.729  17.543  68.510  1.00  0.00    -0.272 C  
BRANCH   7   8
HETATM    8  N   UNL     1      -7.069  16.803  67.422  1.00  0.00    -0.145 NA 
HETATM    9  C   UNL     1      -6.693  15.417  67.765  1.00  0.00    -0.166 C  
HETATM   10  C   UNL     1      -7.860  14.395  67.874  1.00  0.00    -0.150 C  
HETATM   11  N   UNL     1      -8.855  14.447  66.786  1.00  0.00    -0.228 NA 
HETATM   12  C   UNL     1      -9.165  15.814  66.366  1.00  0.00    -0.312 C  
HETATM   13  C   UNL     1      -7.934  16.739  66.226  1.00  0.00    -0.316 C  
BRANCH  11  14
HETATM   14  C   UNL     1     -10.013  13.531  66.996  1.00  0.00    -0.247 C  
BRANCH  14  15
HETATM   15  C   UNL     1     -10.776  13.114  65.711  1.00  0.00    -0.292 A  
HETATM   16  C   UNL     1     -10.092  12.595  64.601  1.00  0.00    -0.260 A  
HETATM   17  C   UNL     1     -12.184  13.170  65.627  1.00  0.00    -0.521 A  
HETATM   18  C   UNL     1     -10.785  12.140  63.468  1.00  0.00    -0.509 A  
HETATM   19  C   UNL     1     -12.174  12.198  63.427  1.00  0.00    -0.635 A  
HETATM   20  C   UNL     1     -12.876  12.717  64.506  1.00  0.00    -0.356 A  
ENDBRANCH  14  15
BRANCH  14  21
HETATM   21  C   UNL     1     -10.988  13.883  68.144  1.00  0.00    -0.267 A  
HETATM   22  C   UNL     1     -12.426  14.670  70.441  1.00  0.00    -0.352 A  
HETATM   23 CL   UNL     1     -13.183  15.166  71.902  1.00  0.00    -0.430 Cl 
HETATM   24  C   UNL     1     -12.076  13.338  70.265  1.00  0.00    -0.405 A  
HETATM   25  C   UNL     1     -11.427  15.212  68.307  1.00  0.00    -0.350 A  
HETATM   26  C   UNL     1     -11.389  12.946  69.113  1.00  0.00    -0.329 A  
HETATM   27  C   UNL     1     -12.142  15.601  69.447  1.00  0.00    -0.287 A  
ENDBRANCH  14  21
ENDBRANCH  11  14
ENDBRANCH   7   8
ENDBRANCH   6   7
ENDBRANCH   5   6
ENDBRANCH   3   5
TORSDOF 7
ENDMDL
MODEL        5
REMARK 921   NORMALIZED FREE ENERGY PREDICTED BY IDOCK:   -6.56 KCAL/MOL
REMARK 922        TOTAL FREE ENERGY PREDICTED BY IDOCK:  -10.27 KCAL/MOL
REMARK 923 INTER-LIGAND FREE ENERGY PREDICTED BY IDOCK:  -10.43 KCAL/MOL
REMARK 924 INTRA-LIGAND FREE ENERGY PREDICTED BY IDOCK:    0.16 KCAL/MOL
REMARK 927      BINDING AFFINITY PREDICTED BY RF-SCORE:    0.00 PKD
ROOT
HETATM    1  O   UNL     1     -10.517  19.864  65.873  1.00  0.00    -0.503 OA 
HETATM    2  C   UNL     1     -10.503  19.128  67.017  1.00  0.00    -0.438 C  
HETATM    3  C   UNL     1     -10.501  17.636  66.739  1.00  0.00    -0.289 C  
HETATM    4  O   UNL     1     -10.484  19.634  68.129  1.00  0.00    -0.432 OA 
ENDROOT
BRANCH   3   5
HETATM    5  O   UNL     1     -10.549  17.415  65.319  1.00  0.00    -0.667 OA 
BRANCH   5   6
HETATM    6  C   UNL     1     -10.777  16.026  65.018  1.00  0.00    -0.378 C  
BRANCH   6   7
HETATM    7  C   UNL     1     -10.812  15.232  66.337  1.00  0.00    -0.317 C  
BRANCH   7   8
HETATM    8  N   UNL     1     -10.034  13.982  66.329  1.00  0.00    -0.297 NA 
HETATM    9  C   UNL     1      -9.339  13.687  67.599  1.00  0.00    -0.215 C  
HETATM   10  C   UNL     1     -10.236  13.228  68.783  1.00  0.00    -0.109 C  
HETATM   11  N   UNL     1     -11.250  12.208  68.455  1.00  0.00    -0.243 NA 
HETATM   12  C   UNL     1     -11.879  12.431  67.153  1.00  0.00    -0.291 C  
HETATM   13  C   UNL     1     -10.898  12.824  66.024  1.00  0.00    -0.276 C  
BRANCH  11  14
HETATM   14  C   UNL     1     -12.160  11.888  69.592  1.00  0.00    -0.239 C  
BRANCH  14  15
HETATM   15  C   UNL     1     -12.509  13.078  70.524  1.00  0.00    -0.306 A  
HETATM   16  C   UNL     1     -12.372  14.404  70.085  1.00  0.00    -0.406 A  
HETATM   17  C   UNL     1     -13.042  12.882  71.817  1.00  0.00    -0.458 A  
HETATM   18  C   UNL     1     -12.764  15.482  70.896  1.00  0.00    -0.525 A  
HETATM   19  C   UNL     1     -13.298  15.249  72.159  1.00  0.00    -0.519 A  
HETATM   20  C   UNL     1     -13.436  13.949  72.623  1.00  0.00    -0.652 A  
ENDBRANCH  14  15
BRANCH  14  21
HETATM   21  C   UNL     1     -11.849  10.607  70.402  1.00  0.00    -0.441 A  
HETATM   22  C   UNL     1     -11.274   8.525  72.217  1.00  0.00    -0.362 A  
HETATM   23 CL   UNL     1     -10.897   7.352  73.415  1.00  0.00    -0.419 Cl 
HETATM   24  C   UNL     1     -10.255   9.079  71.453  1.00  0.00    -0.399 A  
HETATM   25  C   UNL     1     -12.876   9.972  71.128  1.00  0.00    -0.480 A  
HETATM   26  C   UNL     1     -10.548  10.091  70.535  1.00  0.00    -0.313 A  
HETATM   27  C   UNL     1     -12.589   8.937  72.028  1.00  0.00    -0.460 A  
ENDBRANCH  14  21
ENDBRANCH  11  14
ENDBRANCH   7   8
ENDBRANCH   6   7
ENDBRANCH   5   6
ENDBRANCH   3   5
TORSDOF 7
ENDMDL
MODEL        6
REMARK 921   NORMALIZED FREE ENERGY PREDICTED BY IDOCK:   -6.53 KCAL/MOL
REMARK 922        TOTAL FREE ENERGY PREDICTED BY IDOCK:  -10.24 KCAL/MOL
REMARK 923 INTER-LIGAND FREE ENERGY PREDICTED BY IDOCK:   -9.66 KCAL/MOL
REMARK 924 INTRA-LIGAND FREE ENERGY PREDICTED BY IDOCK:   -0.58 KCAL/MOL
REMARK 927      BINDING AFFINITY PREDICTED BY RF-SCORE:    0.00 PKD
ROOT
HETATM    1  O   UNL     1     -10.809  12.721  64.084  1.00  0.00    -0.354 OA 
HETATM    2  C   UNL     1     -11.930  13.450  63.834  1.00  0.00    -0.465 C  
HETATM    3  C   UNL     1     -11.806  14.880  64.327  1.00  0.00    -0.297 C  
HETATM    4  O   UNL     1     -12.908  12.986  63.266  1.00  0.00    -0.596 OA 
ENDROOT
BRANCH   3   5
HETATM    5  O   UNL     1     -10.528  15.056  64.961  1.00  0.00    -0.388 OA 
BRANCH   5   6
HETATM    6  C   UNL     1     -10.338  16.423  65.374  1.00  0.00    -0.262 C  
BRANCH   6   7
HETATM    7  C   UNL     1      -8.886  16.596  65.858  1.00  0.00    -0.086 C  
BRANCH   7   8
HETATM    8  N   UNL     1      -8.741  17.302  67.142  1.00  0.00    -0.213 NA 
HETATM    9  C   UNL     1      -9.939  18.054  67.566  1.00  0.00    -0.327 C  
HETATM   10  C   UNL     1     -11.144  17.206  68.064  1.00  0.00    -0.113 C  
HETATM   11  N   UNL     1     -10.810  16.119  69.003  1.00  0.00    -0.277 NA 
HETATM   12  C   UNL     1      -9.570  15.427  68.653  1.00  0.00    -0.204 C  
HETATM   13  C   UNL     1      -8.411  16.358  68.229  1.00  0.00    -0.189 C  
BRANCH  11  14
HETATM   14  C   UNL     1     -11.978  15.263  69.360  1.00  0.00    -0.315 C  
BRANCH  14  15
HETATM   15  C   UNL     1     -12.510  15.427  70.808  1.00  0.00    -0.476 A  
HETATM   16  C   UNL     1     -11.651  15.795  71.855  1.00  0.00    -0.545 A  
HETATM   17  C   UNL     1     -13.879  15.286  71.121  1.00  0.00    -0.498 A  
HETATM   18  C   UNL     1     -12.143  16.025  73.151  1.00  0.00    -0.616 A  
HETATM   19  C   UNL     1     -13.500  15.889  73.418  1.00  0.00    -0.513 A  
HETATM   20  C   UNL     1     -14.371  15.517  72.404  1.00  0.00    -0.475 A  
ENDBRANCH  14  15
BRANCH  14  21
HETATM   21  C   UNL     1     -11.909  13.773  68.948  1.00  0.00    -0.396 A  
HETATM   22  C   UNL     1     -11.364  11.101  68.227  1.00  0.00    -0.297 A  
HETATM   23 CL   UNL     1     -10.903   9.508  67.773  1.00  0.00    -0.307 Cl 
HETATM   24  C   UNL     1     -11.657  12.037  67.244  1.00  0.00    -0.383 A  
HETATM   25  C   UNL     1     -11.691  12.786  69.929  1.00  0.00    -0.321 A  
HETATM   26  C   UNL     1     -11.954  13.354  67.607  1.00  0.00    -0.362 A  
HETATM   27  C   UNL     1     -11.422  11.458  69.570  1.00  0.00    -0.381 A  
ENDBRANCH  14  21
ENDBRANCH  11  14
ENDBRANCH   7   8
ENDBRANCH   6   7
ENDBRANCH   5   6
ENDBRANCH   3   5
TORSDOF 7
ENDMDL
MODEL        7
REMARK 921   NORMALIZED FREE ENERGY PREDICTED BY IDOCK:   -6.48 KCAL/MOL
REMARK 922        TOTAL FREE ENERGY PREDICTED BY IDOCK:  -10.17 KCAL/MOL
REMARK 923 INTER-LIGAND FREE ENERGY PREDICTED BY IDOCK:   -9.36 KCAL/MOL
REMARK 924 INTRA-LIGAND FREE ENERGY PREDICTED BY IDOCK:   -0.81 KCAL/MOL
REMARK 927      BINDING AFFINITY PREDICTED BY RF-SCORE:    0.00 PKD
ROOT
HETATM    1  O   UNL     1     -12.991  12.419  64.954  1.00  0.00    -0.762 OA 
HETATM    2  C   UNL     1     -12.353  12.397  63.752  1.00  0.00    -0.528 C  
HETATM    3  C   UNL     1     -11.870  13.774  63.335  1.00  0.00     0.082 C  
HETATM    4  O   UNL     1     -12.191  11.372  63.107  1.00  0.00    -0.149 OA 
ENDROOT
BRANCH   3   5
HETATM    5  O   UNL     1     -12.258  14.737  64.329  1.00  0.00    -0.493 OA 
BRANCH   5   6
HETATM    6  C   UNL     1     -11.145  15.567  64.711  1.00  0.00    -0.407 C  
BRANCH   6   7
HETATM    7  C   UNL     1     -11.142  15.717  66.244  1.00  0.00    -0.127 C  
BRANCH   7   8
HETATM    8  N   UNL     1     -10.024  15.050  66.930  1.00  0.00    -0.241 NA 
HETATM    9  C   UNL     1      -9.835  15.462  68.335  1.00  0.00    -0.215 C  
HETATM   10  C   UNL     1     -10.889  14.941  69.353  1.00  0.00    -0.264 C  
HETATM   11  N   UNL     1     -11.233  13.512  69.235  1.00  0.00    -0.254 NA 
HETATM   12  C   UNL     1     -11.327  13.063  67.846  1.00  0.00    -0.288 C  
HETATM   13  C   UNL     1     -10.199  13.583  66.925  1.00  0.00    -0.256 C  
BRANCH  11  14
HETATM   14  C   UNL     1     -12.330  13.088  70.152  1.00  0.00    -0.200 C  
BRANCH  14  15
HETATM   15  C   UNL     1     -12.722  14.116  71.247  1.00  0.00    -0.434 A  
HETATM   16  C   UNL     1     -13.990  14.716  71.254  1.00  0.00    -0.400 A  
HETATM   17  C   UNL     1     -11.854  14.437  72.313  1.00  0.00     0.132 A  
HETATM   18  C   UNL     1     -14.377  15.584  72.287  1.00  0.00    -0.556 A  
HETATM   19  C   UNL     1     -13.501  15.866  73.329  1.00  0.00    -0.599 A  
HETATM   20  C   UNL     1     -12.236  15.295  73.343  1.00  0.00    -0.595 A  
ENDBRANCH  14  15
BRANCH  14  21
HETATM   21  C   UNL     1     -12.253  11.653  70.725  1.00  0.00    -0.443 A  
HETATM   22  C   UNL     1     -12.315   8.919  71.419  1.00  0.00    -0.313 A  
HETATM   23 CL   UNL     1     -12.441   7.235  71.741  1.00  0.00    -0.366 Cl 
HETATM   24  C   UNL     1     -13.237   9.796  71.976  1.00  0.00    -0.557 A  
HETATM   25  C   UNL     1     -11.279  10.758  70.240  1.00  0.00    -0.326 A  
HETATM   26  C   UNL     1     -13.186  11.154  71.652  1.00  0.00    -0.449 A  
HETATM   27  C   UNL     1     -11.310   9.400  70.587  1.00  0.00    -0.352 A  
ENDBRANCH  14  21
ENDBRANCH  11  14
ENDBRANCH   7   8
ENDBRANCH   6   7
ENDBRANCH   5   6
ENDBRANCH   3   5
TORSDOF 7
ENDMDL
MODEL        8
REMARK 921   NORMALIZED FREE ENERGY PREDICTED BY IDOCK:   -6.44 KCAL/MOL
REMARK 922        TOTAL FREE ENERGY PREDICTED BY IDOCK:  -10.11 KCAL/MOL
REMARK 923 INTER-LIGAND FREE ENERGY PREDICTED BY IDOCK:   -9.87 KCAL/MOL
REMARK 924 INTRA-LIGAND FREE ENERGY PREDICTED BY IDOCK:   -0.24 KCAL/MOL
REMARK 927      BINDING AFFINITY PREDICTED BY RF-SCORE:    0.00 PKD
ROOT
HETATM    1  O   UNL     1     -10.014   9.856  64.733  1.00  0.00    -0.282 OA 
HETATM    2  C   UNL     1      -9.391  10.510  63.716  1.00  0.00    -0.281 C  
HETATM    3  C   UNL     1     -10.243  11.629  63.146  1.00  0.00    -0.354 C  
HETATM    4  O   UNL     1      -8.269  10.218  63.330  1.00  0.00    -0.159 OA 
ENDROOT
BRANCH   3   5
HETATM    5  O   UNL     1     -11.506  11.663  63.832  1.00  0.00    -0.385 OA 
BRANCH   5   6
HETATM    6  C   UNL     1     -12.083  12.982  63.793  1.00  0.00    -0.502 C  
BRANCH   6   7
HETATM    7  C   UNL     1     -12.298  13.471  65.238  1.00  0.00    -0.467 C  
BRANCH   7   8
HETATM    8  N   UNL     1     -11.064  13.796  65.972  1.00  0.00    -0.290 NA 
HETATM    9  C   UNL     1     -11.209  14.886  66.958  1.00  0.00    -0.344 C  
HETATM   10  C   UNL     1     -11.996  14.541  68.254  1.00  0.00    -0.268 C  
HETATM   11  N   UNL     1     -11.641  13.259  68.890  1.00  0.00    -0.292 NA 
HETATM   12  C   UNL     1     -11.397  12.191  67.921  1.00  0.00    -0.300 C  
HETATM   13  C   UNL     1     -10.553  12.615  66.697  1.00  0.00    -0.248 C  
BRANCH  11  14
HETATM   14  C   UNL     1     -12.503  12.918  70.059  1.00  0.00    -0.015 C  
BRANCH  14  15
HETATM   15  C   UNL     1     -12.671  14.042  71.116  1.00  0.00    -0.436 A  
HETATM   16  C   UNL     1     -13.945  14.470  71.519  1.00  0.00    -0.487 A  
HETATM   17  C   UNL     1     -11.563  14.629  71.764  1.00  0.00    -0.106 A  
HETATM   18  C   UNL     1     -14.103  15.428  72.533  1.00  0.00    -0.593 A  
HETATM   19  C   UNL     1     -12.988  15.974  73.159  1.00  0.00    -0.627 A  
HETATM   20  C   UNL     1     -11.715  15.578  72.774  1.00  0.00    -0.545 A  
ENDBRANCH  14  15
BRANCH  14  21
HETATM   21  C   UNL     1     -12.268  11.543  70.728  1.00  0.00    -0.463 A  
HETATM   22  C   UNL     1     -12.030   8.873  71.607  1.00  0.00    -0.345 A  
HETATM   23 CL   UNL     1     -11.969   7.211  72.044  1.00  0.00    -0.326 Cl 
HETATM   24  C   UNL     1     -13.043   9.679  72.108  1.00  0.00    -0.520 A  
HETATM   25  C   UNL     1     -11.201  10.730  70.299  1.00  0.00    -0.326 A  
HETATM   26  C   UNL     1     -13.142  11.009  71.693  1.00  0.00    -0.543 A  
HETATM   27  C   UNL     1     -11.083   9.404  70.737  1.00  0.00    -0.365 A  
ENDBRANCH  14  21
ENDBRANCH  11  14
ENDBRANCH   7   8
ENDBRANCH   6   7
ENDBRANCH   5   6
ENDBRANCH   3   5
TORSDOF 7
ENDMDL
MODEL        9
REMARK 921   NORMALIZED FREE ENERGY PREDICTED BY IDOCK:   -6.34 KCAL/MOL
REMARK 922        TOTAL FREE ENERGY PREDICTED BY IDOCK:   -9.98 KCAL/MOL
REMARK 923 INTER-LIGAND FREE ENERGY PREDICTED BY IDOCK:   -8.70 KCAL/MOL
REMARK 924 INTRA-LIGAND FREE ENERGY PREDICTED BY IDOCK:   -1.28 KCAL/MOL
REMARK 927      BINDING AFFINITY PREDICTED BY RF-SCORE:    0.00 PKD
ROOT
HETATM    1  O   UNL     1     -13.371   9.826  71.658  1.00  0.00    -0.380 OA 
HETATM    2  C   UNL     1     -12.974  11.123  71.548  1.00  0.00    -0.437 C  
HETATM    3  C   UNL     1     -11.837  11.292  70.557  1.00  0.00    -0.324 C  
HETATM    4  O   UNL     1     -13.497  12.031  72.177  1.00  0.00    -0.476 OA 
ENDROOT
BRANCH   3   5
HETATM    5  O   UNL     1     -11.469  10.006  70.029  1.00  0.00    -0.251 OA 
BRANCH   5   6
HETATM    6  C   UNL     1     -10.771  10.140  68.777  1.00  0.00    -0.220 C  
BRANCH   6   7
HETATM    7  C   UNL     1     -11.636  10.975  67.815  1.00  0.00    -0.194 C  
BRANCH   7   8
HETATM    8  N   UNL     1     -10.899  11.606  66.708  1.00  0.00    -0.264 NA 
HETATM    9  C   UNL     1     -11.699  12.549  65.899  1.00  0.00    -0.426 C  
HETATM   10  C   UNL     1     -12.041  13.910  66.568  1.00  0.00    -0.449 C  
HETATM   11  N   UNL     1     -10.921  14.580  67.255  1.00  0.00    -0.297 NA 
HETATM   12  C   UNL     1     -10.060  13.646  67.981  1.00  0.00    -0.250 C  
HETATM   13  C   UNL     1      -9.725  12.348  67.210  1.00  0.00    -0.201 C  
BRANCH  11  14
HETATM   14  C   UNL     1     -11.325  15.820  67.979  1.00  0.00    -0.310 C  
BRANCH  14  15
HETATM   15  C   UNL     1     -10.395  17.045  67.776  1.00  0.00    -0.335 A  
HETATM   16  C   UNL     1      -9.050  16.878  67.411  1.00  0.00    -0.221 A  
HETATM   17  C   UNL     1     -10.872  18.370  67.877  1.00  0.00    -0.234 A  
HETATM   18  C   UNL     1      -8.226  17.985  67.147  1.00  0.00    -0.231 A  
HETATM   19  C   UNL     1      -8.736  19.275  67.243  1.00  0.00    -0.323 A  
HETATM   20  C   UNL     1     -10.060  19.470  67.612  1.00  0.00    -0.526 A  
ENDBRANCH  14  15
BRANCH  14  21
HETATM   21  C   UNL     1     -11.741  15.665  69.461  1.00  0.00    -0.382 A  
HETATM   22  C   UNL     1     -12.716  15.741  72.107  1.00  0.00    -0.447 A  
HETATM   23 CL   UNL     1     -13.351  15.915  73.695  1.00  0.00    -0.517 Cl 
HETATM   24  C   UNL     1     -11.425  16.171  71.832  1.00  0.00    -0.360 A  
HETATM   25  C   UNL     1     -13.016  15.158  69.780  1.00  0.00     0.177 A  
HETATM   26  C   UNL     1     -10.934  16.106  70.526  1.00  0.00    -0.284 A  
HETATM   27  C   UNL     1     -13.499  15.195  71.095  1.00  0.00    -0.533 A  
ENDBRANCH  14  21
ENDBRANCH  11  14
ENDBRANCH   7   8
ENDBRANCH   6   7
ENDBRANCH   5   6
ENDBRANCH   3   5
TORSDOF 7
ENDMDL
MODEL       10
REMARK 921   NORMALIZED FREE ENERGY PREDICTED BY IDOCK:   -6.30 KCAL/MOL
REMARK 922        TOTAL FREE ENERGY PREDICTED BY IDOCK:   -9.91 KCAL/MOL
REMARK 923 INTER-LIGAND FREE ENERGY PREDICTED BY IDOCK:   -9.51 KCAL/MOL
REMARK 924 INTRA-LIGAND FREE ENERGY PREDICTED BY IDOCK:   -0.40 KCAL/MOL
REMARK 927      BINDING AFFINITY PREDICTED BY RF-SCORE:    0.00 PKD
ROOT
HETATM    1  O   UNL     1      -8.016  17.909  65.822  1.00  0.00    -0.540 OA 
HETATM    2  C   UNL     1      -9.081  18.170  66.627  1.00  0.00    -0.282 C  
HETATM    3  C   UNL     1     -10.285  17.313  66.281  1.00  0.00    -0.342 C  
HETATM    4  O   UNL     1      -9.043  18.996  67.527  1.00  0.00    -0.285 OA 
ENDROOT
BRANCH   3   5
HETATM    5  O   UNL     1      -9.967  16.476  65.156  1.00  0.00    -0.481 OA 
BRANCH   5   6
HETATM    6  C   UNL     1     -11.118  15.722  64.729  1.00  0.00    -0.400 C  
BRANCH   6   7
HETATM    7  C   UNL     1     -10.751  14.227  64.710  1.00  0.00    -0.416 C  
BRANCH   7   8
HETATM    8  N   UNL     1     -11.888  13.308  64.877  1.00  0.00    -0.345 NA 
HETATM    9  C   UNL     1     -11.518  11.952  65.332  1.00  0.00    -0.251 C  
HETATM   10  C   UNL     1     -11.077  11.822  66.818  1.00  0.00    -0.306 C  
HETATM   11  N   UNL     1     -11.929  12.523  67.796  1.00  0.00    -0.429 NA 
HETATM   12  C   UNL     1     -12.387  13.828  67.319  1.00  0.00    -0.164 C  
HETATM   13  C   UNL     1     -12.863  13.844  65.848  1.00  0.00    -0.339 C  
BRANCH  11  14
HETATM   14  C   UNL     1     -11.402  12.467  69.191  1.00  0.00    -0.274 C  
BRANCH  14  15
HETATM   15  C   UNL     1     -11.455  11.073  69.870  1.00  0.00    -0.400 A  
HETATM   16  C   UNL     1     -10.313  10.262  69.944  1.00  0.00    -0.281 A  
HETATM   17  C   UNL     1     -12.625  10.593  70.499  1.00  0.00    -0.433 A  
HETATM   18  C   UNL     1     -10.336   9.035  70.629  1.00  0.00    -0.284 A  
HETATM   19  C   UNL     1     -11.503   8.602  71.248  1.00  0.00    -0.341 A  
HETATM   20  C   UNL     1     -12.651   9.379  71.182  1.00  0.00    -0.357 A  
ENDBRANCH  14  15
BRANCH  14  21
HETATM   21  C   UNL     1     -11.854  13.586  70.159  1.00  0.00    -0.348 A  
HETATM   22  C   UNL     1     -12.381  15.476  72.185  1.00  0.00    -0.393 A  
HETATM   23 CL   UNL     1     -12.625  16.554  73.502  1.00  0.00    -0.469 Cl 
HETATM   24  C   UNL     1     -13.195  14.360  72.051  1.00  0.00    -0.453 A  
HETATM   25  C   UNL     1     -11.095  14.768  70.265  1.00  0.00    -0.185 A  
HETATM   26  C   UNL     1     -12.949  13.440  71.029  1.00  0.00    -0.260 A  
HETATM   27  C   UNL     1     -11.358  15.707  71.271  1.00  0.00    -0.451 A  
ENDBRANCH  14  21
ENDBRANCH  11  14
ENDBRANCH   7   8
ENDBRANCH   6   7
ENDBRANCH   5   6
ENDBRANCH   3   5
TORSDOF 7
ENDMDL
MODEL       11
REMARK 921   NORMALIZED FREE ENERGY PREDICTED BY IDOCK:   -6.29 KCAL/MOL
REMARK 922        TOTAL FREE ENERGY PREDICTED BY IDOCK:   -9.90 KCAL/MOL
REMARK 923 INTER-LIGAND FREE ENERGY PREDICTED BY IDOCK:   -9.55 KCAL/MOL
REMARK 924 INTRA-LIGAND FREE ENERGY PREDICTED BY IDOCK:   -0.35 KCAL/MOL
REMARK 927      BINDING AFFINITY PREDICTED BY RF-SCORE:    0.00 PKD
ROOT
HETATM    1  O   UNL     1     -12.856  11.862  63.236  1.00  0.00    -0.702 OA 
HETATM    2  C   UNL     1     -12.079  12.923  63.588  1.00  0.00    -0.535 C  
HETATM    3  C   UNL     1     -10.646  12.513  63.876  1.00  0.00    -0.440 C  
HETATM    4  O   UNL     1     -12.508  14.066  63.647  1.00  0.00    -0.803 OA 
ENDROOT
BRANCH   3   5
HETATM    5  O   UNL     1     -10.518  11.089  63.727  1.00  0.00    -0.363 OA 
BRANCH   5   6
HETATM    6  C   UNL     1      -9.722  10.526  64.787  1.00  0.00    -0.305 C  
BRANCH   6   7
HETATM    7  C   UNL     1     -10.648  10.166  65.964  1.00  0.00    -0.001 C  
BRANCH   7   8
HETATM    8  N   UNL     1      -9.994  10.141  67.282  1.00  0.00    -0.186 NA 
HETATM    9  C   UNL     1      -8.984  11.200  67.484  1.00  0.00    -0.139 C  
HETATM   10  C   UNL     1      -9.529  12.642  67.681  1.00  0.00    -0.189 C  
HETATM   11  N   UNL     1     -10.663  12.771  68.616  1.00  0.00    -0.250 NA 
HETATM   12  C   UNL     1     -11.624  11.675  68.497  1.00  0.00    -0.317 C  
HETATM   13  C   UNL     1     -10.987  10.272  68.368  1.00  0.00    -0.260 C  
BRANCH  11  14
HETATM   14  C   UNL     1     -11.225  14.151  68.681  1.00  0.00    -0.266 C  
BRANCH  14  15
HETATM   15  C   UNL     1     -10.378  15.251  67.988  1.00  0.00    -0.244 A  
HETATM   16  C   UNL     1      -9.163  15.682  68.541  1.00  0.00    -0.197 A  
HETATM   17  C   UNL     1     -10.753  15.811  66.747  1.00  0.00    -0.293 A  
HETATM   18  C   UNL     1      -8.353  16.618  67.875  1.00  0.00    -0.187 A  
HETATM   19  C   UNL     1      -8.749  17.137  66.648  1.00  0.00    -0.281 A  
HETATM   20  C   UNL     1      -9.952  16.737  66.082  1.00  0.00    -0.345 A  
ENDBRANCH  14  15
BRANCH  14  21
HETATM   21  C   UNL     1     -11.759  14.628  70.053  1.00  0.00    -0.348 A  
HETATM   22  C   UNL     1     -12.355  15.384  72.704  1.00  0.00    -0.396 A  
HETATM   23 CL   UNL     1     -12.607  15.779  74.358  1.00  0.00    -0.732 Cl 
HETATM   24  C   UNL     1     -12.816  14.171  72.210  1.00  0.00    -0.415 A  
HETATM   25  C   UNL     1     -11.376  15.888  70.552  1.00  0.00    -0.409 A  
HETATM   26  C   UNL     1     -12.543  13.812  70.887  1.00  0.00    -0.428 A  
HETATM   27  C   UNL     1     -11.674  16.263  71.869  1.00  0.00    -0.518 A  
ENDBRANCH  14  21
ENDBRANCH  11  14
ENDBRANCH   7   8
ENDBRANCH   6   7
ENDBRANCH   5   6
ENDBRANCH   3   5
TORSDOF 7
ENDMDL
MODEL       12
REMARK 921   NORMALIZED FREE ENERGY PREDICTED BY IDOCK:   -6.28 KCAL/MOL
REMARK 922        TOTAL FREE ENERGY PREDICTED BY IDOCK:   -9.88 KCAL/MOL
REMARK 923 INTER-LIGAND FREE ENERGY PREDICTED BY IDOCK:   -8.89 KCAL/MOL
REMARK 924 INTRA-LIGAND FREE ENERGY PREDICTED BY IDOCK:   -0.99 KCAL/MOL
REMARK 927      BINDING AFFINITY PREDICTED BY RF-SCORE:    0.00 PKD
ROOT
HETATM    1  O   UNL     1      -8.791   8.178  65.039  1.00  0.00    -0.043 OA 
HETATM    2  C   UNL     1      -7.946   8.751  64.138  1.00  0.00    -0.154 C  
HETATM    3  C   UNL     1      -8.482  10.068  63.608  1.00  0.00    -0.180 C  
HETATM    4  O   UNL     1      -6.880   8.248  63.819  1.00  0.00    -0.074 OA 
ENDROOT
BRANCH   3   5
HETATM    5  O   UNL     1      -9.770  10.329  64.191  1.00  0.00    -0.303 OA 
BRANCH   5   6
HETATM    6  C   UNL     1     -10.118  11.722  64.078  1.00  0.00    -0.327 C  
BRANCH   6   7
HETATM    7  C   UNL     1     -10.237  12.318  65.493  1.00  0.00    -0.269 C  
BRANCH   7   8
HETATM    8  N   UNL     1     -11.548  12.131  66.136  1.00  0.00    -0.438 NA 
HETATM    9  C   UNL     1     -11.485  11.558  67.496  1.00  0.00    -0.282 C  
HETATM   10  C   UNL     1     -10.968  12.502  68.617  1.00  0.00    -0.255 C  
HETATM   11  N   UNL     1     -11.536  13.863  68.614  1.00  0.00    -0.304 NA 
HETATM   12  C   UNL     1     -11.697  14.408  67.267  1.00  0.00    -0.404 C  
HETATM   13  C   UNL     1     -12.276  13.412  66.235  1.00  0.00    -0.398 C  
BRANCH  11  14
HETATM   14  C   UNL     1     -10.924  14.764  69.633  1.00  0.00    -0.261 C  
BRANCH  14  15
HETATM   15  C   UNL     1     -11.848  15.164  70.813  1.00  0.00    -0.371 A  
HETATM   16  C   UNL     1     -13.242  15.032  70.716  1.00  0.00    -0.397 A  
HETATM   17  C   UNL     1     -11.331  15.606  72.050  1.00  0.00    -0.404 A  
HETATM   18  C   UNL     1     -14.077  15.315  71.810  1.00  0.00    -0.654 A  
HETATM   19  C   UNL     1     -13.530  15.736  73.017  1.00  0.00    -0.672 A  
HETATM   20  C   UNL     1     -12.155  15.885  73.139  1.00  0.00    -0.611 A  
ENDBRANCH  14  15
BRANCH  14  21
HETATM   21  C   UNL     1     -10.122  15.978  69.106  1.00  0.00    -0.242 A  
HETATM   22  C   UNL     1      -8.583  18.276  68.554  1.00  0.00    -0.306 A  
HETATM   23 CL   UNL     1      -7.652  19.708  68.348  1.00  0.00    -0.358 Cl 
HETATM   24  C   UNL     1      -9.969  18.348  68.526  1.00  0.00    -0.415 A  
HETATM   25  C   UNL     1      -8.716  15.914  69.047  1.00  0.00    -0.236 A  
HETATM   26  C   UNL     1     -10.729  17.201  68.772  1.00  0.00    -0.289 A  
HETATM   27  C   UNL     1      -7.952  17.056  68.771  1.00  0.00    -0.248 A  
ENDBRANCH  14  21
ENDBRANCH  11  14
ENDBRANCH   7   8
ENDBRANCH   6   7
ENDBRANCH   5   6
ENDBRANCH   3   5
TORSDOF 7
ENDMDL
MODEL       13
REMARK 921   NORMALIZED FREE ENERGY PREDICTED BY IDOCK:   -6.23 KCAL/MOL
REMARK 922        TOTAL FREE ENERGY PREDICTED BY IDOCK:   -9.81 KCAL/MOL
REMARK 923 INTER-LIGAND FREE ENERGY PREDICTED BY IDOCK:   -9.00 KCAL/MOL
REMARK 924 INTRA-LIGAND FREE ENERGY PREDICTED BY IDOCK:   -0.81 KCAL/MOL
REMARK 927      BINDING AFFINITY PREDICTED BY RF-SCORE:    0.00 PKD
ROOT
HETATM    1  O   UNL     1      -7.456  19.018  65.416  1.00  0.00    -0.442 OA 
HETATM    2  C   UNL     1      -6.945  20.212  65.824  1.00  0.00    -0.288 C  
HETATM    3  C   UNL     1      -7.521  20.657  67.156  1.00  0.00    -0.330 C  
HETATM    4  O   UNL     1      -6.112  20.830  65.178  1.00  0.00    -0.231 OA 
ENDROOT
BRANCH   3   5
HETATM    5  O   UNL     1      -8.487  19.691  67.604  1.00  0.00    -0.303 OA 
BRANCH   5   6
HETATM    6  C   UNL     1      -7.951  18.873  68.662  1.00  0.00    -0.346 C  
BRANCH   6   7
HETATM    7  C   UNL     1      -8.503  17.444  68.510  1.00  0.00    -0.274 C  
BRANCH   7   8
HETATM    8  N   UNL     1      -9.966  17.330  68.619  1.00  0.00    -0.309 NA 
HETATM    9  C   UNL     1     -10.648  16.972  67.359  1.00  0.00    -0.289 C  
HETATM   10  C   UNL     1     -10.478  15.503  66.879  1.00  0.00    -0.301 C  
HETATM   11  N   UNL     1     -10.653  14.470  67.917  1.00  0.00    -0.241 NA 
HETATM   12  C   UNL     1     -10.069  14.853  69.202  1.00  0.00    -0.226 C  
HETATM   13  C   UNL     1     -10.344  16.315  69.624  1.00  0.00    -0.261 C  
BRANCH  11  14
HETATM   14  C   UNL     1     -10.366  13.088  67.435  1.00  0.00    -0.234 C  
BRANCH  14  15
HETATM   15  C   UNL     1     -10.906  12.748  66.021  1.00  0.00    -0.301 A  
HETATM   16  C   UNL     1     -10.055  12.248  65.024  1.00  0.00    -0.277 A  
HETATM   17  C   UNL     1     -12.276  12.857  65.699  1.00  0.00    -0.519 A  
HETATM   18  C   UNL     1     -10.554  11.861  63.769  1.00  0.00    -0.475 A  
HETATM   19  C   UNL     1     -11.913  11.970  63.493  1.00  0.00    -0.605 A  
HETATM   20  C   UNL     1     -12.776  12.471  64.457  1.00  0.00    -0.440 A  
ENDBRANCH  14  15
BRANCH  14  21
HETATM   21  C   UNL     1     -10.615  11.930  68.430  1.00  0.00    -0.239 A  
HETATM   22  C   UNL     1     -10.936  10.088  70.542  1.00  0.00    -0.326 A  
HETATM   23 CL   UNL     1     -11.062   9.051  71.908  1.00  0.00    -0.443 Cl 
HETATM   24  C   UNL     1      -9.814  10.019  69.727  1.00  0.00    -0.270 A  
HETATM   25  C   UNL     1     -11.782  11.926  69.219  1.00  0.00    -0.389 A  
HETATM   26  C   UNL     1      -9.672  10.914  68.665  1.00  0.00    -0.188 A  
HETATM   27  C   UNL     1     -11.941  11.009  70.268  1.00  0.00    -0.452 A  
ENDBRANCH  14  21
ENDBRANCH  11  14
ENDBRANCH   7   8
ENDBRANCH   6   7
ENDBRANCH   5   6
ENDBRANCH   3   5
TORSDOF 7
ENDMDL
MODEL       14
REMARK 921   NORMALIZED FREE ENERGY PREDICTED BY IDOCK:   -6.22 KCAL/MOL
REMARK 922        TOTAL FREE ENERGY PREDICTED BY IDOCK:   -9.80 KCAL/MOL
REMARK 923 INTER-LIGAND FREE ENERGY PREDICTED BY IDOCK:   -9.60 KCAL/MOL
REMARK 924 INTRA-LIGAND FREE ENERGY PREDICTED BY IDOCK:   -0.21 KCAL/MOL
REMARK 927      BINDING AFFINITY PREDICTED BY RF-SCORE:    0.00 PKD
ROOT
HETATM    1  O   UNL     1     -12.651  14.764  64.015  1.00  0.00    -0.822 OA 
HETATM    2  C   UNL     1     -11.636  15.573  64.424  1.00  0.00    -0.258 C  
HETATM    3  C   UNL     1     -10.658  14.849  65.331  1.00  0.00    -0.373 C  
HETATM    4  O   UNL     1     -11.541  16.741  64.078  1.00  0.00    -1.195 OA 
ENDROOT
BRANCH   3   5
HETATM    5  O   UNL     1     -11.104  13.498  65.534  1.00  0.00    -0.292 OA 
BRANCH   5   6
HETATM    6  C   UNL     1     -10.031  12.560  65.326  1.00  0.00    -0.207 C  
BRANCH   6   7
HETATM    7  C   UNL     1      -9.209  12.453  66.623  1.00  0.00    -0.218 C  
BRANCH   7   8
HETATM    8  N   UNL     1      -8.621  11.128  66.877  1.00  0.00    -0.143 NA 
HETATM    9  C   UNL     1      -8.177  10.911  68.269  1.00  0.00    -0.127 C  
HETATM   10  C   UNL     1      -9.300  10.716  69.326  1.00  0.00    -0.117 C  
HETATM   11  N   UNL     1     -10.384   9.793  68.939  1.00  0.00    -0.201 NA 
HETATM   12  C   UNL     1     -10.768   9.926  67.534  1.00  0.00    -0.272 C  
HETATM   13  C   UNL     1      -9.581  10.053  66.551  1.00  0.00    -0.187 C  
BRANCH  11  14
HETATM   14  C   UNL     1     -11.493   9.730  69.934  1.00  0.00    -0.140 C  
BRANCH  14  15
HETATM   15  C   UNL     1     -11.985  11.098  70.475  1.00  0.00    -0.475 A  
HETATM   16  C   UNL     1     -11.671  12.293  69.809  1.00  0.00    -0.368 A  
HETATM   17  C   UNL     1     -12.820  11.197  71.609  1.00  0.00    -0.524 A  
HETATM   18  C   UNL     1     -12.182  13.525  70.249  1.00  0.00    -0.417 A  
HETATM   19  C   UNL     1     -13.013  13.581  71.363  1.00  0.00    -0.421 A  
HETATM   20  C   UNL     1     -13.331  12.416  72.047  1.00  0.00    -0.511 A  
ENDBRANCH  14  15
BRANCH  14  21
HETATM   21  C   UNL     1     -11.361   8.687  71.069  1.00  0.00    -0.322 A  
HETATM   22  C   UNL     1     -10.823   6.606  72.896  1.00  0.00    -0.262 A  
HETATM   23 CL   UNL     1     -10.425   5.277  73.911  1.00  0.00    -0.289 Cl 
HETATM   24  C   UNL     1     -11.928   6.524  72.059  1.00  0.00    -0.372 A  
HETATM   25  C   UNL     1     -10.296   8.783  71.986  1.00  0.00    -0.411 A  
HETATM   26  C   UNL     1     -12.208   7.569  71.175  1.00  0.00    -0.330 A  
HETATM   27  C   UNL     1     -10.030   7.749  72.894  1.00  0.00    -0.341 A  
ENDBRANCH  14  21
ENDBRANCH  11  14
ENDBRANCH   7   8
ENDBRANCH   6   7
ENDBRANCH   5   6
ENDBRANCH   3   5
TORSDOF 7
ENDMDL
MODEL       15
REMARK 921   NORMALIZED FREE ENERGY PREDICTED BY IDOCK:   -6.20 KCAL/MOL
REMARK 922        TOTAL FREE ENERGY PREDICTED BY IDOCK:   -9.77 KCAL/MOL
REMARK 923 INTER-LIGAND FREE ENERGY PREDICTED BY IDOCK:   -9.05 KCAL/MOL
REMARK 924 INTRA-LIGAND FREE ENERGY PREDICTED BY IDOCK:   -0.72 KCAL/MOL
REMARK 927      BINDING AFFINITY PREDICTED BY RF-SCORE:    0.00 PKD
ROOT
HETATM    1  O   UNL     1     -12.716  14.729  63.989  1.00  0.00    -0.786 OA 
HETATM    2  C   UNL     1     -11.641  15.494  64.323  1.00  0.00    -0.194 C  
HETATM    3  C   UNL     1     -10.684  14.766  65.249  1.00  0.00    -0.390 C  
HETATM    4  O   UNL     1     -11.482  16.631  63.903  1.00  0.00    -1.186 OA 
ENDROOT
BRANCH   3   5
HETATM    5  O   UNL     1     -11.209  13.461  65.546  1.00  0.00    -0.288 OA 
BRANCH   5   6
HETATM    6  C   UNL     1     -10.367  12.427  65.001  1.00  0.00    -0.293 C  
BRANCH   6   7
HETATM    7  C   UNL     1      -9.392  11.955  66.096  1.00  0.00    -0.219 C  
BRANCH   7   8
HETATM    8  N   UNL     1      -9.151  10.503  66.127  1.00  0.00    -0.158 NA 
HETATM    9  C   UNL     1      -8.149  10.071  67.123  1.00  0.00    -0.117 C  
HETATM   10  C   UNL     1      -8.593  10.121  68.612  1.00  0.00    -0.123 C  
HETATM   11  N   UNL     1      -9.932   9.569  68.895  1.00  0.00    -0.173 NA 
HETATM   12  C   UNL     1     -10.914   9.906  67.865  1.00  0.00    -0.223 C  
HETATM   13  C   UNL     1     -10.399   9.766  66.414  1.00  0.00    -0.177 C  
BRANCH  11  14
HETATM   14  C   UNL     1     -10.359   9.746  70.313  1.00  0.00    -0.291 C  
BRANCH  14  15
HETATM   15  C   UNL     1     -10.607   8.435  71.105  1.00  0.00    -0.266 A  
HETATM   16  C   UNL     1     -10.145   8.288  72.421  1.00  0.00    -0.383 A  
HETATM   17  C   UNL     1     -11.362   7.370  70.568  1.00  0.00    -0.295 A  
HETATM   18  C   UNL     1     -10.438   7.136  73.170  1.00  0.00    -0.361 A  
HETATM   19  C   UNL     1     -11.196   6.113  72.612  1.00  0.00    -0.312 A  
HETATM   20  C   UNL     1     -11.658   6.227  71.308  1.00  0.00    -0.336 A  
ENDBRANCH  14  15
BRANCH  14  21
HETATM   21  C   UNL     1     -11.466  10.791  70.588  1.00  0.00    -0.314 A  
HETATM   22  C   UNL     1     -13.220  12.854  71.379  1.00  0.00    -0.176 A  
HETATM   23 CL   UNL     1     -14.208  14.132  71.968  1.00  0.00    -0.598 Cl 
HETATM   24  C   UNL     1     -13.404  11.566  71.863  1.00  0.00    -0.408 A  
HETATM   25  C   UNL     1     -11.354  12.088  70.048  1.00  0.00    -0.054 A  
HETATM   26  C   UNL     1     -12.551  10.540  71.448  1.00  0.00    -0.539 A  
HETATM   27  C   UNL     1     -12.226  13.111  70.441  1.00  0.00    -0.389 A  
ENDBRANCH  14  21
ENDBRANCH  11  14
ENDBRANCH   7   8
ENDBRANCH   6   7
ENDBRANCH   5   6
ENDBRANCH   3   5
TORSDOF 7
ENDMDL
MODEL       16
REMARK 921   NORMALIZED FREE ENERGY PREDICTED BY IDOCK:   -6.19 KCAL/MOL
REMARK 922        TOTAL FREE ENERGY PREDICTED BY IDOCK:   -9.76 KCAL/MOL
REMARK 923 INTER-LIGAND FREE ENERGY PREDICTED BY IDOCK:   -9.37 KCAL/MOL
REMARK 924 INTRA-LIGAND FREE ENERGY PREDICTED BY IDOCK:   -0.40 KCAL/MOL
REMARK 927      BINDING AFFINITY PREDICTED BY RF-SCORE:    0.00 PKD
ROOT
HETATM    1  O   UNL     1      -7.596  20.173  65.834  1.00  0.00    -0.311 OA 
HETATM    2  C   UNL     1      -7.429  20.473  67.151  1.00  0.00    -0.328 C  
HETATM    3  C   UNL     1      -8.226  19.548  68.053  1.00  0.00    -0.316 C  
HETATM    4  O   UNL     1      -6.707  21.380  67.537  1.00  0.00    -0.546 OA 
ENDROOT
BRANCH   3   5
HETATM    5  O   UNL     1      -8.972  18.621  67.247  1.00  0.00    -0.269 OA 
BRANCH   5   6
HETATM    6  C   UNL     1     -10.326  18.495  67.721  1.00  0.00    -0.402 C  
BRANCH   6   7
HETATM    7  C   UNL     1     -10.623  17.006  67.980  1.00  0.00    -0.373 C  
BRANCH   7   8
HETATM    8  N   UNL     1     -10.206  16.512  69.303  1.00  0.00    -0.286 NA 
HETATM    9  C   UNL     1     -11.317  16.065  70.167  1.00  0.00    -0.365 C  
HETATM   10  C   UNL     1     -11.993  14.720  69.777  1.00  0.00    -0.321 C  
HETATM   11  N   UNL     1     -11.071  13.618  69.443  1.00  0.00    -0.191 NA 
HETATM   12  C   UNL     1      -9.912  14.063  68.670  1.00  0.00    -0.203 C  
HETATM   13  C   UNL     1      -9.270  15.377  69.172  1.00  0.00    -0.242 C  
BRANCH  11  14
HETATM   14  C   UNL     1     -11.765  12.388  68.964  1.00  0.00    -0.323 C  
BRANCH  14  15
HETATM   15  C   UNL     1     -11.650  11.151  69.893  1.00  0.00    -0.416 A  
HETATM   16  C   UNL     1     -10.447  10.438  70.002  1.00  0.00    -0.235 A  
HETATM   17  C   UNL     1     -12.719  10.734  70.716  1.00  0.00    -0.451 A  
HETATM   18  C   UNL     1     -10.315   9.369  70.902  1.00  0.00    -0.380 A  
HETATM   19  C   UNL     1     -11.385   8.995  71.707  1.00  0.00    -0.447 A  
HETATM   20  C   UNL     1     -12.591   9.676  71.614  1.00  0.00    -0.493 A  
ENDBRANCH  14  15
BRANCH  14  21
HETATM   21  C   UNL     1     -11.564  12.001  67.479  1.00  0.00    -0.401 A  
HETATM   22  C   UNL     1     -10.832  11.509  64.800  1.00  0.00    -0.297 A  
HETATM   23 CL   UNL     1     -10.290  11.301  63.182  1.00  0.00    -0.374 Cl 
HETATM   24  C   UNL     1     -11.744  12.513  65.095  1.00  0.00    -0.422 A  
HETATM   25  C   UNL     1     -10.706  10.935  67.145  1.00  0.00    -0.320 A  
HETATM   26  C   UNL     1     -12.126  12.737  66.420  1.00  0.00    -0.370 A  
HETATM   27  C   UNL     1     -10.344  10.690  65.813  1.00  0.00    -0.287 A  
ENDBRANCH  14  21
ENDBRANCH  11  14
ENDBRANCH   7   8
ENDBRANCH   6   7
ENDBRANCH   5   6
ENDBRANCH   3   5
TORSDOF 7
ENDMDL
MODEL       17
REMARK 921   NORMALIZED FREE ENERGY PREDICTED BY IDOCK:   -6.19 KCAL/MOL
REMARK 922        TOTAL FREE ENERGY PREDICTED BY IDOCK:   -9.75 KCAL/MOL
REMARK 923 INTER-LIGAND FREE ENERGY PREDICTED BY IDOCK:   -8.53 KCAL/MOL
REMARK 924 INTRA-LIGAND FREE ENERGY PREDICTED BY IDOCK:   -1.22 KCAL/MOL
REMARK 927      BINDING AFFINITY PREDICTED BY RF-SCORE:    0.00 PKD
ROOT
HETATM    1  O   UNL     1     -12.703  14.514  73.555  1.00  0.00    -0.459 OA 
HETATM    2  C   UNL     1     -13.247  13.861  72.492  1.00  0.00    -0.502 C  
HETATM    3  C   UNL     1     -12.516  14.166  71.197  1.00  0.00    -0.371 C  
HETATM    4  O   UNL     1     -14.207  13.112  72.596  1.00  0.00    -0.677 OA 
ENDROOT
BRANCH   3   5
HETATM    5  O   UNL     1     -11.457  15.103  71.457  1.00  0.00    -0.356 OA 
BRANCH   5   6
HETATM    6  C   UNL     1     -11.270  15.997  70.343  1.00  0.00    -0.387 C  
BRANCH   6   7
HETATM    7  C   UNL     1     -11.824  15.327  69.072  1.00  0.00    -0.318 C  
BRANCH   7   8
HETATM    8  N   UNL     1     -10.835  15.116  68.002  1.00  0.00    -0.275 NA 
HETATM    9  C   UNL     1      -9.682  14.278  68.391  1.00  0.00    -0.225 C  
HETATM   10  C   UNL     1      -9.961  12.758  68.557  1.00  0.00    -0.164 C  
HETATM   11  N   UNL     1     -10.761  12.138  67.484  1.00  0.00    -0.226 NA 
HETATM   12  C   UNL     1     -11.849  12.997  67.018  1.00  0.00    -0.377 C  
HETATM   13  C   UNL     1     -11.459  14.480  66.823  1.00  0.00    -0.367 C  
BRANCH  11  14
HETATM   14  C   UNL     1     -11.101  10.709  67.747  1.00  0.00    -0.321 C  
BRANCH  14  15
HETATM   15  C   UNL     1     -11.240  10.319  69.243  1.00  0.00    -0.281 A  
HETATM   16  C   UNL     1     -12.406  10.620  69.962  1.00  0.00    -0.341 A  
HETATM   17  C   UNL     1     -10.238   9.590  69.920  1.00  0.00    -0.261 A  
HETATM   18  C   UNL     1     -12.568  10.197  71.292  1.00  0.00    -0.508 A  
HETATM   19  C   UNL     1     -11.565   9.468  71.922  1.00  0.00    -0.268 A  
HETATM   20  C   UNL     1     -10.397   9.165  71.237  1.00  0.00    -0.405 A  
ENDBRANCH  14  15
BRANCH  14  21
HETATM   21  C   UNL     1     -10.311   9.641  66.954  1.00  0.00    -0.307 A  
HETATM   22  C   UNL     1      -8.667   7.620  65.873  1.00  0.00    -0.152 A  
HETATM   23 CL   UNL     1      -7.592   6.394  65.327  1.00  0.00    -0.085 Cl 
HETATM   24  C   UNL     1      -8.350   8.955  65.665  1.00  0.00    -0.144 A  
HETATM   25  C   UNL     1     -10.655   8.281  67.080  1.00  0.00    -0.340 A  
HETATM   26  C   UNL     1      -9.181   9.954  66.178  1.00  0.00    -0.211 A  
HETATM   27  C   UNL     1      -9.838   7.277  66.541  1.00  0.00    -0.202 A  
ENDBRANCH  14  21
ENDBRANCH  11  14
ENDBRANCH   7   8
ENDBRANCH   6   7
ENDBRANCH   5   6
ENDBRANCH   3   5
TORSDOF 7
ENDMDL
MODEL       18
REMARK 921   NORMALIZED FREE ENERGY PREDICTED BY IDOCK:   -6.18 KCAL/MOL
REMARK 922        TOTAL FREE ENERGY PREDICTED BY IDOCK:   -9.75 KCAL/MOL
REMARK 923 INTER-LIGAND FREE ENERGY PREDICTED BY IDOCK:   -8.58 KCAL/MOL
REMARK 924 INTRA-LIGAND FREE ENERGY PREDICTED BY IDOCK:   -1.17 KCAL/MOL
REMARK 927      BINDING AFFINITY PREDICTED BY RF-SCORE:    0.00 PKD
ROOT
HETATM    1  O   UNL     1     -14.355   7.142  71.470  1.00  0.00    -0.406 OA 
HETATM    2  C   UNL     1     -13.568   8.229  71.696  1.00  0.00    -0.346 C  
HETATM    3  C   UNL     1     -12.143   8.014  71.218  1.00  0.00    -0.291 C  
HETATM    4  O   UNL     1     -13.986   9.252  72.216  1.00  0.00    -0.440 OA 
ENDROOT
BRANCH   3   5
HETATM    5  O   UNL     1     -12.015   6.686  70.682  1.00  0.00    -0.395 OA 
BRANCH   5   6
HETATM    6  C   UNL     1     -10.895   6.596  69.782  1.00  0.00    -0.286 C  
BRANCH   6   7
HETATM    7  C   UNL     1      -9.927   7.756  70.080  1.00  0.00    -0.187 C  
BRANCH   7   8
HETATM    8  N   UNL     1      -9.116   8.197  68.932  1.00  0.00    -0.147 NA 
HETATM    9  C   UNL     1      -9.854   8.274  67.656  1.00  0.00    -0.169 C  
HETATM   10  C   UNL     1     -10.861   9.451  67.513  1.00  0.00    -0.138 C  
HETATM   11  N   UNL     1     -10.362  10.769  67.946  1.00  0.00    -0.177 NA 
HETATM   12  C   UNL     1      -9.544  10.697  69.157  1.00  0.00    -0.177 C  
HETATM   13  C   UNL     1      -8.530   9.530  69.180  1.00  0.00    -0.131 C  
BRANCH  11  14
HETATM   14  C   UNL     1     -11.399  11.841  67.901  1.00  0.00    -0.292 C  
BRANCH  14  15
HETATM   15  C   UNL     1     -11.256  12.860  66.740  1.00  0.00    -0.337 A  
HETATM   16  C   UNL     1     -12.355  13.196  65.935  1.00  0.00    -0.462 A  
HETATM   17  C   UNL     1     -10.044  13.541  66.488  1.00  0.00    -0.282 A  
HETATM   18  C   UNL     1     -12.250  14.178  64.936  1.00  0.00    -0.451 A  
HETATM   19  C   UNL     1     -11.044  14.838  64.727  1.00  0.00    -0.393 A  
HETATM   20  C   UNL     1      -9.937  14.518  65.501  1.00  0.00    -0.373 A  
ENDBRANCH  14  15
BRANCH  14  21
HETATM   21  C   UNL     1     -11.739  12.547  69.235  1.00  0.00    -0.379 A  
HETATM   22  C   UNL     1     -12.752  13.870  71.510  1.00  0.00    -0.357 A  
HETATM   23 CL   UNL     1     -13.480  14.706  72.825  1.00  0.00    -0.559 Cl 
HETATM   24  C   UNL     1     -12.025  14.579  70.563  1.00  0.00    -0.387 A  
HETATM   25  C   UNL     1     -12.408  11.836  70.251  1.00  0.00    -0.320 A  
HETATM   26  C   UNL     1     -11.501  13.915  69.451  1.00  0.00    -0.334 A  
HETATM   27  C   UNL     1     -12.910  12.495  71.382  1.00  0.00    -0.359 A  
ENDBRANCH  14  21
ENDBRANCH  11  14
ENDBRANCH   7   8
ENDBRANCH   6   7
ENDBRANCH   5   6
ENDBRANCH   3   5
TORSDOF 7
ENDMDL
MODEL       19
REMARK 921   NORMALIZED FREE ENERGY PREDICTED BY IDOCK:   -6.16 KCAL/MOL
REMARK 922        TOTAL FREE ENERGY PREDICTED BY IDOCK:   -9.71 KCAL/MOL
REMARK 923 INTER-LIGAND FREE ENERGY PREDICTED BY IDOCK:   -9.15 KCAL/MOL
REMARK 924 INTRA-LIGAND FREE ENERGY PREDICTED BY IDOCK:   -0.56 KCAL/MOL
REMARK 927      BINDING AFFINITY PREDICTED BY RF-SCORE:    0.00 PKD
ROOT
HETATM    1  O   UNL     1     -10.932  19.458  65.174  1.00  0.00    -0.430 OA 
HETATM    2  C   UNL     1     -10.495  18.639  66.168  1.00  0.00    -0.430 C  
HETATM    3  C   UNL     1     -10.605  17.172  65.791  1.00  0.00    -0.195 C  
HETATM    4  O   UNL     1     -10.058  19.059  67.229  1.00  0.00    -0.327 OA 
ENDROOT
BRANCH   3   5
HETATM    5  O   UNL     1     -11.182  17.059  64.479  1.00  0.00    -1.091 OA 
BRANCH   5   6
HETATM    6  C   UNL     1     -11.775  15.761  64.284  1.00  0.00    -0.162 C  
BRANCH   6   7
HETATM    7  C   UNL     1     -10.719  14.683  64.590  1.00  0.00    -0.286 C  
BRANCH   7   8
HETATM    8  N   UNL     1     -11.145  13.302  64.312  1.00  0.00    -0.382 NA 
HETATM    9  C   UNL     1     -10.101  12.282  64.538  1.00  0.00    -0.254 C  
HETATM   10  C   UNL     1      -9.751  11.972  66.021  1.00  0.00    -0.239 C  
HETATM   11  N   UNL     1     -10.905  11.794  66.922  1.00  0.00    -0.257 NA 
HETATM   12  C   UNL     1     -11.992  12.733  66.646  1.00  0.00    -0.341 C  
HETATM   13  C   UNL     1     -12.307  12.929  65.145  1.00  0.00    -0.493 C  
BRANCH  11  14
HETATM   14  C   UNL     1     -10.520  11.616  68.352  1.00  0.00    -0.213 C  
BRANCH  14  15
HETATM   15  C   UNL     1     -10.115  10.175  68.761  1.00  0.00    -0.198 A  
HETATM   16  C   UNL     1      -9.347   9.940  69.911  1.00  0.00    -0.250 A  
HETATM   17  C   UNL     1     -10.556   9.043  68.041  1.00  0.00    -0.242 A  
HETATM   18  C   UNL     1      -9.047   8.633  70.329  1.00  0.00    -0.172 A  
HETATM   19  C   UNL     1      -9.510   7.542  69.603  1.00  0.00    -0.156 A  
HETATM   20  C   UNL     1     -10.264   7.745  68.455  1.00  0.00    -0.230 A  
ENDBRANCH  14  15
BRANCH  14  21
HETATM   21  C   UNL     1     -11.437  12.268  69.413  1.00  0.00    -0.341 A  
HETATM   22  C   UNL     1     -12.754  13.522  71.570  1.00  0.00    -0.322 A  
HETATM   23 CL   UNL     1     -13.442  14.274  72.954  1.00  0.00    -0.572 Cl 
HETATM   24  C   UNL     1     -12.754  12.137  71.469  1.00  0.00    -0.348 A  
HETATM   25  C   UNL     1     -11.523  13.672  69.495  1.00  0.00    -0.324 A  
HETATM   26  C   UNL     1     -12.125  11.520  70.385  1.00  0.00    -0.471 A  
HETATM   27  C   UNL     1     -12.179  14.294  70.566  1.00  0.00    -0.427 A  
ENDBRANCH  14  21
ENDBRANCH  11  14
ENDBRANCH   7   8
ENDBRANCH   6   7
ENDBRANCH   5   6
ENDBRANCH   3   5
TORSDOF 7
ENDMDL
MODEL       20
REMARK 921   NORMALIZED FREE ENERGY PREDICTED BY IDOCK:   -6.15 KCAL/MOL
REMARK 922        TOTAL FREE ENERGY PREDICTED BY IDOCK:   -9.70 KCAL/MOL
REMARK 923 INTER-LIGAND FREE ENERGY PREDICTED BY IDOCK:   -8.87 KCAL/MOL
REMARK 924 INTRA-LIGAND FREE ENERGY PREDICTED BY IDOCK:   -0.83 KCAL/MOL
REMARK 927      BINDING AFFINITY PREDICTED BY RF-SCORE:    0.00 PKD
ROOT
HETATM    1  O   UNL     1     -12.971  15.751  63.781  1.00  0.00    -0.382 OA 
HETATM    2  C   UNL     1     -11.981  14.954  64.269  1.00  0.00    -0.338 C  
HETATM    3  C   UNL     1     -10.829  15.759  64.843  1.00  0.00    -0.413 C  
HETATM    4  O   UNL     1     -12.041  13.734  64.245  1.00  0.00    -0.426 OA 
ENDROOT
BRANCH   3   5
HETATM    5  O   UNL     1     -11.098  17.161  64.677  1.00  0.00    -1.036 OA 
BRANCH   5   6
HETATM    6  C   UNL     1     -10.464  17.937  65.713  1.00  0.00    -0.196 C  
BRANCH   6   7
HETATM    7  C   UNL     1      -9.380  17.074  66.384  1.00  0.00    -0.270 C  
BRANCH   7   8
HETATM    8  N   UNL     1      -9.407  17.080  67.856  1.00  0.00    -0.237 NA 
HETATM    9  C   UNL     1     -10.752  16.925  68.444  1.00  0.00    -0.368 C  
HETATM   10  C   UNL     1     -11.387  15.509  68.348  1.00  0.00    -0.354 C  
HETATM   11  N   UNL     1     -10.495  14.388  68.700  1.00  0.00    -0.241 NA 
HETATM   12  C   UNL     1      -9.130  14.573  68.209  1.00  0.00    -0.196 C  
HETATM   13  C   UNL     1      -8.563  15.998  68.404  1.00  0.00    -0.185 C  
BRANCH  11  14
HETATM   14  C   UNL     1     -11.110  13.047  68.480  1.00  0.00    -0.266 C  
BRANCH  14  15
HETATM   15  C   UNL     1     -11.811  12.423  69.715  1.00  0.00    -0.387 A  
HETATM   16  C   UNL     1     -12.317  13.231  70.744  1.00  0.00    -0.425 A  
HETATM   17  C   UNL     1     -12.032  11.032  69.825  1.00  0.00    -0.428 A  
HETATM   18  C   UNL     1     -13.023  12.676  71.824  1.00  0.00    -0.417 A  
HETATM   19  C   UNL     1     -13.233  11.303  71.891  1.00  0.00    -0.491 A  
HETATM   20  C   UNL     1     -12.735  10.478  70.892  1.00  0.00    -0.495 A  
ENDBRANCH  14  15
BRANCH  14  21
HETATM   21  C   UNL     1     -10.262  12.000  67.721  1.00  0.00    -0.211 A  
HETATM   22  C   UNL     1      -8.456  10.413  66.245  1.00  0.00    -0.144 A  
HETATM   23 CL   UNL     1      -7.298   9.560  65.303  1.00  0.00    -0.100 Cl 
HETATM   24  C   UNL     1      -9.635  10.849  65.657  1.00  0.00    -0.268 A  
HETATM   25  C   UNL     1      -9.099  11.476  68.319  1.00  0.00    -0.185 A  
HETATM   26  C   UNL     1     -10.541  11.611  66.399  1.00  0.00    -0.299 A  
HETATM   27  C   UNL     1      -8.203  10.686  67.585  1.00  0.00    -0.107 A  
ENDBRANCH  14  21
ENDBRANCH  11  14
ENDBRANCH   7   8
ENDBRANCH   6   7
ENDBRANCH   5   6
ENDBRANCH   3   5
TORSDOF 7
ENDMDL
MODEL       21
REMARK 921   NORMALIZED FREE ENERGY PREDICTED BY IDOCK:   -6.11 KCAL/MOL
REMARK 922        TOTAL FREE ENERGY PREDICTED BY IDOCK:   -9.64 KCAL/MOL
REMARK 923 INTER-LIGAND FREE ENERGY PREDICTED BY IDOCK:   -9.45 KCAL/MOL
REMARK 924 INTRA-LIGAND FREE ENERGY PREDICTED BY IDOCK:   -0.19 KCAL/MOL
REMARK 927      BINDING AFFINITY PREDICTED BY RF-SCORE:    0.00 PKD
ROOT
HETATM    1  O   UNL     1      -9.016  19.860  65.735  1.00  0.00    -0.329 OA 
HETATM    2  C   UNL     1     -10.344  19.614  65.901  1.00  0.00    -0.488 C  
HETATM    3  C   UNL     1     -10.629  18.844  67.177  1.00  0.00    -0.458 C  
HETATM    4  O   UNL     1     -11.191  19.991  65.104  1.00  0.00    -0.247 OA 
ENDROOT
BRANCH   3   5
HETATM    5  O   UNL     1      -9.391  18.555  67.847  1.00  0.00    -0.283 OA 
BRANCH   5   6
HETATM    6  C   UNL     1      -9.125  17.140  67.860  1.00  0.00    -0.230 C  
BRANCH   6   7
HETATM    7  C   UNL     1     -10.344  16.402  67.276  1.00  0.00    -0.287 C  
BRANCH   7   8
HETATM    8  N   UNL     1     -10.082  15.022  66.838  1.00  0.00    -0.245 NA 
HETATM    9  C   UNL     1      -9.433  14.170  67.854  1.00  0.00    -0.211 C  
HETATM   10  C   UNL     1     -10.325  13.718  69.045  1.00  0.00    -0.066 C  
HETATM   11  N   UNL     1     -11.666  13.225  68.682  1.00  0.00    -0.320 NA 
HETATM   12  C   UNL     1     -12.284  13.999  67.606  1.00  0.00    -0.200 C  
HETATM   13  C   UNL     1     -11.334  14.347  66.437  1.00  0.00    -0.350 C  
BRANCH  11  14
HETATM   14  C   UNL     1     -12.525  12.916  69.863  1.00  0.00     0.031 C  
BRANCH  14  15
HETATM   15  C   UNL     1     -12.699  14.072  70.883  1.00  0.00    -0.420 A  
HETATM   16  C   UNL     1     -13.968  14.419  71.370  1.00  0.00    -0.395 A  
HETATM   17  C   UNL     1     -11.594  14.770  71.416  1.00  0.00    -0.305 A  
HETATM   18  C   UNL     1     -14.123  15.409  72.354  1.00  0.00    -0.645 A  
HETATM   19  C   UNL     1     -13.009  16.067  72.866  1.00  0.00    -0.555 A  
HETATM   20  C   UNL     1     -11.743  15.751  72.395  1.00  0.00    -0.577 A  
ENDBRANCH  14  15
BRANCH  14  21
HETATM   21  C   UNL     1     -12.280  11.564  70.575  1.00  0.00    -0.469 A  
HETATM   22  C   UNL     1     -12.023   8.925  71.537  1.00  0.00    -0.333 A  
HETATM   23 CL   UNL     1     -11.951   7.278  72.026  1.00  0.00    -0.325 Cl 
HETATM   24  C   UNL     1     -13.041   9.740  72.014  1.00  0.00    -0.546 A  
HETATM   25  C   UNL     1     -11.208  10.745  70.170  1.00  0.00    -0.345 A  
HETATM   26  C   UNL     1     -13.149  11.055  71.556  1.00  0.00    -0.500 A  
HETATM   27  C   UNL     1     -11.080   9.434  70.650  1.00  0.00    -0.351 A  
ENDBRANCH  14  21
ENDBRANCH  11  14
ENDBRANCH   7   8
ENDBRANCH   6   7
ENDBRANCH   5   6
ENDBRANCH   3   5
TORSDOF 7
ENDMDL
MODEL       22
REMARK 921   NORMALIZED FREE ENERGY PREDICTED BY IDOCK:   -6.10 KCAL/MOL
REMARK 922        TOTAL FREE ENERGY PREDICTED BY IDOCK:   -9.62 KCAL/MOL
REMARK 923 INTER-LIGAND FREE ENERGY PREDICTED BY IDOCK:   -8.70 KCAL/MOL
REMARK 924 INTRA-LIGAND FREE ENERGY PREDICTED BY IDOCK:   -0.92 KCAL/MOL
REMARK 927      BINDING AFFINITY PREDICTED BY RF-SCORE:    0.00 PKD
ROOT
HETATM    1  O   UNL     1     -10.875  19.684  65.471  1.00  0.00    -0.452 OA 
HETATM    2  C   UNL     1     -10.296  18.851  66.377  1.00  0.00    -0.443 C  
HETATM    3  C   UNL     1     -10.374  17.397  65.950  1.00  0.00    -0.269 C  
HETATM    4  O   UNL     1      -9.769  19.254  67.404  1.00  0.00    -0.307 OA 
ENDROOT
BRANCH   3   5
HETATM    5  O   UNL     1     -11.082  17.303  64.702  1.00  0.00    -1.052 OA 
BRANCH   5   6
HETATM    6  C   UNL     1     -11.317  15.929  64.341  1.00  0.00    -0.267 C  
BRANCH   6   7
HETATM    7  C   UNL     1     -10.988  15.036  65.551  1.00  0.00    -0.358 C  
BRANCH   7   8
HETATM    8  N   UNL     1     -12.135  14.302  66.109  1.00  0.00    -0.416 NA 
HETATM    9  C   UNL     1     -12.233  12.895  65.671  1.00  0.00    -0.463 C  
HETATM   10  C   UNL     1     -11.192  11.911  66.276  1.00  0.00    -0.337 C  
HETATM   11  N   UNL     1     -10.982  12.025  67.731  1.00  0.00    -0.220 NA 
HETATM   12  C   UNL     1     -10.981  13.411  68.198  1.00  0.00    -0.255 C  
HETATM   13  C   UNL     1     -12.091  14.297  67.586  1.00  0.00    -0.297 C  
BRANCH  11  14
HETATM   14  C   UNL     1      -9.893  11.144  68.245  1.00  0.00    -0.189 C  
BRANCH  14  15
HETATM   15  C   UNL     1      -9.275  10.171  67.206  1.00  0.00    -0.154 A  
HETATM   16  C   UNL     1      -8.092  10.496  66.527  1.00  0.00    -0.134 A  
HETATM   17  C   UNL     1      -9.832   8.898  66.953  1.00  0.00    -0.288 A  
HETATM   18  C   UNL     1      -7.485   9.584  65.647  1.00  0.00    -0.094 A  
HETATM   19  C   UNL     1      -8.055   8.333  65.434  1.00  0.00    -0.135 A  
HETATM   20  C   UNL     1      -9.232   7.989  66.085  1.00  0.00    -0.219 A  
ENDBRANCH  14  15
BRANCH  14  21
HETATM   21  C   UNL     1     -10.137  10.444  69.603  1.00  0.00    -0.226 A  
HETATM   22  C   UNL     1     -10.573   8.806  71.857  1.00  0.00    -0.354 A  
HETATM   23 CL   UNL     1     -10.861   7.705  73.146  1.00  0.00    -0.453 Cl 
HETATM   24  C   UNL     1     -11.642   9.455  71.256  1.00  0.00    -0.434 A  
HETATM   25  C   UNL     1      -9.060   9.840  70.281  1.00  0.00    -0.208 A  
HETATM   26  C   UNL     1     -11.420  10.288  70.157  1.00  0.00    -0.383 A  
HETATM   27  C   UNL     1      -9.277   9.028  71.402  1.00  0.00    -0.293 A  
ENDBRANCH  14  21
ENDBRANCH  11  14
ENDBRANCH   7   8
ENDBRANCH   6   7
ENDBRANCH   5   6
ENDBRANCH   3   5
TORSDOF 7
ENDMDL
MODEL       23
REMARK 921   NORMALIZED FREE ENERGY PREDICTED BY IDOCK:   -6.08 KCAL/MOL
REMARK 922        TOTAL FREE ENERGY PREDICTED BY IDOCK:   -9.61 KCAL/MOL
REMARK 923 INTER-LIGAND FREE ENERGY PREDICTED BY IDOCK:   -8.59 KCAL/MOL
REMARK 924 INTRA-LIGAND FREE ENERGY PREDICTED BY IDOCK:   -1.02 KCAL/MOL
REMARK 927      BINDING AFFINITY PREDICTED BY RF-SCORE:    0.00 PKD
ROOT
HETATM    1  O   UNL     1     -11.199  10.070  70.970  1.00  0.00    -0.341 OA 
HETATM    2  C   UNL     1     -12.153   9.481  71.740  1.00  0.00    -0.384 C  
HETATM    3  C   UNL     1     -13.296  10.427  72.059  1.00  0.00    -0.335 C  
HETATM    4  O   UNL     1     -12.080   8.319  72.112  1.00  0.00    -0.324 OA 
ENDROOT
BRANCH   3   5
HETATM    5  O   UNL     1     -13.028  11.713  71.474  1.00  0.00    -0.424 OA 
BRANCH   5   6
HETATM    6  C   UNL     1     -13.656  12.767  72.229  1.00  0.00    -0.465 C  
BRANCH   6   7
HETATM    7  C   UNL     1     -12.603  13.846  72.542  1.00  0.00    -0.068 C  
BRANCH   7   8
HETATM    8  N   UNL     1     -12.989  15.216  72.166  1.00  0.00    -0.328 NA 
HETATM    9  C   UNL     1     -11.856  16.153  72.023  1.00  0.00    -0.530 C  
HETATM   10  C   UNL     1     -10.960  15.963  70.767  1.00  0.00    -0.241 C  
HETATM   11  N   UNL     1     -11.681  15.766  69.496  1.00  0.00    -0.358 NA 
HETATM   12  C   UNL     1     -12.865  14.919  69.639  1.00  0.00     0.188 C  
HETATM   13  C   UNL     1     -13.727  15.224  70.886  1.00  0.00    -0.293 C  
BRANCH  11  14
HETATM   14  C   UNL     1     -10.782  15.472  68.342  1.00  0.00    -0.263 C  
BRANCH  14  15
HETATM   15  C   UNL     1      -9.980  16.681  67.794  1.00  0.00    -0.262 A  
HETATM   16  C   UNL     1      -8.691  16.514  67.266  1.00  0.00    -0.204 A  
HETATM   17  C   UNL     1     -10.532  17.980  67.738  1.00  0.00    -0.421 A  
HETATM   18  C   UNL     1      -7.995  17.591  66.694  1.00  0.00    -0.288 A  
HETATM   19  C   UNL     1      -8.577  18.853  66.644  1.00  0.00    -0.312 A  
HETATM   20  C   UNL     1      -9.846  19.050  67.169  1.00  0.00    -0.383 A  
ENDBRANCH  14  15
BRANCH  14  21
HETATM   21  C   UNL     1     -11.368  14.614  67.195  1.00  0.00    -0.365 A  
HETATM   22  C   UNL     1     -12.035  13.006  64.976  1.00  0.00    -0.397 A  
HETATM   23 CL   UNL     1     -12.316  12.042  63.580  1.00  0.00    -0.641 Cl 
HETATM   24  C   UNL     1     -12.176  14.385  64.899  1.00  0.00    -0.440 A  
HETATM   25  C   UNL     1     -11.313  13.209  67.275  1.00  0.00    -0.344 A  
HETATM   26  C   UNL     1     -11.872  15.177  66.009  1.00  0.00     0.089 A  
HETATM   27  C   UNL     1     -11.646  12.411  66.172  1.00  0.00    -0.452 A  
ENDBRANCH  14  21
ENDBRANCH  11  14
ENDBRANCH   7   8
ENDBRANCH   6   7
ENDBRANCH   5   6
ENDBRANCH   3   5
TORSDOF 7
ENDMDL
MODEL       24
REMARK 921   NORMALIZED FREE ENERGY PREDICTED BY IDOCK:   -6.08 KCAL/MOL
REMARK 922        TOTAL FREE ENERGY PREDICTED BY IDOCK:   -9.60 KCAL/MOL
REMARK 923 INTER-LIGAND FREE ENERGY PREDICTED BY IDOCK:   -8.53 KCAL/MOL
REMARK 924 INTRA-LIGAND FREE ENERGY PREDICTED BY IDOCK:   -1.08 KCAL/MOL
REMARK 927      BINDING AFFINITY PREDICTED BY RF-SCORE:    0.00 PKD
ROOT
HETATM    1  O   UNL     1     -10.408  19.770  67.627  1.00  0.00    -0.410 OA 
HETATM    2  C   UNL     1     -10.167  19.752  66.288  1.00  0.00    -0.509 C  
HETATM    3  C   UNL     1      -8.690  19.602  65.974  1.00  0.00    -0.240 C  
HETATM    4  O   UNL     1     -11.056  19.839  65.455  1.00  0.00    -0.389 OA 
ENDROOT
BRANCH   3   5
HETATM    5  O   UNL     1      -7.943  19.553  67.201  1.00  0.00    -0.257 OA 
BRANCH   5   6
HETATM    6  C   UNL     1      -6.983  18.479  67.182  1.00  0.00    -0.202 C  
BRANCH   6   7
HETATM    7  C   UNL     1      -7.724  17.149  67.409  1.00  0.00    -0.171 C  
BRANCH   7   8
HETATM    8  N   UNL     1      -8.137  16.899  68.800  1.00  0.00    -0.253 NA 
HETATM    9  C   UNL     1      -9.598  16.823  68.999  1.00  0.00    -0.230 C  
HETATM   10  C   UNL     1     -10.299  15.542  68.465  1.00  0.00    -0.225 C  
HETATM   11  N   UNL     1      -9.628  14.269  68.788  1.00  0.00    -0.191 NA 
HETATM   12  C   UNL     1      -8.171  14.355  68.691  1.00  0.00    -0.148 C  
HETATM   13  C   UNL     1      -7.560  15.636  69.305  1.00  0.00    -0.222 C  
BRANCH  11  14
HETATM   14  C   UNL     1     -10.272  13.081  68.156  1.00  0.00    -0.239 C  
BRANCH  14  15
HETATM   15  C   UNL     1     -10.912  13.329  66.764  1.00  0.00    -0.302 A  
HETATM   16  C   UNL     1     -10.171  13.148  65.586  1.00  0.00    -0.294 A  
HETATM   17  C   UNL     1     -12.273  13.674  66.619  1.00  0.00    -0.437 A  
HETATM   18  C   UNL     1     -10.768  13.292  64.323  1.00  0.00    -0.408 A  
HETATM   19  C   UNL     1     -12.116  13.620  64.220  1.00  0.00    -0.480 A  
HETATM   20  C   UNL     1     -12.871  13.814  65.368  1.00  0.00    -0.455 A  
ENDBRANCH  14  15
BRANCH  14  21
HETATM   21  C   UNL     1     -11.188  12.217  69.055  1.00  0.00    -0.319 A  
HETATM   22  C   UNL     1     -12.569  10.705  70.994  1.00  0.00    -0.416 A  
HETATM   23 CL   UNL     1     -13.299   9.788  72.252  1.00  0.00    -0.516 Cl 
HETATM   24  C   UNL     1     -11.808  10.061  70.028  1.00  0.00    -0.196 A  
HETATM   25  C   UNL     1     -12.033  12.840  69.995  1.00  0.00    -0.371 A  
HETATM   26  C   UNL     1     -11.148  10.812  69.051  1.00  0.00    -0.308 A  
HETATM   27  C   UNL     1     -12.720  12.087  70.957  1.00  0.00    -0.337 A  
ENDBRANCH  14  21
ENDBRANCH  11  14
ENDBRANCH   7   8
ENDBRANCH   6   7
ENDBRANCH   5   6
ENDBRANCH   3   5
TORSDOF 7
ENDMDL
MODEL       25
REMARK 921   NORMALIZED FREE ENERGY PREDICTED BY IDOCK:   -6.06 KCAL/MOL
REMARK 922        TOTAL FREE ENERGY PREDICTED BY IDOCK:   -9.57 KCAL/MOL
REMARK 923 INTER-LIGAND FREE ENERGY PREDICTED BY IDOCK:   -8.78 KCAL/MOL
REMARK 924 INTRA-LIGAND FREE ENERGY PREDICTED BY IDOCK:   -0.79 KCAL/MOL
REMARK 927      BINDING AFFINITY PREDICTED BY RF-SCORE:    0.00 PKD
ROOT
HETATM    1  O   UNL     1      -8.256  19.139  68.989  1.00  0.00    -0.321 OA 
HETATM    2  C   UNL     1      -7.353  19.664  68.117  1.00  0.00    -0.302 C  
HETATM    3  C   UNL     1      -8.024  20.415  66.982  1.00  0.00    -0.312 C  
HETATM    4  O   UNL     1      -6.146  19.540  68.260  1.00  0.00    -0.216 OA 
ENDROOT
BRANCH   3   5
HETATM    5  O   UNL     1      -9.451  20.330  67.131  1.00  0.00    -0.376 OA 
BRANCH   5   6
HETATM    6  C   UNL     1     -10.057  19.716  65.978  1.00  0.00    -0.461 C  
BRANCH   6   7
HETATM    7  C   UNL     1     -10.468  18.277  66.343  1.00  0.00    -0.366 C  
BRANCH   7   8
HETATM    8  N   UNL     1      -9.770  17.223  65.588  1.00  0.00    -0.529 NA 
HETATM    9  C   UNL     1      -8.564  16.691  66.254  1.00  0.00    -0.324 C  
HETATM   10  C   UNL     1      -8.807  15.774  67.486  1.00  0.00    -0.186 C  
HETATM   11  N   UNL     1      -9.848  14.743  67.316  1.00  0.00    -0.229 NA 
HETATM   12  C   UNL     1     -11.009  15.227  66.570  1.00  0.00    -0.295 C  
HETATM   13  C   UNL     1     -10.666  16.079  65.326  1.00  0.00    -0.399 C  
BRANCH  11  14
HETATM   14  C   UNL     1     -10.125  13.968  68.560  1.00  0.00    -0.236 C  
BRANCH  14  15
HETATM   15  C   UNL     1     -10.407  12.456  68.356  1.00  0.00    -0.236 A  
HETATM   16  C   UNL     1     -10.787  11.641  69.433  1.00  0.00    -0.151 A  
HETATM   17  C   UNL     1     -10.364  11.854  67.080  1.00  0.00    -0.239 A  
HETATM   18  C   UNL     1     -11.123  10.291  69.239  1.00  0.00    -0.293 A  
HETATM   19  C   UNL     1     -11.082   9.736  67.965  1.00  0.00    -0.168 A  
HETATM   20  C   UNL     1     -10.700  10.516  66.883  1.00  0.00    -0.281 A  
ENDBRANCH  14  15
BRANCH  14  21
HETATM   21  C   UNL     1     -11.110  14.596  69.574  1.00  0.00    -0.294 A  
HETATM   22  C   UNL     1     -12.695  15.520  71.717  1.00  0.00    -0.424 A  
HETATM   23 CL   UNL     1     -13.604  15.988  73.100  1.00  0.00    -0.633 Cl 
HETATM   24  C   UNL     1     -13.160  14.497  70.902  1.00  0.00    -0.405 A  
HETATM   25  C   UNL     1     -10.698  15.687  70.365  1.00  0.00    -0.336 A  
HETATM   26  C   UNL     1     -12.386  14.061  69.825  1.00  0.00    -0.344 A  
HETATM   27  C   UNL     1     -11.487  16.147  71.428  1.00  0.00    -0.429 A  
ENDBRANCH  14  21
ENDBRANCH  11  14
ENDBRANCH   7   8
ENDBRANCH   6   7
ENDBRANCH   5   6
ENDBRANCH   3   5
TORSDOF 7
ENDMDL
MODEL       26
REMARK 921   NORMALIZED FREE ENERGY PREDICTED BY IDOCK:   -6.03 KCAL/MOL
REMARK 922        TOTAL FREE ENERGY PREDICTED BY IDOCK:   -9.54 KCAL/MOL
REMARK 923 INTER-LIGAND FREE ENERGY PREDICTED BY IDOCK:   -8.54 KCAL/MOL
REMARK 924 INTRA-LIGAND FREE ENERGY PREDICTED BY IDOCK:   -1.00 KCAL/MOL
REMARK 927      BINDING AFFINITY PREDICTED BY RF-SCORE:    0.00 PKD
ROOT
HETATM    1  O   UNL     1     -10.663   9.116  71.707  1.00  0.00    -0.355 OA 
HETATM    2  C   UNL     1     -11.727   9.848  71.278  1.00  0.00    -0.392 C  
HETATM    3  C   UNL     1     -11.414  10.628  70.015  1.00  0.00    -0.325 C  
HETATM    4  O   UNL     1     -12.804   9.851  71.856  1.00  0.00    -0.395 OA 
ENDROOT
BRANCH   3   5
HETATM    5  O   UNL     1     -10.046  10.398  69.638  1.00  0.00    -0.231 OA 
BRANCH   5   6
HETATM    6  C   UNL     1      -9.954   9.935  68.277  1.00  0.00    -0.151 C  
BRANCH   6   7
HETATM    7  C   UNL     1     -10.543  11.012  67.347  1.00  0.00    -0.237 C  
BRANCH   7   8
HETATM    8  N   UNL     1      -9.551  11.766  66.566  1.00  0.00    -0.204 NA 
HETATM    9  C   UNL     1     -10.130  12.682  65.562  1.00  0.00    -0.265 C  
HETATM   10  C   UNL     1     -10.807  13.968  66.114  1.00  0.00    -0.291 C  
HETATM   11  N   UNL     1     -10.049  14.691  67.152  1.00  0.00    -0.243 NA 
HETATM   12  C   UNL     1      -9.385  13.794  68.098  1.00  0.00    -0.211 C  
HETATM   13  C   UNL     1      -8.687  12.576  67.449  1.00  0.00    -0.189 C  
BRANCH  11  14
HETATM   14  C   UNL     1     -10.790  15.848  67.732  1.00  0.00    -0.324 C  
BRANCH  14  15
HETATM   15  C   UNL     1     -10.028  17.200  67.726  1.00  0.00    -0.290 A  
HETATM   16  C   UNL     1     -10.679  18.394  67.380  1.00  0.00    -0.397 A  
HETATM   17  C   UNL     1      -8.680  17.299  68.133  1.00  0.00    -0.243 A  
HETATM   18  C   UNL     1     -10.016  19.630  67.453  1.00  0.00    -0.510 A  
HETATM   19  C   UNL     1      -8.691  19.690  67.872  1.00  0.00    -0.372 A  
HETATM   20  C   UNL     1      -8.019  18.523  68.210  1.00  0.00    -0.325 A  
ENDBRANCH  14  15
BRANCH  14  21
HETATM   21  C   UNL     1     -11.517  15.614  69.077  1.00  0.00    -0.369 A  
HETATM   22  C   UNL     1     -12.489  14.992  71.651  1.00  0.00    -0.339 A  
HETATM   23 CL   UNL     1     -12.974  14.532  73.235  1.00  0.00    -0.592 Cl 
HETATM   24  C   UNL     1     -12.855  14.208  70.565  1.00  0.00    -0.310 A  
HETATM   25  C   UNL     1     -11.229  16.439  70.181  1.00  0.00    -0.260 A  
HETATM   26  C   UNL     1     -12.395  14.535  69.287  1.00  0.00    -0.185 A  
HETATM   27  C   UNL     1     -11.713  16.130  71.459  1.00  0.00    -0.533 A  
ENDBRANCH  14  21
ENDBRANCH  11  14
ENDBRANCH   7   8
ENDBRANCH   6   7
ENDBRANCH   5   6
ENDBRANCH   3   5
TORSDOF 7
ENDMDL
MODEL       27
REMARK 921   NORMALIZED FREE ENERGY PREDICTED BY IDOCK:   -5.98 KCAL/MOL
REMARK 922        TOTAL FREE ENERGY PREDICTED BY IDOCK:   -9.45 KCAL/MOL
REMARK 923 INTER-LIGAND FREE ENERGY PREDICTED BY IDOCK:   -8.53 KCAL/MOL
REMARK 924 INTRA-LIGAND FREE ENERGY PREDICTED BY IDOCK:   -0.93 KCAL/MOL
REMARK 927      BINDING AFFINITY PREDICTED BY RF-SCORE:    0.00 PKD
ROOT
HETATM    1  O   UNL     1     -12.883  12.325  63.369  1.00  0.00    -0.754 OA 
HETATM    2  C   UNL     1     -11.562  12.169  63.660  1.00  0.00    -0.486 C  
HETATM    3  C   UNL     1     -10.948  13.434  64.232  1.00  0.00    -0.369 C  
HETATM    4  O   UNL     1     -10.965  11.118  63.481  1.00  0.00    -0.336 OA 
ENDROOT
BRANCH   3   5
HETATM    5  O   UNL     1     -11.944  14.470  64.276  1.00  0.00    -0.444 OA 
BRANCH   5   6
HETATM    6  C   UNL     1     -11.376  15.716  64.724  1.00  0.00    -0.343 C  
BRANCH   6   7
HETATM    7  C   UNL     1      -9.963  15.447  65.273  1.00  0.00    -0.270 C  
BRANCH   7   8
HETATM    8  N   UNL     1      -9.773  15.790  66.692  1.00  0.00    -0.238 NA 
HETATM    9  C   UNL     1     -11.005  15.731  67.505  1.00  0.00    -0.293 C  
HETATM   10  C   UNL     1     -11.549  14.311  67.828  1.00  0.00    -0.354 C  
HETATM   11  N   UNL     1     -10.542  13.331  68.275  1.00  0.00    -0.244 NA 
HETATM   12  C   UNL     1      -9.279  13.442  67.545  1.00  0.00    -0.219 C  
HETATM   13  C   UNL     1      -8.787  14.892  67.326  1.00  0.00    -0.201 C  
BRANCH  11  14
HETATM   14  C   UNL     1     -11.091  11.956  68.458  1.00  0.00    -0.243 C  
BRANCH  14  15
HETATM   15  C   UNL     1     -11.827  11.705  69.801  1.00  0.00    -0.428 A  
HETATM   16  C   UNL     1     -12.257  12.775  70.600  1.00  0.00    -0.374 A  
HETATM   17  C   UNL     1     -12.158  10.404  70.239  1.00  0.00    -0.370 A  
HETATM   18  C   UNL     1     -12.995  12.554  71.774  1.00  0.00    -0.419 A  
HETATM   19  C   UNL     1     -13.314  11.259  72.167  1.00  0.00    -0.263 A  
HETATM   20  C   UNL     1     -12.893  10.180  71.401  1.00  0.00    -0.530 A  
ENDBRANCH  14  15
BRANCH  14  21
HETATM   21  C   UNL     1     -10.163  10.774  68.091  1.00  0.00    -0.194 A  
HETATM   22  C   UNL     1      -8.755   8.375  67.623  1.00  0.00    -0.137 A  
HETATM   23 CL   UNL     1      -7.979   6.853  67.426  1.00  0.00    -0.110 Cl 
HETATM   24  C   UNL     1      -8.362   9.219  68.652  1.00  0.00    -0.118 A  
HETATM   25  C   UNL     1     -10.489   9.941  67.003  1.00  0.00    -0.296 A  
HETATM   26  C   UNL     1      -9.043  10.420  68.865  1.00  0.00    -0.175 A  
HETATM   27  C   UNL     1      -9.788   8.750  66.770  1.00  0.00    -0.316 A  
ENDBRANCH  14  21
ENDBRANCH  11  14
ENDBRANCH   7   8
ENDBRANCH   6   7
ENDBRANCH   5   6
ENDBRANCH   3   5
TORSDOF 7
ENDMDL
MODEL       28
REMARK 921   NORMALIZED FREE ENERGY PREDICTED BY IDOCK:   -5.93 KCAL/MOL
REMARK 922        TOTAL FREE ENERGY PREDICTED BY IDOCK:   -9.40 KCAL/MOL
REMARK 923 INTER-LIGAND FREE ENERGY PREDICTED BY IDOCK:   -8.99 KCAL/MOL
REMARK 924 INTRA-LIGAND FREE ENERGY PREDICTED BY IDOCK:   -0.41 KCAL/MOL
REMARK 927      BINDING AFFINITY PREDICTED BY RF-SCORE:    0.00 PKD
ROOT
HETATM    1  O   UNL     1      -7.665  19.532  68.644  1.00  0.00    -0.344 OA 
HETATM    2  C   UNL     1      -7.902  20.499  67.717  1.00  0.00    -0.179 C  
HETATM    3  C   UNL     1      -9.289  20.382  67.110  1.00  0.00    -0.403 C  
HETATM    4  O   UNL     1      -7.081  21.358  67.431  1.00  0.00    -0.556 OA 
ENDROOT
BRANCH   3   5
HETATM    5  O   UNL     1      -9.961  19.242  67.670  1.00  0.00    -0.323 OA 
BRANCH   5   6
HETATM    6  C   UNL     1     -10.483  18.387  66.636  1.00  0.00    -0.385 C  
BRANCH   6   7
HETATM    7  C   UNL     1     -10.672  16.972  67.211  1.00  0.00    -0.206 C  
BRANCH   7   8
HETATM    8  N   UNL     1      -9.658  16.563  68.197  1.00  0.00    -0.222 NA 
HETATM    9  C   UNL     1     -10.167  15.687  69.271  1.00  0.00    -0.250 C  
HETATM   10  C   UNL     1     -10.496  14.222  68.866  1.00  0.00    -0.238 C  
HETATM   11  N   UNL     1      -9.480  13.549  68.036  1.00  0.00    -0.214 NA 
HETATM   12  C   UNL     1      -8.893  14.433  67.029  1.00  0.00    -0.237 C  
HETATM   13  C   UNL     1      -8.543  15.849  67.542  1.00  0.00    -0.168 C  
BRANCH  11  14
HETATM   14  C   UNL     1      -9.892  12.191  67.577  1.00  0.00    -0.191 C  
BRANCH  14  15
HETATM   15  C   UNL     1     -10.695  12.150  66.249  1.00  0.00    -0.296 A  
HETATM   16  C   UNL     1     -11.956  12.756  66.149  1.00  0.00    -0.476 A  
HETATM   17  C   UNL     1     -10.167  11.568  65.076  1.00  0.00    -0.328 A  
HETATM   18  C   UNL     1     -12.649  12.793  64.928  1.00  0.00    -0.541 A  
HETATM   19  C   UNL     1     -12.092  12.221  63.789  1.00  0.00    -0.624 A  
HETATM   20  C   UNL     1     -10.850  11.604  63.862  1.00  0.00    -0.471 A  
ENDBRANCH  14  15
BRANCH  14  21
HETATM   21  C   UNL     1     -10.504  11.246  68.638  1.00  0.00    -0.226 A  
HETATM   22  C   UNL     1     -11.586   9.850  70.838  1.00  0.00    -0.373 A  
HETATM   23 CL   UNL     1     -12.203   9.101  72.257  1.00  0.00    -0.389 Cl 
HETATM   24  C   UNL     1     -10.257   9.660  70.483  1.00  0.00    -0.351 A  
HETATM   25  C   UNL     1     -11.869  11.357  68.969  1.00  0.00    -0.415 A  
HETATM   26  C   UNL     1      -9.732  10.331  69.375  1.00  0.00    -0.242 A  
HETATM   27  C   UNL     1     -12.406  10.662  70.061  1.00  0.00    -0.341 A  
ENDBRANCH  14  21
ENDBRANCH  11  14
ENDBRANCH   7   8
ENDBRANCH   6   7
ENDBRANCH   5   6
ENDBRANCH   3   5
TORSDOF 7
ENDMDL
MODEL       29
REMARK 921   NORMALIZED FREE ENERGY PREDICTED BY IDOCK:   -5.91 KCAL/MOL
REMARK 922        TOTAL FREE ENERGY PREDICTED BY IDOCK:   -9.37 KCAL/MOL
REMARK 923 INTER-LIGAND FREE ENERGY PREDICTED BY IDOCK:   -8.35 KCAL/MOL
REMARK 924 INTRA-LIGAND FREE ENERGY PREDICTED BY IDOCK:   -1.02 KCAL/MOL
REMARK 927      BINDING AFFINITY PREDICTED BY RF-SCORE:    0.00 PKD
ROOT
HETATM    1  O   UNL     1     -12.737  15.193  63.777  1.00  0.00    -0.722 OA 
HETATM    2  C   UNL     1     -11.590  15.633  64.361  1.00  0.00    -0.249 C  
HETATM    3  C   UNL     1     -10.831  14.513  65.049  1.00  0.00    -0.412 C  
HETATM    4  O   UNL     1     -11.229  16.799  64.314  1.00  0.00    -1.163 OA 
ENDROOT
BRANCH   3   5
HETATM    5  O   UNL     1     -11.568  13.286  64.917  1.00  0.00    -0.308 OA 
BRANCH   5   6
HETATM    6  C   UNL     1     -12.031  12.818  66.198  1.00  0.00    -0.414 C  
BRANCH   6   7
HETATM    7  C   UNL     1     -11.059  11.739  66.711  1.00  0.00    -0.306 C  
BRANCH   7   8
HETATM    8  N   UNL     1     -10.469  12.015  68.031  1.00  0.00    -0.200 NA 
HETATM    9  C   UNL     1     -11.369  11.750  69.172  1.00  0.00    -0.279 C  
HETATM   10  C   UNL     1     -11.639  10.255  69.503  1.00  0.00    -0.168 C  
HETATM   11  N   UNL     1     -10.448   9.384  69.522  1.00  0.00    -0.210 NA 
HETATM   12  C   UNL     1      -9.497   9.699  68.457  1.00  0.00    -0.141 C  
HETATM   13  C   UNL     1      -9.248  11.211  68.243  1.00  0.00    -0.169 C  
BRANCH  11  14
HETATM   14  C   UNL     1     -10.771   7.943  69.728  1.00  0.00    -0.233 C  
BRANCH  14  15
HETATM   15  C   UNL     1     -10.588   7.417  71.176  1.00  0.00    -0.235 A  
HETATM   16  C   UNL     1      -9.797   8.113  72.103  1.00  0.00    -0.313 A  
HETATM   17  C   UNL     1     -11.259   6.266  71.643  1.00  0.00    -0.337 A  
HETATM   18  C   UNL     1      -9.695   7.686  73.437  1.00  0.00    -0.363 A  
HETATM   19  C   UNL     1     -10.382   6.555  73.864  1.00  0.00    -0.356 A  
HETATM   20  C   UNL     1     -11.163   5.841  72.966  1.00  0.00    -0.289 A  
ENDBRANCH  14  15
BRANCH  14  21
HETATM   21  C   UNL     1     -10.212   6.942  68.688  1.00  0.00    -0.181 A  
HETATM   22  C   UNL     1      -9.427   4.828  66.994  1.00  0.00    -0.152 A  
HETATM   23 CL   UNL     1      -9.005   3.454  66.050  1.00  0.00    -0.137 Cl 
HETATM   24  C   UNL     1      -8.587   5.243  68.018  1.00  0.00    -0.103 A  
HETATM   25  C   UNL     1     -11.008   6.556  67.592  1.00  0.00    -0.426 A  
HETATM   26  C   UNL     1      -8.966   6.309  68.838  1.00  0.00    -0.126 A  
HETATM   27  C   UNL     1     -10.617   5.506  66.750  1.00  0.00    -0.360 A  
ENDBRANCH  14  21
ENDBRANCH  11  14
ENDBRANCH   7   8
ENDBRANCH   6   7
ENDBRANCH   5   6
ENDBRANCH   3   5
TORSDOF 7
ENDMDL
MODEL       30
REMARK 921   NORMALIZED FREE ENERGY PREDICTED BY IDOCK:   -5.91 KCAL/MOL
REMARK 922        TOTAL FREE ENERGY PREDICTED BY IDOCK:   -9.37 KCAL/MOL
REMARK 923 INTER-LIGAND FREE ENERGY PREDICTED BY IDOCK:   -8.44 KCAL/MOL
REMARK 924 INTRA-LIGAND FREE ENERGY PREDICTED BY IDOCK:   -0.92 KCAL/MOL
REMARK 927      BINDING AFFINITY PREDICTED BY RF-SCORE:    0.00 PKD
ROOT
HETATM    1  O   UNL     1     -10.848  12.314  63.100  1.00  0.00    -0.377 OA 
HETATM    2  C   UNL     1     -12.101  12.613  63.537  1.00  0.00    -0.561 C  
HETATM    3  C   UNL     1     -12.144  13.925  64.300  1.00  0.00    -0.440 C  
HETATM    4  O   UNL     1     -13.066  11.897  63.318  1.00  0.00    -0.674 OA 
ENDROOT
BRANCH   3   5
HETATM    5  O   UNL     1     -10.819  14.476  64.377  1.00  0.00    -0.284 OA 
BRANCH   5   6
HETATM    6  C   UNL     1     -10.838  15.795  64.955  1.00  0.00    -0.413 C  
BRANCH   6   7
HETATM    7  C   UNL     1      -9.762  15.869  66.054  1.00  0.00    -0.343 C  
BRANCH   7   8
HETATM    8  N   UNL     1     -10.283  15.990  67.425  1.00  0.00    -0.267 NA 
HETATM    9  C   UNL     1     -11.449  15.130  67.714  1.00  0.00    -0.318 C  
HETATM   10  C   UNL     1     -11.163  13.609  67.859  1.00  0.00    -0.274 C  
HETATM   11  N   UNL     1      -9.995  13.259  68.690  1.00  0.00    -0.175 NA 
HETATM   12  C   UNL     1      -8.863  14.162  68.488  1.00  0.00    -0.173 C  
HETATM   13  C   UNL     1      -9.240  15.660  68.418  1.00  0.00    -0.191 C  
BRANCH  11  14
HETATM   14  C   UNL     1      -9.693  11.798  68.703  1.00  0.00    -0.128 C  
BRANCH  14  15
HETATM   15  C   UNL     1      -9.386  11.167  67.319  1.00  0.00    -0.170 A  
HETATM   16  C   UNL     1      -8.078  11.138  66.812  1.00  0.00    -0.155 A  
HETATM   17  C   UNL     1     -10.386  10.536  66.548  1.00  0.00    -0.294 A  
HETATM   18  C   UNL     1      -7.783  10.496  65.599  1.00  0.00    -0.139 A  
HETATM   19  C   UNL     1      -8.792   9.873  64.873  1.00  0.00    -0.223 A  
HETATM   20  C   UNL     1     -10.097   9.894  65.345  1.00  0.00    -0.270 A  
ENDBRANCH  14  15
BRANCH  14  21
HETATM   21  C   UNL     1     -10.626  10.894  69.543  1.00  0.00    -0.217 A  
HETATM   22  C   UNL     1     -12.264   9.525  71.387  1.00  0.00    -0.371 A  
HETATM   23 CL   UNL     1     -13.211   8.770  72.607  1.00  0.00    -0.400 Cl 
HETATM   24  C   UNL     1     -10.966   9.089  71.157  1.00  0.00    -0.371 A  
HETATM   25  C   UNL     1     -11.972  11.264  69.733  1.00  0.00    -0.431 A  
HETATM   26  C   UNL     1     -10.166   9.752  70.223  1.00  0.00    -0.346 A  
HETATM   27  C   UNL     1     -12.785  10.582  70.649  1.00  0.00    -0.441 A  
ENDBRANCH  14  21
ENDBRANCH  11  14
ENDBRANCH   7   8
ENDBRANCH   6   7
ENDBRANCH   5   6
ENDBRANCH   3   5
TORSDOF 7
ENDMDL
MODEL       31
REMARK 921   NORMALIZED FREE ENERGY PREDICTED BY IDOCK:   -5.91 KCAL/MOL
REMARK 922        TOTAL FREE ENERGY PREDICTED BY IDOCK:   -9.37 KCAL/MOL
REMARK 923 INTER-LIGAND FREE ENERGY PREDICTED BY IDOCK:   -8.21 KCAL/MOL
REMARK 924 INTRA-LIGAND FREE ENERGY PREDICTED BY IDOCK:   -1.16 KCAL/MOL
REMARK 927      BINDING AFFINITY PREDICTED BY RF-SCORE:    0.00 PKD
ROOT
HETATM    1  O   UNL     1     -12.877  10.230  71.795  1.00  0.00    -0.411 OA 
HETATM    2  C   UNL     1     -13.220   8.928  71.993  1.00  0.00    -0.409 C  
HETATM    3  C   UNL     1     -12.009   8.047  72.239  1.00  0.00    -0.358 C  
HETATM    4  O   UNL     1     -14.379   8.540  71.981  1.00  0.00    -0.430 OA 
ENDROOT
BRANCH   3   5
HETATM    5  O   UNL     1     -10.815   8.844  72.158  1.00  0.00    -0.355 OA 
BRANCH   5   6
HETATM    6  C   UNL     1      -9.750   8.119  71.515  1.00  0.00    -0.176 C  
BRANCH   6   7
HETATM    7  C   UNL     1      -8.852   9.119  70.764  1.00  0.00    -0.239 C  
BRANCH   7   8
HETATM    8  N   UNL     1      -8.717   8.867  69.320  1.00  0.00    -0.136 NA 
HETATM    9  C   UNL     1      -9.978   8.506  68.641  1.00  0.00    -0.184 C  
HETATM   10  C   UNL     1     -11.003   9.657  68.436  1.00  0.00    -0.113 C  
HETATM   11  N   UNL     1     -10.443  10.923  67.930  1.00  0.00    -0.184 NA 
HETATM   12  C   UNL     1      -9.144  11.247  68.520  1.00  0.00    -0.173 C  
HETATM   13  C   UNL     1      -8.170  10.050  68.625  1.00  0.00    -0.111 C  
BRANCH  11  14
HETATM   14  C   UNL     1     -11.442  12.029  67.861  1.00  0.00    -0.330 C  
BRANCH  14  15
HETATM   15  C   UNL     1     -11.565  12.735  66.485  1.00  0.00    -0.435 A  
HETATM   16  C   UNL     1     -12.642  13.588  66.205  1.00  0.00    -0.355 A  
HETATM   17  C   UNL     1     -10.572  12.607  65.489  1.00  0.00    -0.301 A  
HETATM   18  C   UNL     1     -12.715  14.293  64.992  1.00  0.00    -0.297 A  
HETATM   19  C   UNL     1     -11.711  14.152  64.040  1.00  0.00    -0.234 A  
HETATM   20  C   UNL     1     -10.638  13.307  64.286  1.00  0.00    -0.402 A  
ENDBRANCH  14  15
BRANCH  14  21
HETATM   21  C   UNL     1     -11.440  13.051  69.023  1.00  0.00    -0.353 A  
HETATM   22  C   UNL     1     -11.799  15.055  70.976  1.00  0.00    -0.323 A  
HETATM   23 CL   UNL     1     -12.116  16.327  72.088  1.00  0.00    -0.566 Cl 
HETATM   24  C   UNL     1     -10.930  15.270  69.915  1.00  0.00    -0.303 A  
HETATM   25  C   UNL     1     -12.252  12.827  70.152  1.00  0.00    -0.320 A  
HETATM   26  C   UNL     1     -10.732  14.265  68.965  1.00  0.00    -0.259 A  
HETATM   27  C   UNL     1     -12.429  13.823  71.123  1.00  0.00    -0.450 A  
ENDBRANCH  14  21
ENDBRANCH  11  14
ENDBRANCH   7   8
ENDBRANCH   6   7
ENDBRANCH   5   6
ENDBRANCH   3   5
TORSDOF 7
ENDMDL
MODEL       32
REMARK 921   NORMALIZED FREE ENERGY PREDICTED BY IDOCK:   -5.91 KCAL/MOL
REMARK 922        TOTAL FREE ENERGY PREDICTED BY IDOCK:   -9.36 KCAL/MOL
REMARK 923 INTER-LIGAND FREE ENERGY PREDICTED BY IDOCK:   -9.19 KCAL/MOL
REMARK 924 INTRA-LIGAND FREE ENERGY PREDICTED BY IDOCK:   -0.16 KCAL/MOL
REMARK 927      BINDING AFFINITY PREDICTED BY RF-SCORE:    0.00 PKD
ROOT
HETATM    1  O   UNL     1      -6.697  19.384  64.908  1.00  0.00    -0.430 OA 
HETATM    2  C   UNL     1      -6.349  18.258  65.588  1.00  0.00    -0.265 C  
HETATM    3  C   UNL     1      -7.551  17.566  66.205  1.00  0.00    -0.308 C  
HETATM    4  O   UNL     1      -5.195  17.864  65.669  1.00  0.00    -0.172 OA 
ENDROOT
BRANCH   3   5
HETATM    5  O   UNL     1      -8.737  18.327  65.921  1.00  0.00    -0.500 OA 
BRANCH   5   6
HETATM    6  C   UNL     1      -9.563  18.457  67.094  1.00  0.00    -0.295 C  
BRANCH   6   7
HETATM    7  C   UNL     1     -10.072  17.061  67.498  1.00  0.00    -0.294 C  
BRANCH   7   8
HETATM    8  N   UNL     1      -9.773  16.670  68.886  1.00  0.00    -0.248 NA 
HETATM    9  C   UNL     1     -10.965  16.389  69.712  1.00  0.00    -0.341 C  
HETATM   10  C   UNL     1     -11.718  15.064  69.405  1.00  0.00    -0.326 C  
HETATM   11  N   UNL     1     -10.865  13.873  69.237  1.00  0.00    -0.186 NA 
HETATM   12  C   UNL     1      -9.631  14.156  68.505  1.00  0.00    -0.214 C  
HETATM   13  C   UNL     1      -8.921  15.464  68.924  1.00  0.00    -0.208 C  
BRANCH  11  14
HETATM   14  C   UNL     1     -11.622  12.654  68.829  1.00  0.00    -0.313 C  
BRANCH  14  15
HETATM   15  C   UNL     1     -11.642  11.501  69.867  1.00  0.00    -0.387 A  
HETATM   16  C   UNL     1     -12.649  11.424  70.841  1.00  0.00    -0.453 A  
HETATM   17  C   UNL     1     -10.700  10.450  69.835  1.00  0.00    -0.331 A  
HETATM   18  C   UNL     1     -12.718  10.339  71.731  1.00  0.00    -0.535 A  
HETATM   19  C   UNL     1     -11.780   9.315  71.659  1.00  0.00    -0.462 A  
HETATM   20  C   UNL     1     -10.766   9.370  70.712  1.00  0.00    -0.373 A  
ENDBRANCH  14  15
BRANCH  14  21
HETATM   21  C   UNL     1     -11.378  12.122  67.397  1.00  0.00    -0.393 A  
HETATM   22  C   UNL     1     -10.569  11.367  64.802  1.00  0.00    -0.316 A  
HETATM   23 CL   UNL     1      -9.980  11.001  63.229  1.00  0.00    -0.388 Cl 
HETATM   24  C   UNL     1     -11.488  12.394  64.969  1.00  0.00    -0.378 A  
HETATM   25  C   UNL     1     -10.511  11.030  67.195  1.00  0.00    -0.274 A  
HETATM   26  C   UNL     1     -11.909  12.747  66.254  1.00  0.00    -0.485 A  
HETATM   27  C   UNL     1     -10.111  10.655  65.905  1.00  0.00    -0.321 A  
ENDBRANCH  14  21
ENDBRANCH  11  14
ENDBRANCH   7   8
ENDBRANCH   6   7
ENDBRANCH   5   6
ENDBRANCH   3   5
TORSDOF 7
ENDMDL
MODEL       33
REMARK 921   NORMALIZED FREE ENERGY PREDICTED BY IDOCK:   -5.88 KCAL/MOL
REMARK 922        TOTAL FREE ENERGY PREDICTED BY IDOCK:   -9.32 KCAL/MOL
REMARK 923 INTER-LIGAND FREE ENERGY PREDICTED BY IDOCK:   -8.61 KCAL/MOL
REMARK 924 INTRA-LIGAND FREE ENERGY PREDICTED BY IDOCK:   -0.71 KCAL/MOL
REMARK 927      BINDING AFFINITY PREDICTED BY RF-SCORE:    0.00 PKD
ROOT
HETATM    1  O   UNL     1     -13.935   7.756  71.486  1.00  0.00    -0.380 OA 
HETATM    2  C   UNL     1     -13.117   8.697  72.031  1.00  0.00    -0.381 C  
HETATM    3  C   UNL     1     -11.756   8.131  72.394  1.00  0.00    -0.399 C  
HETATM    4  O   UNL     1     -13.458   9.860  72.188  1.00  0.00    -0.429 OA 
ENDROOT
BRANCH   3   5
HETATM    5  O   UNL     1     -11.725   6.728  72.087  1.00  0.00    -0.285 OA 
BRANCH   5   6
HETATM    6  C   UNL     1     -10.583   6.400  71.273  1.00  0.00    -0.230 C  
BRANCH   6   7
HETATM    7  C   UNL     1     -10.848   6.875  69.833  1.00  0.00    -0.257 C  
BRANCH   7   8
HETATM    8  N   UNL     1      -9.668   7.395  69.124  1.00  0.00    -0.163 NA 
HETATM    9  C   UNL     1      -9.890   7.681  67.692  1.00  0.00    -0.164 C  
HETATM   10  C   UNL     1     -10.751   8.934  67.366  1.00  0.00    -0.155 C  
HETATM   11  N   UNL     1     -10.416  10.150  68.129  1.00  0.00    -0.193 NA 
HETATM   12  C   UNL     1     -10.096   9.873  69.529  1.00  0.00    -0.221 C  
HETATM   13  C   UNL     1      -9.184   8.643  69.749  1.00  0.00    -0.154 C  
BRANCH  11  14
HETATM   14  C   UNL     1     -11.343  11.289  67.868  1.00  0.00    -0.299 C  
BRANCH  14  15
HETATM   15  C   UNL     1     -11.317  11.853  66.422  1.00  0.00    -0.400 A  
HETATM   16  C   UNL     1     -10.427  11.345  65.465  1.00  0.00    -0.322 A  
HETATM   17  C   UNL     1     -12.226  12.844  65.991  1.00  0.00    -0.431 A  
HETATM   18  C   UNL     1     -10.456  11.795  64.134  1.00  0.00    -0.394 A  
HETATM   19  C   UNL     1     -11.375  12.762  63.743  1.00  0.00    -0.520 A  
HETATM   20  C   UNL     1     -12.261  13.291  64.671  1.00  0.00    -0.460 A  
ENDBRANCH  14  15
BRANCH  14  21
HETATM   21  C   UNL     1     -11.376  12.425  68.918  1.00  0.00    -0.342 A  
HETATM   22  C   UNL     1     -11.789  14.623  70.637  1.00  0.00    -0.305 A  
HETATM   23 CL   UNL     1     -12.134  16.006  71.598  1.00  0.00    -0.525 Cl 
HETATM   24  C   UNL     1     -10.870  14.717  69.601  1.00  0.00    -0.247 A  
HETATM   25  C   UNL     1     -12.241  12.328  70.025  1.00  0.00    -0.267 A  
HETATM   26  C   UNL     1     -10.647  13.618  68.768  1.00  0.00    -0.247 A  
HETATM   27  C   UNL     1     -12.444  13.420  70.880  1.00  0.00    -0.439 A  
ENDBRANCH  14  21
ENDBRANCH  11  14
ENDBRANCH   7   8
ENDBRANCH   6   7
ENDBRANCH   5   6
ENDBRANCH   3   5
TORSDOF 7
ENDMDL
MODEL       34
REMARK 921   NORMALIZED FREE ENERGY PREDICTED BY IDOCK:   -5.85 KCAL/MOL
REMARK 922        TOTAL FREE ENERGY PREDICTED BY IDOCK:   -9.28 KCAL/MOL
REMARK 923 INTER-LIGAND FREE ENERGY PREDICTED BY IDOCK:   -8.00 KCAL/MOL
REMARK 924 INTRA-LIGAND FREE ENERGY PREDICTED BY IDOCK:   -1.28 KCAL/MOL
REMARK 927      BINDING AFFINITY PREDICTED BY RF-SCORE:    0.00 PKD
ROOT
HETATM    1  O   UNL     1      -6.242  14.721  67.271  1.00  0.00    -0.309 OA 
HETATM    2  C   UNL     1      -5.489  15.492  68.101  1.00  0.00    -0.119 C  
HETATM    3  C   UNL     1      -5.132  16.828  67.475  1.00  0.00    -0.129 C  
HETATM    4  O   UNL     1      -5.160  15.132  69.222  1.00  0.00    -0.092 OA 
ENDROOT
BRANCH   3   5
HETATM    5  O   UNL     1      -5.671  16.891  66.144  1.00  0.00    -0.270 OA 
BRANCH   5   6
HETATM    6  C   UNL     1      -6.416  18.107  65.943  1.00  0.00    -0.269 C  
BRANCH   6   7
HETATM    7  C   UNL     1      -7.880  17.865  66.356  1.00  0.00    -0.272 C  
BRANCH   7   8
HETATM    8  N   UNL     1      -8.336  18.654  67.512  1.00  0.00    -0.263 NA 
HETATM    9  C   UNL     1      -9.751  19.072  67.448  1.00  0.00    -0.315 C  
HETATM   10  C   UNL     1     -10.809  17.956  67.677  1.00  0.00    -0.229 C  
HETATM   11  N   UNL     1     -10.547  17.057  68.816  1.00  0.00    -0.347 NA 
HETATM   12  C   UNL     1      -9.132  16.712  68.954  1.00  0.00    -0.238 C  
HETATM   13  C   UNL     1      -8.160  17.900  68.770  1.00  0.00    -0.232 C  
BRANCH  11  14
HETATM   14  C   UNL     1     -11.524  15.934  68.924  1.00  0.00    -0.386 C  
BRANCH  14  15
HETATM   15  C   UNL     1     -12.175  15.746  70.320  1.00  0.00    -0.367 A  
HETATM   16  C   UNL     1     -11.605  16.323  71.466  1.00  0.00    -0.435 A  
HETATM   17  C   UNL     1     -13.394  15.055  70.488  1.00  0.00    -0.177 A  
HETATM   18  C   UNL     1     -12.234  16.224  72.718  1.00  0.00    -0.592 A  
HETATM   19  C   UNL     1     -13.442  15.546  72.842  1.00  0.00    -0.641 A  
HETATM   20  C   UNL     1     -14.023  14.957  71.728  1.00  0.00    -0.583 A  
ENDBRANCH  14  15
BRANCH  14  21
HETATM   21  C   UNL     1     -11.108  14.578  68.307  1.00  0.00    -0.275 A  
HETATM   22  C   UNL     1     -10.763  12.034  67.139  1.00  0.00    -0.239 A  
HETATM   23 CL   UNL     1     -10.686  10.463  66.445  1.00  0.00    -0.191 Cl 
HETATM   24  C   UNL     1     -10.663  12.183  68.515  1.00  0.00    -0.257 A  
HETATM   25  C   UNL     1     -11.122  14.413  66.908  1.00  0.00    -0.325 A  
HETATM   26  C   UNL     1     -10.806  13.449  69.088  1.00  0.00    -0.156 A  
HETATM   27  C   UNL     1     -10.949  13.149  66.328  1.00  0.00    -0.295 A  
ENDBRANCH  14  21
ENDBRANCH  11  14
ENDBRANCH   7   8
ENDBRANCH   6   7
ENDBRANCH   5   6
ENDBRANCH   3   5
TORSDOF 7
ENDMDL
MODEL       35
REMARK 921   NORMALIZED FREE ENERGY PREDICTED BY IDOCK:   -5.81 KCAL/MOL
REMARK 922        TOTAL FREE ENERGY PREDICTED BY IDOCK:   -9.22 KCAL/MOL
REMARK 923 INTER-LIGAND FREE ENERGY PREDICTED BY IDOCK:   -8.37 KCAL/MOL
REMARK 924 INTRA-LIGAND FREE ENERGY PREDICTED BY IDOCK:   -0.86 KCAL/MOL
REMARK 927      BINDING AFFINITY PREDICTED BY RF-SCORE:    0.00 PKD
ROOT
HETATM    1  O   UNL     1     -13.539  15.606  72.432  1.00  0.00    -0.475 OA 
HETATM    2  C   UNL     1     -13.357  14.338  71.973  1.00  0.00    -0.398 C  
HETATM    3  C   UNL     1     -12.725  14.314  70.593  1.00  0.00    -0.343 C  
HETATM    4  O   UNL     1     -13.665  13.349  72.621  1.00  0.00    -0.687 OA 
ENDROOT
BRANCH   3   5
HETATM    5  O   UNL     1     -12.524  15.662  70.136  1.00  0.00    -0.389 OA 
BRANCH   5   6
HETATM    6  C   UNL     1     -11.628  15.700  69.010  1.00  0.00    -0.386 C  
BRANCH   6   7
HETATM    7  C   UNL     1     -11.960  14.523  68.074  1.00  0.00    -0.270 C  
BRANCH   7   8
HETATM    8  N   UNL     1     -10.918  14.207  67.083  1.00  0.00    -0.294 NA 
HETATM    9  C   UNL     1      -9.563  14.049  67.650  1.00  0.00    -0.221 C  
HETATM   10  C   UNL     1      -9.307  12.752  68.469  1.00  0.00    -0.077 C  
HETATM   11  N   UNL     1      -9.801  11.505  67.856  1.00  0.00    -0.180 NA 
HETATM   12  C   UNL     1     -11.099  11.669  67.203  1.00  0.00    -0.299 C  
HETATM   13  C   UNL     1     -11.237  12.959  66.360  1.00  0.00    -0.300 C  
BRANCH  11  14
HETATM   14  C   UNL     1      -9.637  10.308  68.730  1.00  0.00    -0.175 C  
BRANCH  14  15
HETATM   15  C   UNL     1      -9.400   8.966  67.988  1.00  0.00    -0.153 A  
HETATM   16  C   UNL     1     -10.478   8.174  67.567  1.00  0.00    -0.326 A  
HETATM   17  C   UNL     1      -8.105   8.522  67.644  1.00  0.00    -0.107 A  
HETATM   18  C   UNL     1     -10.271   7.000  66.824  1.00  0.00    -0.282 A  
HETATM   19  C   UNL     1      -8.981   6.601  66.492  1.00  0.00    -0.155 A  
HETATM   20  C   UNL     1      -7.894   7.360  66.904  1.00  0.00    -0.115 A  
ENDBRANCH  14  15
BRANCH  14  21
HETATM   21  C   UNL     1     -10.645  10.142  69.892  1.00  0.00    -0.331 A  
HETATM   22  C   UNL     1     -12.589   9.475  71.824  1.00  0.00    -0.405 A  
HETATM   23 CL   UNL     1     -13.815   8.970  72.918  1.00  0.00    -0.295 Cl 
HETATM   24  C   UNL     1     -12.897  10.376  70.814  1.00  0.00    -0.450 A  
HETATM   25  C   UNL     1     -10.333   9.295  70.973  1.00  0.00    -0.388 A  
HETATM   26  C   UNL     1     -11.924  10.727  69.875  1.00  0.00    -0.418 A  
HETATM   27  C   UNL     1     -11.299   8.965  71.933  1.00  0.00    -0.446 A  
ENDBRANCH  14  21
ENDBRANCH  11  14
ENDBRANCH   7   8
ENDBRANCH   6   7
ENDBRANCH   5   6
ENDBRANCH   3   5
TORSDOF 7
ENDMDL
MODEL       36
REMARK 921   NORMALIZED FREE ENERGY PREDICTED BY IDOCK:   -5.80 KCAL/MOL
REMARK 922        TOTAL FREE ENERGY PREDICTED BY IDOCK:   -9.21 KCAL/MOL
REMARK 923 INTER-LIGAND FREE ENERGY PREDICTED BY IDOCK:   -8.53 KCAL/MOL
REMARK 924 INTRA-LIGAND FREE ENERGY PREDICTED BY IDOCK:   -0.68 KCAL/MOL
REMARK 927      BINDING AFFINITY PREDICTED BY RF-SCORE:    0.00 PKD
ROOT
HETATM    1  O   UNL     1     -13.119  14.721  73.544  1.00  0.00    -0.551 OA 
HETATM    2  C   UNL     1     -13.435  13.859  72.539  1.00  0.00    -0.572 C  
HETATM    3  C   UNL     1     -12.438  13.921  71.396  1.00  0.00    -0.340 C  
HETATM    4  O   UNL     1     -14.409  13.122  72.582  1.00  0.00    -0.636 OA 
ENDROOT
BRANCH   3   5
HETATM    5  O   UNL     1     -11.441  14.915  71.686  1.00  0.00    -0.344 OA 
BRANCH   5   6
HETATM    6  C   UNL     1     -11.541  16.030  70.779  1.00  0.00    -0.400 C  
BRANCH   6   7
HETATM    7  C   UNL     1     -10.312  16.024  69.851  1.00  0.00    -0.249 C  
BRANCH   7   8
HETATM    8  N   UNL     1     -10.615  16.197  68.421  1.00  0.00    -0.271 NA 
HETATM    9  C   UNL     1      -9.455  16.020  67.524  1.00  0.00    -0.223 C  
HETATM   10  C   UNL     1      -8.949  14.562  67.334  1.00  0.00    -0.200 C  
HETATM   11  N   UNL     1      -9.996  13.552  67.093  1.00  0.00    -0.242 NA 
HETATM   12  C   UNL     1     -11.194  13.772  67.903  1.00  0.00    -0.274 C  
HETATM   13  C   UNL     1     -11.656  15.245  67.982  1.00  0.00    -0.312 C  
BRANCH  11  14
HETATM   14  C   UNL     1      -9.474  12.156  67.035  1.00  0.00    -0.201 C  
BRANCH  14  15
HETATM   15  C   UNL     1      -9.536  11.477  65.641  1.00  0.00    -0.244 A  
HETATM   16  C   UNL     1     -10.375  11.974  64.632  1.00  0.00    -0.325 A  
HETATM   17  C   UNL     1      -8.707  10.384  65.305  1.00  0.00    -0.192 A  
HETATM   18  C   UNL     1     -10.374  11.413  63.344  1.00  0.00    -0.458 A  
HETATM   19  C   UNL     1      -9.534  10.346  63.047  1.00  0.00    -0.362 A  
HETATM   20  C   UNL     1      -8.701   9.827  64.028  1.00  0.00    -0.235 A  
ENDBRANCH  14  15
BRANCH  14  21
HETATM   21  C   UNL     1      -9.923  11.190  68.156  1.00  0.00    -0.189 A  
HETATM   22  C   UNL     1     -10.821   9.776  70.426  1.00  0.00    -0.311 A  
HETATM   23 CL   UNL     1     -11.361   9.031  71.878  1.00  0.00    -0.439 Cl 
HETATM   24  C   UNL     1      -9.459   9.915  70.190  1.00  0.00    -0.214 A  
HETATM   25  C   UNL     1     -11.296  10.963  68.375  1.00  0.00    -0.370 A  
HETATM   26  C   UNL     1      -9.018  10.591  69.050  1.00  0.00    -0.183 A  
HETATM   27  C   UNL     1     -11.741  10.260  69.502  1.00  0.00    -0.193 A  
ENDBRANCH  14  21
ENDBRANCH  11  14
ENDBRANCH   7   8
ENDBRANCH   6   7
ENDBRANCH   5   6
ENDBRANCH   3   5
TORSDOF 7
ENDMDL
MODEL       37
REMARK 921   NORMALIZED FREE ENERGY PREDICTED BY IDOCK:   -5.77 KCAL/MOL
REMARK 922        TOTAL FREE ENERGY PREDICTED BY IDOCK:   -9.17 KCAL/MOL
REMARK 923 INTER-LIGAND FREE ENERGY PREDICTED BY IDOCK:   -8.11 KCAL/MOL
REMARK 924 INTRA-LIGAND FREE ENERGY PREDICTED BY IDOCK:   -1.06 KCAL/MOL
REMARK 927      BINDING AFFINITY PREDICTED BY RF-SCORE:    0.00 PKD
ROOT
HETATM    1  O   UNL     1     -13.074  14.169  65.455  1.00  0.00    -0.743 OA 
HETATM    2  C   UNL     1     -12.200  14.005  64.425  1.00  0.00    -0.426 C  
HETATM    3  C   UNL     1     -10.756  14.150  64.870  1.00  0.00    -0.428 C  
HETATM    4  O   UNL     1     -12.560  13.759  63.284  1.00  0.00    -0.830 OA 
ENDROOT
BRANCH   3   5
HETATM    5  O   UNL     1     -10.718  14.459  66.274  1.00  0.00    -0.297 OA 
BRANCH   5   6
HETATM    6  C   UNL     1      -9.622  13.788  66.923  1.00  0.00    -0.262 C  
BRANCH   6   7
HETATM    7  C   UNL     1     -10.143  13.119  68.208  1.00  0.00    -0.247 C  
BRANCH   7   8
HETATM    8  N   UNL     1     -11.426  12.411  68.062  1.00  0.00    -0.299 NA 
HETATM    9  C   UNL     1     -11.427  11.352  67.033  1.00  0.00    -0.156 C  
HETATM   10  C   UNL     1     -10.646  10.053  67.381  1.00  0.00    -0.271 C  
HETATM   11  N   UNL     1     -10.883   9.513  68.733  1.00  0.00    -0.184 NA 
HETATM   12  C   UNL     1     -10.984  10.558  69.752  1.00  0.00    -0.294 C  
HETATM   13  C   UNL     1     -11.831  11.782  69.336  1.00  0.00    -0.334 C  
BRANCH  11  14
HETATM   14  C   UNL     1     -10.025   8.338  69.061  1.00  0.00    -0.189 C  
BRANCH  14  15
HETATM   15  C   UNL     1      -9.772   7.348  67.893  1.00  0.00    -0.166 A  
HETATM   16  C   UNL     1      -8.522   7.283  67.260  1.00  0.00    -0.118 A  
HETATM   17  C   UNL     1     -10.756   6.430  67.466  1.00  0.00    -0.396 A  
HETATM   18  C   UNL     1      -8.264   6.333  66.257  1.00  0.00    -0.117 A  
HETATM   19  C   UNL     1      -9.253   5.435  65.873  1.00  0.00    -0.165 A  
HETATM   20  C   UNL     1     -10.503   5.484  66.474  1.00  0.00    -0.331 A  
ENDBRANCH  14  15
BRANCH  14  21
HETATM   21  C   UNL     1     -10.333   7.589  70.379  1.00  0.00    -0.216 A  
HETATM   22  C   UNL     1     -10.821   5.872  72.563  1.00  0.00    -0.247 A  
HETATM   23 CL   UNL     1     -11.120   4.722  73.806  1.00  0.00    -0.368 Cl 
HETATM   24  C   UNL     1     -11.887   6.409  71.853  1.00  0.00    -0.380 A  
HETATM   25  C   UNL     1      -9.274   7.097  71.167  1.00  0.00    -0.157 A  
HETATM   26  C   UNL     1     -11.642   7.281  70.790  1.00  0.00    -0.334 A  
HETATM   27  C   UNL     1      -9.518   6.245  72.253  1.00  0.00    -0.152 A  
ENDBRANCH  14  21
ENDBRANCH  11  14
ENDBRANCH   7   8
ENDBRANCH   6   7
ENDBRANCH   5   6
ENDBRANCH   3   5
TORSDOF 7
ENDMDL
MODEL       38
REMARK 921   NORMALIZED FREE ENERGY PREDICTED BY IDOCK:   -5.77 KCAL/MOL
REMARK 922        TOTAL FREE ENERGY PREDICTED BY IDOCK:   -9.16 KCAL/MOL
REMARK 923 INTER-LIGAND FREE ENERGY PREDICTED BY IDOCK:   -8.72 KCAL/MOL
REMARK 924 INTRA-LIGAND FREE ENERGY PREDICTED BY IDOCK:   -0.44 KCAL/MOL
REMARK 927      BINDING AFFINITY PREDICTED BY RF-SCORE:    0.00 PKD
ROOT
HETATM    1  O   UNL     1     -12.364   7.078  70.807  1.00  0.00    -0.352 OA 
HETATM    2  C   UNL     1     -11.331   6.249  71.118  1.00  0.00    -0.303 C  
HETATM    3  C   UNL     1     -10.688   5.646  69.882  1.00  0.00    -0.329 C  
HETATM    4  O   UNL     1     -10.973   6.040  72.268  1.00  0.00    -0.238 OA 
ENDROOT
BRANCH   3   5
HETATM    5  O   UNL     1     -11.386   6.102  68.711  1.00  0.00    -0.344 OA 
BRANCH   5   6
HETATM    6  C   UNL     1     -10.466   6.434  67.655  1.00  0.00    -0.228 C  
BRANCH   6   7
HETATM    7  C   UNL     1     -10.553   7.947  67.381  1.00  0.00    -0.272 C  
BRANCH   7   8
HETATM    8  N   UNL     1      -9.472   8.748  67.977  1.00  0.00    -0.142 NA 
HETATM    9  C   UNL     1      -9.030   9.891  67.152  1.00  0.00    -0.138 C  
HETATM   10  C   UNL     1     -10.005  11.100  67.073  1.00  0.00    -0.192 C  
HETATM   11  N   UNL     1     -10.585  11.534  68.358  1.00  0.00    -0.192 NA 
HETATM   12  C   UNL     1     -10.937  10.413  69.229  1.00  0.00    -0.242 C  
HETATM   13  C   UNL     1      -9.877   9.289  69.291  1.00  0.00    -0.172 C  
BRANCH  11  14
HETATM   14  C   UNL     1     -11.601  12.616  68.215  1.00  0.00    -0.332 C  
BRANCH  14  15
HETATM   15  C   UNL     1     -11.423  13.541  66.982  1.00  0.00    -0.369 A  
HETATM   16  C   UNL     1     -10.253  14.296  66.808  1.00  0.00    -0.272 A  
HETATM   17  C   UNL     1     -12.390  13.610  65.955  1.00  0.00    -0.516 A  
HETATM   18  C   UNL     1     -10.054  15.071  65.654  1.00  0.00    -0.390 A  
HETATM   19  C   UNL     1     -11.022  15.103  64.657  1.00  0.00    -0.321 A  
HETATM   20  C   UNL     1     -12.194  14.375  64.807  1.00  0.00    -0.458 A  
ENDBRANCH  14  15
BRANCH  14  21
HETATM   21  C   UNL     1     -11.947  13.428  69.486  1.00  0.00    -0.377 A  
HETATM   22  C   UNL     1     -12.974  14.906  71.658  1.00  0.00    -0.336 A  
HETATM   23 CL   UNL     1     -13.714  15.822  72.911  1.00  0.00    -0.666 Cl 
HETATM   24  C   UNL     1     -12.319  15.560  70.623  1.00  0.00    -0.462 A  
HETATM   25  C   UNL     1     -12.541  12.782  70.588  1.00  0.00    -0.248 A  
HETATM   26  C   UNL     1     -11.787  14.823  69.563  1.00  0.00    -0.366 A  
HETATM   27  C   UNL     1     -13.050  13.517  71.667  1.00  0.00    -0.459 A  
ENDBRANCH  14  21
ENDBRANCH  11  14
ENDBRANCH   7   8
ENDBRANCH   6   7
ENDBRANCH   5   6
ENDBRANCH   3   5
TORSDOF 7
ENDMDL
MODEL       39
REMARK 921   NORMALIZED FREE ENERGY PREDICTED BY IDOCK:   -5.75 KCAL/MOL
REMARK 922        TOTAL FREE ENERGY PREDICTED BY IDOCK:   -9.14 KCAL/MOL
REMARK 923 INTER-LIGAND FREE ENERGY PREDICTED BY IDOCK:   -8.24 KCAL/MOL
REMARK 924 INTRA-LIGAND FREE ENERGY PREDICTED BY IDOCK:   -0.89 KCAL/MOL
REMARK 927      BINDING AFFINITY PREDICTED BY RF-SCORE:    0.00 PKD
ROOT
HETATM    1  O   UNL     1      -5.259  12.791  67.085  1.00  0.00    -0.326 OA 
HETATM    2  C   UNL     1      -6.161  12.961  68.090  1.00  0.00    -0.093 C  
HETATM    3  C   UNL     1      -6.870  14.300  68.003  1.00  0.00    -0.144 C  
HETATM    4  O   UNL     1      -6.366  12.113  68.945  1.00  0.00    -0.070 OA 
ENDROOT
BRANCH   3   5
HETATM    5  O   UNL     1      -6.356  15.040  66.883  1.00  0.00    -0.035 OA 
BRANCH   5   6
HETATM    6  C   UNL     1      -6.434  16.459  67.119  1.00  0.00    -0.192 C  
BRANCH   6   7
HETATM    7  C   UNL     1      -7.810  16.965  66.648  1.00  0.00    -0.263 C  
BRANCH   7   8
HETATM    8  N   UNL     1      -8.440  17.959  67.532  1.00  0.00    -0.230 NA 
HETATM    9  C   UNL     1      -9.836  18.291  67.182  1.00  0.00    -0.324 C  
HETATM   10  C   UNL     1     -10.902  17.203  67.494  1.00  0.00    -0.203 C  
HETATM   11  N   UNL     1     -10.798  16.576  68.825  1.00  0.00    -0.328 NA 
HETATM   12  C   UNL     1      -9.415  16.330  69.231  1.00  0.00    -0.202 C  
HETATM   13  C   UNL     1      -8.441  17.494  68.935  1.00  0.00    -0.139 C  
BRANCH  11  14
HETATM   14  C   UNL     1     -11.766  15.460  69.032  1.00  0.00    -0.361 C  
BRANCH  14  15
HETATM   15  C   UNL     1     -12.117  15.146  70.511  1.00  0.00    -0.390 A  
HETATM   16  C   UNL     1     -11.679  15.981  71.550  1.00  0.00    -0.554 A  
HETATM   17  C   UNL     1     -12.943  14.058  70.867  1.00  0.00    -0.347 A  
HETATM   18  C   UNL     1     -12.062  15.746  72.881  1.00  0.00    -0.596 A  
HETATM   19  C   UNL     1     -12.889  14.672  73.192  1.00  0.00    -0.586 A  
HETATM   20  C   UNL     1     -13.329  13.824  72.185  1.00  0.00    -0.569 A  
ENDBRANCH  14  15
BRANCH  14  21
HETATM   21  C   UNL     1     -11.531  14.165  68.219  1.00  0.00    -0.335 A  
HETATM   22  C   UNL     1     -10.793  12.019  66.543  1.00  0.00    -0.277 A  
HETATM   23 CL   UNL     1     -10.269  10.799  65.451  1.00  0.00    -0.339 Cl 
HETATM   24  C   UNL     1     -11.895  12.801  66.223  1.00  0.00    -0.485 A  
HETATM   25  C   UNL     1     -10.468  13.307  68.564  1.00  0.00    -0.259 A  
HETATM   26  C   UNL     1     -12.275  13.845  67.070  1.00  0.00    -0.392 A  
HETATM   27  C   UNL     1     -10.104  12.240  67.731  1.00  0.00    -0.202 A  
ENDBRANCH  14  21
ENDBRANCH  11  14
ENDBRANCH   7   8
ENDBRANCH   6   7
ENDBRANCH   5   6
ENDBRANCH   3   5
TORSDOF 7
ENDMDL
MODEL       40
REMARK 921   NORMALIZED FREE ENERGY PREDICTED BY IDOCK:   -5.73 KCAL/MOL
REMARK 922        TOTAL FREE ENERGY PREDICTED BY IDOCK:   -9.11 KCAL/MOL
REMARK 923 INTER-LIGAND FREE ENERGY PREDICTED BY IDOCK:   -8.06 KCAL/MOL
REMARK 924 INTRA-LIGAND FREE ENERGY PREDICTED BY IDOCK:   -1.05 KCAL/MOL
REMARK 927      BINDING AFFINITY PREDICTED BY RF-SCORE:    0.00 PKD
ROOT
HETATM    1  O   UNL     1     -12.780  12.566  63.531  1.00  0.00    -0.722 OA 
HETATM    2  C   UNL     1     -11.468  12.265  63.733  1.00  0.00    -0.466 C  
HETATM    3  C   UNL     1     -10.685  13.450  64.269  1.00  0.00    -0.355 C  
HETATM    4  O   UNL     1     -11.002  11.158  63.512  1.00  0.00    -0.336 OA 
ENDROOT
BRANCH   3   5
HETATM    5  O   UNL     1     -11.557  14.587  64.382  1.00  0.00    -0.369 OA 
BRANCH   5   6
HETATM    6  C   UNL     1     -10.896  15.684  65.041  1.00  0.00    -0.450 C  
BRANCH   6   7
HETATM    7  C   UNL     1     -10.065  15.129  66.212  1.00  0.00    -0.283 C  
BRANCH   7   8
HETATM    8  N   UNL     1     -10.719  15.207  67.529  1.00  0.00    -0.278 NA 
HETATM    9  C   UNL     1     -12.015  14.505  67.611  1.00  0.00    -0.320 C  
HETATM   10  C   UNL     1     -11.956  12.951  67.632  1.00  0.00    -0.289 C  
HETATM   11  N   UNL     1     -10.949  12.366  68.537  1.00  0.00    -0.232 NA 
HETATM   12  C   UNL     1      -9.689  13.110  68.543  1.00  0.00    -0.137 C  
HETATM   13  C   UNL     1      -9.850  14.647  68.585  1.00  0.00    -0.224 C  
BRANCH  11  14
HETATM   14  C   UNL     1     -10.850  10.881  68.435  1.00  0.00    -0.222 C  
BRANCH  14  15
HETATM   15  C   UNL     1     -10.469  10.145  69.747  1.00  0.00    -0.301 A  
HETATM   16  C   UNL     1     -11.456   9.717  70.647  1.00  0.00    -0.376 A  
HETATM   17  C   UNL     1      -9.132   9.814  70.056  1.00  0.00    -0.258 A  
HETATM   18  C   UNL     1     -11.122   8.979  71.795  1.00  0.00    -0.444 A  
HETATM   19  C   UNL     1      -9.794   8.660  72.059  1.00  0.00    -0.396 A  
HETATM   20  C   UNL     1      -8.796   9.080  71.191  1.00  0.00    -0.282 A  
ENDBRANCH  14  15
BRANCH  14  21
HETATM   21  C   UNL     1     -10.080  10.310  67.221  1.00  0.00    -0.249 A  
HETATM   22  C   UNL     1      -8.430   9.076  65.294  1.00  0.00    -0.166 A  
HETATM   23 CL   UNL     1      -7.339   8.293  64.220  1.00  0.00    -0.089 Cl 
HETATM   24  C   UNL     1      -8.227  10.409  65.628  1.00  0.00    -0.158 A  
HETATM   25  C   UNL     1     -10.316   8.985  66.804  1.00  0.00    -0.310 A  
HETATM   26  C   UNL     1      -9.064  11.025  66.562  1.00  0.00    -0.186 A  
HETATM   27  C   UNL     1      -9.496   8.374  65.846  1.00  0.00    -0.169 A  
ENDBRANCH  14  21
ENDBRANCH  11  14
ENDBRANCH   7   8
ENDBRANCH   6   7
ENDBRANCH   5   6
ENDBRANCH   3   5
TORSDOF 7
ENDMDL
MODEL       41
REMARK 921   NORMALIZED FREE ENERGY PREDICTED BY IDOCK:   -5.72 KCAL/MOL
REMARK 922        TOTAL FREE ENERGY PREDICTED BY IDOCK:   -9.10 KCAL/MOL
REMARK 923 INTER-LIGAND FREE ENERGY PREDICTED BY IDOCK:   -8.83 KCAL/MOL
REMARK 924 INTRA-LIGAND FREE ENERGY PREDICTED BY IDOCK:   -0.28 KCAL/MOL
REMARK 927      BINDING AFFINITY PREDICTED BY RF-SCORE:    0.00 PKD
ROOT
HETATM    1  O   UNL     1      -8.795   7.166  66.698  1.00  0.00    -0.121 OA 
HETATM    2  C   UNL     1      -9.971   7.805  66.942  1.00  0.00    -0.261 C  
HETATM    3  C   UNL     1      -9.937   9.257  66.500  1.00  0.00    -0.274 C  
HETATM    4  O   UNL     1     -10.933   7.248  67.451  1.00  0.00    -0.258 OA 
ENDROOT
BRANCH   3   5
HETATM    5  O   UNL     1      -8.637   9.563  65.969  1.00  0.00    -0.127 OA 
BRANCH   5   6
HETATM    6  C   UNL     1      -8.473  10.983  65.788  1.00  0.00    -0.119 C  
BRANCH   6   7
HETATM    7  C   UNL     1      -9.859  11.651  65.833  1.00  0.00    -0.233 C  
BRANCH   7   8
HETATM    8  N   UNL     1      -9.840  13.100  66.096  1.00  0.00    -0.286 NA 
HETATM    9  C   UNL     1     -11.168  13.745  66.062  1.00  0.00    -0.304 C  
HETATM   10  C   UNL     1     -12.109  13.447  67.263  1.00  0.00    -0.304 C  
HETATM   11  N   UNL     1     -11.485  13.533  68.596  1.00  0.00    -0.285 NA 
HETATM   12  C   UNL     1     -10.128  12.987  68.624  1.00  0.00    -0.136 C  
HETATM   13  C   UNL     1      -9.248  13.389  67.418  1.00  0.00    -0.213 C  
BRANCH  11  14
HETATM   14  C   UNL     1     -12.394  13.126  69.706  1.00  0.00    -0.102 C  
BRANCH  14  15
HETATM   15  C   UNL     1     -12.595  14.179  70.827  1.00  0.00    -0.432 A  
HETATM   16  C   UNL     1     -13.866  14.428  71.366  1.00  0.00    -0.409 A  
HETATM   17  C   UNL     1     -11.509  14.877  71.399  1.00  0.00    -0.317 A  
HETATM   18  C   UNL     1     -14.040  15.320  72.436  1.00  0.00    -0.622 A  
HETATM   19  C   UNL     1     -12.945  15.979  72.983  1.00  0.00    -0.586 A  
HETATM   20  C   UNL     1     -11.676  15.761  72.463  1.00  0.00    -0.566 A  
ENDBRANCH  14  15
BRANCH  14  21
HETATM   21  C   UNL     1     -12.197  11.707  70.291  1.00  0.00    -0.401 A  
HETATM   22  C   UNL     1     -11.625   9.313  71.669  1.00  0.00    -0.393 A  
HETATM   23 CL   UNL     1     -11.189   7.924  72.585  1.00  0.00    -0.431 Cl 
HETATM   24  C   UNL     1     -10.862   9.677  70.568  1.00  0.00    -0.371 A  
HETATM   25  C   UNL     1     -13.006  11.273  71.360  1.00  0.00    -0.482 A  
HETATM   26  C   UNL     1     -11.166  10.849  69.870  1.00  0.00    -0.355 A  
HETATM   27  C   UNL     1     -12.722  10.083  72.043  1.00  0.00    -0.439 A  
ENDBRANCH  14  21
ENDBRANCH  11  14
ENDBRANCH   7   8
ENDBRANCH   6   7
ENDBRANCH   5   6
ENDBRANCH   3   5
TORSDOF 7
ENDMDL
MODEL       42
REMARK 921   NORMALIZED FREE ENERGY PREDICTED BY IDOCK:   -5.72 KCAL/MOL
REMARK 922        TOTAL FREE ENERGY PREDICTED BY IDOCK:   -9.09 KCAL/MOL
REMARK 923 INTER-LIGAND FREE ENERGY PREDICTED BY IDOCK:   -7.87 KCAL/MOL
REMARK 924 INTRA-LIGAND FREE ENERGY PREDICTED BY IDOCK:   -1.22 KCAL/MOL
REMARK 927      BINDING AFFINITY PREDICTED BY RF-SCORE:    0.00 PKD
ROOT
HETATM    1  O   UNL     1     -10.913  12.578  63.347  1.00  0.00    -0.452 OA 
HETATM    2  C   UNL     1     -12.180  12.790  63.794  1.00  0.00    -0.489 C  
HETATM    3  C   UNL     1     -12.284  14.041  64.648  1.00  0.00    -0.435 C  
HETATM    4  O   UNL     1     -13.112  12.051  63.516  1.00  0.00    -0.764 OA 
ENDROOT
BRANCH   3   5
HETATM    5  O   UNL     1     -10.984  14.641  64.775  1.00  0.00    -0.392 OA 
BRANCH   5   6
HETATM    6  C   UNL     1     -10.767  15.130  66.112  1.00  0.00    -0.325 C  
BRANCH   6   7
HETATM    7  C   UNL     1     -11.705  14.376  67.073  1.00  0.00    -0.399 C  
BRANCH   7   8
HETATM    8  N   UNL     1     -11.059  13.858  68.290  1.00  0.00    -0.248 NA 
HETATM    9  C   UNL     1     -11.769  12.731  68.928  1.00  0.00    -0.326 C  
HETATM   10  C   UNL     1     -11.689  11.363  68.193  1.00  0.00    -0.284 C  
HETATM   11  N   UNL     1     -10.348  10.975  67.716  1.00  0.00    -0.182 NA 
HETATM   12  C   UNL     1      -9.591  12.102  67.172  1.00  0.00    -0.194 C  
HETATM   13  C   UNL     1      -9.683  13.402  68.005  1.00  0.00    -0.222 C  
BRANCH  11  14
HETATM   14  C   UNL     1     -10.343   9.716  66.918  1.00  0.00    -0.238 C  
BRANCH  14  15
HETATM   15  C   UNL     1     -10.517   8.407  67.733  1.00  0.00    -0.284 A  
HETATM   16  C   UNL     1     -10.900   7.212  67.106  1.00  0.00    -0.403 A  
HETATM   17  C   UNL     1     -10.231   8.344  69.114  1.00  0.00    -0.217 A  
HETATM   18  C   UNL     1     -10.979   6.007  67.825  1.00  0.00    -0.333 A  
HETATM   19  C   UNL     1     -10.677   5.981  69.181  1.00  0.00    -0.399 A  
HETATM   20  C   UNL     1     -10.304   7.151  69.830  1.00  0.00    -0.224 A  
ENDBRANCH  14  15
BRANCH  14  21
HETATM   21  C   UNL     1      -9.241   9.570  65.841  1.00  0.00    -0.260 A  
HETATM   22  C   UNL     1      -7.408   8.930  63.795  1.00  0.00    -0.101 A  
HETATM   23 CL   UNL     1      -6.340   8.413  62.551  1.00  0.00    -0.088 Cl 
HETATM   24  C   UNL     1      -7.049   8.758  65.125  1.00  0.00    -0.086 A  
HETATM   25  C   UNL     1      -9.550   9.812  64.488  1.00  0.00    -0.201 A  
HETATM   26  C   UNL     1      -7.949   9.103  66.137  1.00  0.00    -0.103 A  
HETATM   27  C   UNL     1      -8.638   9.495  63.472  1.00  0.00    -0.221 A  
ENDBRANCH  14  21
ENDBRANCH  11  14
ENDBRANCH   7   8
ENDBRANCH   6   7
ENDBRANCH   5   6
ENDBRANCH   3   5
TORSDOF 7
ENDMDL
MODEL       43
REMARK 921   NORMALIZED FREE ENERGY PREDICTED BY IDOCK:   -5.71 KCAL/MOL
REMARK 922        TOTAL FREE ENERGY PREDICTED BY IDOCK:   -9.08 KCAL/MOL
REMARK 923 INTER-LIGAND FREE ENERGY PREDICTED BY IDOCK:   -7.83 KCAL/MOL
REMARK 924 INTRA-LIGAND FREE ENERGY PREDICTED BY IDOCK:   -1.26 KCAL/MOL
REMARK 927      BINDING AFFINITY PREDICTED BY RF-SCORE:    0.00 PKD
ROOT
HETATM    1  O   UNL     1     -12.436  13.867  62.961  1.00  0.00    -0.689 OA 
HETATM    2  C   UNL     1     -12.113  12.710  63.600  1.00  0.00    -0.547 C  
HETATM    3  C   UNL     1     -11.279  12.955  64.844  1.00  0.00    -0.300 C  
HETATM    4  O   UNL     1     -12.475  11.612  63.203  1.00  0.00    -0.427 OA 
ENDROOT
BRANCH   3   5
HETATM    5  O   UNL     1     -11.031  14.365  64.981  1.00  0.00    -0.345 OA 
BRANCH   5   6
HETATM    6  C   UNL     1     -11.427  14.836  66.283  1.00  0.00    -0.316 C  
BRANCH   6   7
HETATM    7  C   UNL     1     -11.723  13.621  67.181  1.00  0.00    -0.383 C  
BRANCH   7   8
HETATM    8  N   UNL     1     -11.033  13.627  68.481  1.00  0.00    -0.257 NA 
HETATM    9  C   UNL     1     -11.777  12.965  69.572  1.00  0.00    -0.323 C  
HETATM   10  C   UNL     1     -11.846  11.413  69.514  1.00  0.00    -0.357 C  
HETATM   11  N   UNL     1     -10.573  10.731  69.217  1.00  0.00    -0.221 NA 
HETATM   12  C   UNL     1      -9.777  11.429  68.207  1.00  0.00    -0.202 C  
HETATM   13  C   UNL     1      -9.717  12.964  68.384  1.00  0.00    -0.186 C  
BRANCH  11  14
HETATM   14  C   UNL     1     -10.713   9.255  69.056  1.00  0.00    -0.167 C  
BRANCH  14  15
HETATM   15  C   UNL     1     -10.907   8.454  70.371  1.00  0.00    -0.246 A  
HETATM   16  C   UNL     1     -11.459   7.165  70.357  1.00  0.00    -0.317 A  
HETATM   17  C   UNL     1     -10.475   8.954  71.619  1.00  0.00    -0.408 A  
HETATM   18  C   UNL     1     -11.560   6.405  71.534  1.00  0.00    -0.364 A  
HETATM   19  C   UNL     1     -11.111   6.925  72.743  1.00  0.00    -0.304 A  
HETATM   20  C   UNL     1     -10.570   8.203  72.789  1.00  0.00    -0.386 A  
ENDBRANCH  14  15
BRANCH  14  21
HETATM   21  C   UNL     1      -9.712   8.552  68.108  1.00  0.00    -0.175 A  
HETATM   22  C   UNL     1      -8.049   6.910  66.529  1.00  0.00    -0.111 A  
HETATM   23 CL   UNL     1      -7.075   5.804  65.642  1.00  0.00    -0.068 Cl 
HETATM   24  C   UNL     1      -7.555   7.476  67.697  1.00  0.00    -0.113 A  
HETATM   25  C   UNL     1     -10.161   8.033  66.878  1.00  0.00    -0.385 A  
HETATM   26  C   UNL     1      -8.373   8.312  68.462  1.00  0.00    -0.129 A  
HETATM   27  C   UNL     1      -9.333   7.218  66.094  1.00  0.00    -0.101 A  
ENDBRANCH  14  21
ENDBRANCH  11  14
ENDBRANCH   7   8
ENDBRANCH   6   7
ENDBRANCH   5   6
ENDBRANCH   3   5
TORSDOF 7
ENDMDL
MODEL       44
REMARK 921   NORMALIZED FREE ENERGY PREDICTED BY IDOCK:   -5.70 KCAL/MOL
REMARK 922        TOTAL FREE ENERGY PREDICTED BY IDOCK:   -9.07 KCAL/MOL
REMARK 923 INTER-LIGAND FREE ENERGY PREDICTED BY IDOCK:   -8.43 KCAL/MOL
REMARK 924 INTRA-LIGAND FREE ENERGY PREDICTED BY IDOCK:   -0.64 KCAL/MOL
REMARK 927      BINDING AFFINITY PREDICTED BY RF-SCORE:    0.00 PKD
ROOT
HETATM    1  O   UNL     1     -10.503  18.029  66.172  1.00  0.00    -0.386 OA 
HETATM    2  C   UNL     1     -10.354  19.381  66.161  1.00  0.00    -0.504 C  
HETATM    3  C   UNL     1      -9.558  19.880  67.353  1.00  0.00    -0.374 C  
HETATM    4  O   UNL     1     -10.809  20.090  65.275  1.00  0.00    -0.310 OA 
ENDROOT
BRANCH   3   5
HETATM    5  O   UNL     1      -9.208  18.767  68.192  1.00  0.00    -0.295 OA 
BRANCH   5   6
HETATM    6  C   UNL     1      -7.779  18.623  68.294  1.00  0.00    -0.298 C  
BRANCH   6   7
HETATM    7  C   UNL     1      -7.347  17.385  67.485  1.00  0.00    -0.171 C  
BRANCH   7   8
HETATM    8  N   UNL     1      -6.998  16.207  68.295  1.00  0.00    -0.121 NA 
HETATM    9  C   UNL     1      -7.794  16.055  69.530  1.00  0.00    -0.065 C  
HETATM   10  C   UNL     1      -9.270  15.603  69.345  1.00  0.00    -0.279 C  
HETATM   11  N   UNL     1      -9.480  14.484  68.408  1.00  0.00    -0.204 NA 
HETATM   12  C   UNL     1      -8.626  14.566  67.224  1.00  0.00    -0.215 C  
HETATM   13  C   UNL     1      -7.160  14.962  67.515  1.00  0.00    -0.189 C  
BRANCH  11  14
HETATM   14  C   UNL     1     -10.919  14.165  68.176  1.00  0.00    -0.249 C  
BRANCH  14  15
HETATM   15  C   UNL     1     -11.619  13.371  69.310  1.00  0.00    -0.365 A  
HETATM   16  C   UNL     1     -11.505  11.975  69.391  1.00  0.00    -0.361 A  
HETATM   17  C   UNL     1     -12.337  14.017  70.340  1.00  0.00    -0.429 A  
HETATM   18  C   UNL     1     -12.069  11.261  70.461  1.00  0.00    -0.481 A  
HETATM   19  C   UNL     1     -12.757  11.933  71.466  1.00  0.00    -0.379 A  
HETATM   20  C   UNL     1     -12.894  13.313  71.406  1.00  0.00    -0.411 A  
ENDBRANCH  14  15
BRANCH  14  21
HETATM   21  C   UNL     1     -11.301  13.616  66.781  1.00  0.00    -0.346 A  
HETATM   22  C   UNL     1     -12.317  12.422  64.436  1.00  0.00    -0.447 A  
HETATM   23 CL   UNL     1     -13.016  11.618  63.086  1.00  0.00    -0.194 Cl 
HETATM   24  C   UNL     1     -11.230  11.854  65.087  1.00  0.00    -0.346 A  
HETATM   25  C   UNL     1     -12.349  14.216  66.056  1.00  0.00    -0.470 A  
HETATM   26  C   UNL     1     -10.711  12.463  66.232  1.00  0.00    -0.287 A  
HETATM   27  C   UNL     1     -12.852  13.623  64.890  1.00  0.00    -0.256 A  
ENDBRANCH  14  21
ENDBRANCH  11  14
ENDBRANCH   7   8
ENDBRANCH   6   7
ENDBRANCH   5   6
ENDBRANCH   3   5
TORSDOF 7
ENDMDL
MODEL       45
REMARK 921   NORMALIZED FREE ENERGY PREDICTED BY IDOCK:   -5.67 KCAL/MOL
REMARK 922        TOTAL FREE ENERGY PREDICTED BY IDOCK:   -9.02 KCAL/MOL
REMARK 923 INTER-LIGAND FREE ENERGY PREDICTED BY IDOCK:   -8.65 KCAL/MOL
REMARK 924 INTRA-LIGAND FREE ENERGY PREDICTED BY IDOCK:   -0.38 KCAL/MOL
REMARK 927      BINDING AFFINITY PREDICTED BY RF-SCORE:    0.00 PKD
ROOT
HETATM    1  O   UNL     1     -10.657   8.342  66.755  1.00  0.00    -0.306 OA 
HETATM    2  C   UNL     1      -9.637   7.458  66.579  1.00  0.00    -0.164 C  
HETATM    3  C   UNL     1      -9.843   6.180  67.372  1.00  0.00    -0.132 C  
HETATM    4  O   UNL     1      -8.681   7.688  65.853  1.00  0.00    -0.157 OA 
ENDROOT
BRANCH   3   5
HETATM    5  O   UNL     1     -11.063   6.277  68.125  1.00  0.00    -0.329 OA 
BRANCH   5   6
HETATM    6  C   UNL     1     -10.888   5.774  69.463  1.00  0.00    -0.340 C  
BRANCH   6   7
HETATM    7  C   UNL     1     -11.524   6.767  70.453  1.00  0.00    -0.365 C  
BRANCH   7   8
HETATM    8  N   UNL     1     -10.564   7.597  71.200  1.00  0.00    -0.220 NA 
HETATM    9  C   UNL     1      -9.662   8.402  70.353  1.00  0.00    -0.173 C  
HETATM   10  C   UNL     1     -10.300   9.625  69.636  1.00  0.00    -0.227 C  
HETATM   11  N   UNL     1     -11.174  10.468  70.473  1.00  0.00    -0.310 NA 
HETATM   12  C   UNL     1     -12.005   9.689  71.391  1.00  0.00    -0.399 C  
HETATM   13  C   UNL     1     -11.266   8.532  72.104  1.00  0.00    -0.362 C  
BRANCH  11  14
HETATM   14  C   UNL     1     -11.854  11.557  69.714  1.00  0.00    -0.357 C  
BRANCH  14  15
HETATM   15  C   UNL     1     -11.106  12.057  68.449  1.00  0.00    -0.290 A  
HETATM   16  C   UNL     1     -11.741  12.080  67.198  1.00  0.00    -0.344 A  
HETATM   17  C   UNL     1      -9.793  12.572  68.512  1.00  0.00    -0.153 A  
HETATM   18  C   UNL     1     -11.096  12.607  66.066  1.00  0.00    -0.321 A  
HETATM   19  C   UNL     1      -9.808  13.118  66.170  1.00  0.00    -0.284 A  
HETATM   20  C   UNL     1      -9.152  13.099  67.393  1.00  0.00    -0.208 A  
ENDBRANCH  14  15
BRANCH  14  21
HETATM   21  C   UNL     1     -12.426  12.736  70.536  1.00  0.00    -0.280 A  
HETATM   22  C   UNL     1     -13.086  14.906  72.213  1.00  0.00    -0.352 A  
HETATM   23 CL   UNL     1     -13.373  16.206  73.301  1.00  0.00    -0.617 Cl 
HETATM   24  C   UNL     1     -13.467  13.618  72.565  1.00  0.00    -0.675 A  
HETATM   25  C   UNL     1     -12.124  14.060  70.163  1.00  0.00    -0.419 A  
HETATM   26  C   UNL     1     -13.164  12.549  71.718  1.00  0.00    -0.444 A  
HETATM   27  C   UNL     1     -12.454  15.138  70.996  1.00  0.00    -0.419 A  
ENDBRANCH  14  21
ENDBRANCH  11  14
ENDBRANCH   7   8
ENDBRANCH   6   7
ENDBRANCH   5   6
ENDBRANCH   3   5
TORSDOF 7
ENDMDL
MODEL       46
REMARK 921   NORMALIZED FREE ENERGY PREDICTED BY IDOCK:   -5.66 KCAL/MOL
REMARK 922        TOTAL FREE ENERGY PREDICTED BY IDOCK:   -9.01 KCAL/MOL
REMARK 923 INTER-LIGAND FREE ENERGY PREDICTED BY IDOCK:   -8.76 KCAL/MOL
REMARK 924 INTRA-LIGAND FREE ENERGY PREDICTED BY IDOCK:   -0.25 KCAL/MOL
REMARK 927      BINDING AFFINITY PREDICTED BY RF-SCORE:    0.00 PKD
ROOT
HETATM    1  O   UNL     1      -9.007  20.298  67.269  1.00  0.00    -0.342 OA 
HETATM    2  C   UNL     1     -10.020  19.402  67.119  1.00  0.00    -0.360 C  
HETATM    3  C   UNL     1      -9.622  18.228  66.243  1.00  0.00    -0.251 C  
HETATM    4  O   UNL     1     -11.112  19.544  67.648  1.00  0.00    -0.346 OA 
ENDROOT
BRANCH   3   5
HETATM    5  O   UNL     1      -8.274  18.413  65.781  1.00  0.00    -0.494 OA 
BRANCH   5   6
HETATM    6  C   UNL     1      -7.416  17.355  66.249  1.00  0.00    -0.319 C  
BRANCH   6   7
HETATM    7  C   UNL     1      -8.291  16.169  66.697  1.00  0.00    -0.286 C  
BRANCH   7   8
HETATM    8  N   UNL     1      -8.021  15.679  68.058  1.00  0.00    -0.130 NA 
HETATM    9  C   UNL     1      -9.230  15.367  68.847  1.00  0.00    -0.216 C  
HETATM   10  C   UNL     1     -10.004  14.082  68.440  1.00  0.00    -0.236 C  
HETATM   11  N   UNL     1      -9.172  12.887  68.203  1.00  0.00    -0.210 NA 
HETATM   12  C   UNL     1      -7.922  13.194  67.509  1.00  0.00    -0.179 C  
HETATM   13  C   UNL     1      -7.193  14.456  68.026  1.00  0.00    -0.141 C  
BRANCH  11  14
HETATM   14  C   UNL     1      -9.946  11.714  67.702  1.00  0.00    -0.188 C  
BRANCH  14  15
HETATM   15  C   UNL     1     -10.786  11.965  66.422  1.00  0.00    -0.318 A  
HETATM   16  C   UNL     1     -11.821  12.912  66.412  1.00  0.00    -0.478 A  
HETATM   17  C   UNL     1     -10.504  11.310  65.204  1.00  0.00    -0.351 A  
HETATM   18  C   UNL     1     -12.530  13.201  65.234  1.00  0.00    -0.550 A  
HETATM   19  C   UNL     1     -12.214  12.546  64.049  1.00  0.00    -0.566 A  
HETATM   20  C   UNL     1     -11.202  11.596  64.032  1.00  0.00    -0.448 A  
ENDBRANCH  14  15
BRANCH  14  21
HETATM   21  C   UNL     1     -10.739  10.897  68.749  1.00  0.00    -0.243 A  
HETATM   22  C   UNL     1     -11.980   9.636  70.946  1.00  0.00    -0.309 A  
HETATM   23 CL   UNL     1     -12.645   8.927  72.365  1.00  0.00    -0.444 Cl 
HETATM   24  C   UNL     1     -10.919   9.015  70.301  1.00  0.00    -0.274 A  
HETATM   25  C   UNL     1     -11.869  11.465  69.369  1.00  0.00    -0.419 A  
HETATM   26  C   UNL     1     -10.325   9.629  69.195  1.00  0.00    -0.219 A  
HETATM   27  C   UNL     1     -12.486  10.837  70.460  1.00  0.00    -0.447 A  
ENDBRANCH  14  21
ENDBRANCH  11  14
ENDBRANCH   7   8
ENDBRANCH   6   7
ENDBRANCH   5   6
ENDBRANCH   3   5
TORSDOF 7
ENDMDL
MODEL       47
REMARK 921   NORMALIZED FREE ENERGY PREDICTED BY IDOCK:   -5.65 KCAL/MOL
REMARK 922        TOTAL FREE ENERGY PREDICTED BY IDOCK:   -9.00 KCAL/MOL
REMARK 923 INTER-LIGAND FREE ENERGY PREDICTED BY IDOCK:   -8.39 KCAL/MOL
REMARK 924 INTRA-LIGAND FREE ENERGY PREDICTED BY IDOCK:   -0.60 KCAL/MOL
REMARK 927      BINDING AFFINITY PREDICTED BY RF-SCORE:    0.00 PKD
ROOT
HETATM    1  O   UNL     1     -11.168   6.503  66.838  1.00  0.00    -0.387 OA 
HETATM    2  C   UNL     1     -10.456   6.548  67.996  1.00  0.00    -0.216 C  
HETATM    3  C   UNL     1     -10.140   7.971  68.420  1.00  0.00    -0.195 C  
HETATM    4  O   UNL     1     -10.129   5.544  68.612  1.00  0.00    -0.157 OA 
ENDROOT
BRANCH   3   5
HETATM    5  O   UNL     1     -10.663   8.887  67.443  1.00  0.00    -0.272 OA 
BRANCH   5   6
HETATM    6  C   UNL     1      -9.918  10.119  67.436  1.00  0.00    -0.195 C  
BRANCH   6   7
HETATM    7  C   UNL     1     -10.586  11.096  66.451  1.00  0.00    -0.261 C  
BRANCH   7   8
HETATM    8  N   UNL     1      -9.656  11.971  65.719  1.00  0.00    -0.236 NA 
HETATM    9  C   UNL     1     -10.308  13.046  64.944  1.00  0.00    -0.324 C  
HETATM   10  C   UNL     1     -10.908  14.220  65.768  1.00  0.00    -0.303 C  
HETATM   11  N   UNL     1     -10.044  14.753  66.838  1.00  0.00    -0.243 NA 
HETATM   12  C   UNL     1      -9.313  13.706  67.551  1.00  0.00    -0.223 C  
HETATM   13  C   UNL     1      -8.700  12.616  66.643  1.00  0.00    -0.080 C  
BRANCH  11  14
HETATM   14  C   UNL     1     -10.708  15.796  67.673  1.00  0.00    -0.310 C  
BRANCH  14  15
HETATM   15  C   UNL     1     -10.020  17.187  67.676  1.00  0.00    -0.283 A  
HETATM   16  C   UNL     1     -10.779  18.367  67.645  1.00  0.00    -0.390 A  
HETATM   17  C   UNL     1      -8.619  17.327  67.780  1.00  0.00    -0.225 A  
HETATM   18  C   UNL     1     -10.165  19.627  67.730  1.00  0.00    -0.565 A  
HETATM   19  C   UNL     1      -8.783  19.726  67.846  1.00  0.00    -0.370 A  
HETATM   20  C   UNL     1      -8.006  18.575  67.868  1.00  0.00    -0.270 A  
ENDBRANCH  14  15
BRANCH  14  21
HETATM   21  C   UNL     1     -11.150  15.380  69.096  1.00  0.00    -0.267 A  
HETATM   22  C   UNL     1     -12.335  14.775  71.583  1.00  0.00    -0.345 A  
HETATM   23 CL   UNL     1     -13.163  14.483  73.062  1.00  0.00    -0.598 Cl 
HETATM   24  C   UNL     1     -11.548  15.911  71.450  1.00  0.00    -0.529 A  
HETATM   25  C   UNL     1     -11.884  14.192  69.281  1.00  0.00    -0.381 A  
HETATM   26  C   UNL     1     -10.939  16.193  70.224  1.00  0.00    -0.345 A  
HETATM   27  C   UNL     1     -12.471  13.892  70.518  1.00  0.00    -0.422 A  
ENDBRANCH  14  21
ENDBRANCH  11  14
ENDBRANCH   7   8
ENDBRANCH   6   7
ENDBRANCH   5   6
ENDBRANCH   3   5
TORSDOF 7
ENDMDL
MODEL       48
REMARK 921   NORMALIZED FREE ENERGY PREDICTED BY IDOCK:   -5.65 KCAL/MOL
REMARK 922        TOTAL FREE ENERGY PREDICTED BY IDOCK:   -8.99 KCAL/MOL
REMARK 923 INTER-LIGAND FREE ENERGY PREDICTED BY IDOCK:   -8.50 KCAL/MOL
REMARK 924 INTRA-LIGAND FREE ENERGY PREDICTED BY IDOCK:   -0.49 KCAL/MOL
REMARK 927      BINDING AFFINITY PREDICTED BY RF-SCORE:    0.00 PKD
ROOT
HETATM    1  O   UNL     1     -11.145  10.063  70.972  1.00  0.00    -0.343 OA 
HETATM    2  C   UNL     1     -12.108   9.394  71.664  1.00  0.00    -0.388 C  
HETATM    3  C   UNL     1     -13.279  10.289  72.026  1.00  0.00    -0.411 C  
HETATM    4  O   UNL     1     -12.020   8.207  71.940  1.00  0.00    -0.286 OA 
ENDROOT
BRANCH   3   5
HETATM    5  O   UNL     1     -13.023  11.624  71.557  1.00  0.00    -0.424 OA 
BRANCH   5   6
HETATM    6  C   UNL     1     -13.679  12.600  72.388  1.00  0.00    -0.279 C  
BRANCH   6   7
HETATM    7  C   UNL     1     -12.645  13.654  72.825  1.00  0.00     0.187 C  
BRANCH   7   8
HETATM    8  N   UNL     1     -13.105  15.049  72.731  1.00  0.00    -0.413 NA 
HETATM    9  C   UNL     1     -12.031  16.033  72.487  1.00  0.00    -0.545 C  
HETATM   10  C   UNL     1     -11.420  16.043  71.057  1.00  0.00    -0.417 C  
HETATM   11  N   UNL     1     -12.393  15.997  69.950  1.00  0.00    -0.129 NA 
HETATM   12  C   UNL     1     -13.518  15.101  70.219  1.00  0.00     0.208 C  
HETATM   13  C   UNL     1     -14.097  15.208  71.648  1.00  0.00    -0.549 C  
BRANCH  11  14
HETATM   14  C   UNL     1     -11.758  15.890  68.605  1.00  0.00    -0.322 C  
BRANCH  14  15
HETATM   15  C   UNL     1     -11.587  14.448  68.059  1.00  0.00    -0.357 A  
HETATM   16  C   UNL     1     -12.021  14.107  66.769  1.00  0.00    -0.475 A  
HETATM   17  C   UNL     1     -10.931  13.442  68.801  1.00  0.00    -0.290 A  
HETATM   18  C   UNL     1     -11.796  12.826  66.241  1.00  0.00    -0.485 A  
HETATM   19  C   UNL     1     -11.133  11.865  66.996  1.00  0.00    -0.354 A  
HETATM   20  C   UNL     1     -10.701  12.170  68.279  1.00  0.00    -0.248 A  
ENDBRANCH  14  15
BRANCH  14  21
HETATM   21  C   UNL     1     -10.491  16.743  68.355  1.00  0.00    -0.339 A  
HETATM   22  C   UNL     1      -8.211  18.403  68.309  1.00  0.00    -0.299 A  
HETATM   23 CL   UNL     1      -6.859  19.461  68.403  1.00  0.00    -0.306 Cl 
HETATM   24  C   UNL     1      -9.424  18.879  67.830  1.00  0.00    -0.342 A  
HETATM   25  C   UNL     1      -9.232  16.258  68.758  1.00  0.00    -0.240 A  
HETATM   26  C   UNL     1     -10.545  18.045  67.828  1.00  0.00    -0.409 A  
HETATM   27  C   UNL     1      -8.099  17.083  68.734  1.00  0.00    -0.250 A  
ENDBRANCH  14  21
ENDBRANCH  11  14
ENDBRANCH   7   8
ENDBRANCH   6   7
ENDBRANCH   5   6
ENDBRANCH   3   5
TORSDOF 7
ENDMDL
MODEL       49
REMARK 921   NORMALIZED FREE ENERGY PREDICTED BY IDOCK:   -5.61 KCAL/MOL
REMARK 922        TOTAL FREE ENERGY PREDICTED BY IDOCK:   -8.94 KCAL/MOL
REMARK 923 INTER-LIGAND FREE ENERGY PREDICTED BY IDOCK:   -8.31 KCAL/MOL
REMARK 924 INTRA-LIGAND FREE ENERGY PREDICTED BY IDOCK:   -0.63 KCAL/MOL
REMARK 927      BINDING AFFINITY PREDICTED BY RF-SCORE:    0.00 PKD
ROOT
HETATM    1  O   UNL     1      -6.700  14.097  69.178  1.00  0.00    -0.107 OA 
HETATM    2  C   UNL     1      -5.775  14.432  68.239  1.00  0.00    -0.118 C  
HETATM    3  C   UNL     1      -5.451  15.915  68.257  1.00  0.00    -0.109 C  
HETATM    4  O   UNL     1      -5.269  13.613  67.486  1.00  0.00    -0.317 OA 
ENDROOT
BRANCH   3   5
HETATM    5  O   UNL     1      -6.252  16.566  69.257  1.00  0.00    -0.158 OA 
BRANCH   5   6
HETATM    6  C   UNL     1      -7.051  17.616  68.678  1.00  0.00    -0.245 C  
BRANCH   6   7
HETATM    7  C   UNL     1      -8.537  17.232  68.799  1.00  0.00    -0.230 C  
BRANCH   7   8
HETATM    8  N   UNL     1      -9.176  16.824  67.537  1.00  0.00    -0.214 NA 
HETATM    9  C   UNL     1      -9.135  15.371  67.272  1.00  0.00    -0.206 C  
HETATM   10  C   UNL     1     -10.075  14.487  68.140  1.00  0.00    -0.227 C  
HETATM   11  N   UNL     1     -11.455  14.985  68.291  1.00  0.00    -0.320 NA 
HETATM   12  C   UNL     1     -11.520  16.437  68.455  1.00  0.00    -0.209 C  
HETATM   13  C   UNL     1     -10.595  17.234  67.506  1.00  0.00    -0.329 C  
BRANCH  11  14
HETATM   14  C   UNL     1     -12.282  14.168  69.225  1.00  0.00    -0.269 C  
BRANCH  14  15
HETATM   15  C   UNL     1     -12.501  14.780  70.634  1.00  0.00    -0.407 A  
HETATM   16  C   UNL     1     -13.794  15.025  71.121  1.00  0.00    -0.468 A  
HETATM   17  C   UNL     1     -11.425  15.048  71.507  1.00  0.00    -0.377 A  
HETATM   18  C   UNL     1     -14.000  15.502  72.426  1.00  0.00    -0.653 A  
HETATM   19  C   UNL     1     -12.915  15.741  73.263  1.00  0.00    -0.675 A  
HETATM   20  C   UNL     1     -11.624  15.517  72.803  1.00  0.00    -0.472 A  
ENDBRANCH  14  15
BRANCH  14  21
HETATM   21  C   UNL     1     -11.963  12.656  69.307  1.00  0.00    -0.301 A  
HETATM   22  C   UNL     1     -10.990  10.021  69.565  1.00  0.00    -0.253 A  
HETATM   23 CL   UNL     1     -10.272   8.467  69.727  1.00  0.00    -0.201 Cl 
HETATM   24  C   UNL     1     -11.107  10.596  68.306  1.00  0.00    -0.334 A  
HETATM   25  C   UNL     1     -11.912  12.020  70.563  1.00  0.00    -0.338 A  
HETATM   26  C   UNL     1     -11.615  11.891  68.180  1.00  0.00    -0.400 A  
HETATM   27  C   UNL     1     -11.430  10.710  70.690  1.00  0.00    -0.374 A  
ENDBRANCH  14  21
ENDBRANCH  11  14
ENDBRANCH   7   8
ENDBRANCH   6   7
ENDBRANCH   5   6
ENDBRANCH   3   5
TORSDOF 7
ENDMDL
MODEL       50
REMARK 921   NORMALIZED FREE ENERGY PREDICTED BY IDOCK:   -5.61 KCAL/MOL
REMARK 922        TOTAL FREE ENERGY PREDICTED BY IDOCK:   -8.93 KCAL/MOL
REMARK 923 INTER-LIGAND FREE ENERGY PREDICTED BY IDOCK:   -8.25 KCAL/MOL
REMARK 924 INTRA-LIGAND FREE ENERGY PREDICTED BY IDOCK:   -0.69 KCAL/MOL
REMARK 927      BINDING AFFINITY PREDICTED BY RF-SCORE:    0.00 PKD
ROOT
HETATM    1  O   UNL     1     -12.590   7.047  70.996  1.00  0.00    -0.375 OA 
HETATM    2  C   UNL     1     -11.635   6.229  71.515  1.00  0.00    -0.287 C  
HETATM    3  C   UNL     1     -10.623   5.794  70.470  1.00  0.00    -0.289 C  
HETATM    4  O   UNL     1     -11.611   5.904  72.693  1.00  0.00    -0.290 OA 
ENDROOT
BRANCH   3   5
HETATM    5  O   UNL     1     -10.984   6.352  69.196  1.00  0.00    -0.290 OA 
BRANCH   5   6
HETATM    6  C   UNL     1      -9.904   7.130  68.645  1.00  0.00    -0.154 C  
BRANCH   6   7
HETATM    7  C   UNL     1     -10.406   8.564  68.394  1.00  0.00    -0.202 C  
BRANCH   7   8
HETATM    8  N   UNL     1     -10.199   9.497  69.514  1.00  0.00    -0.201 NA 
HETATM    9  C   UNL     1      -9.194  10.548  69.257  1.00  0.00    -0.148 C  
HETATM   10  C   UNL     1      -9.614  11.677  68.274  1.00  0.00    -0.198 C  
HETATM   11  N   UNL     1     -10.960  12.239  68.490  1.00  0.00    -0.227 NA 
HETATM   12  C   UNL     1     -11.950  11.221  68.843  1.00  0.00    -0.310 C  
HETATM   13  C   UNL     1     -11.460  10.178  69.874  1.00  0.00    -0.254 C  
BRANCH  11  14
HETATM   14  C   UNL     1     -11.362  13.233  67.452  1.00  0.00    -0.303 C  
BRANCH  14  15
HETATM   15  C   UNL     1     -11.526  12.670  66.016  1.00  0.00    -0.414 A  
HETATM   16  C   UNL     1     -12.530  13.152  65.162  1.00  0.00    -0.539 A  
HETATM   17  C   UNL     1     -10.637  11.710  65.484  1.00  0.00    -0.329 A  
HETATM   18  C   UNL     1     -12.630  12.704  63.834  1.00  0.00    -0.432 A  
HETATM   19  C   UNL     1     -11.728  11.768  63.341  1.00  0.00    -0.423 A  
HETATM   20  C   UNL     1     -10.731  11.267  64.166  1.00  0.00    -0.436 A  
ENDBRANCH  14  15
BRANCH  14  21
HETATM   21  C   UNL     1     -10.613  14.586  67.449  1.00  0.00    -0.271 A  
HETATM   22  C   UNL     1      -9.559  17.190  67.190  1.00  0.00    -0.255 A  
HETATM   23 CL   UNL     1      -9.006  18.797  66.933  1.00  0.00    -0.290 Cl 
HETATM   24  C   UNL     1      -9.040  16.154  66.425  1.00  0.00    -0.339 A  
HETATM   25  C   UNL     1     -11.064  15.637  68.271  1.00  0.00    -0.336 A  
HETATM   26  C   UNL     1      -9.545  14.860  66.576  1.00  0.00    -0.297 A  
HETATM   27  C   UNL     1     -10.539  16.930  68.142  1.00  0.00    -0.360 A  
ENDBRANCH  14  21
ENDBRANCH  11  14
ENDBRANCH   7   8
ENDBRANCH   6   7
ENDBRANCH   5   6
ENDBRANCH   3   5
TORSDOF 7
ENDMDL
MODEL       51
REMARK 921   NORMALIZED FREE ENERGY PREDICTED BY IDOCK:   -5.59 KCAL/MOL
REMARK 922        TOTAL FREE ENERGY PREDICTED BY IDOCK:   -8.91 KCAL/MOL
REMARK 923 INTER-LIGAND FREE ENERGY PREDICTED BY IDOCK:   -8.13 KCAL/MOL
REMARK 924 INTRA-LIGAND FREE ENERGY PREDICTED BY IDOCK:   -0.78 KCAL/MOL
REMARK 927      BINDING AFFINITY PREDICTED BY RF-SCORE:    0.00 PKD
ROOT
HETATM    1  O   UNL     1      -8.018   8.951  67.464  1.00  0.00    -0.101 OA 
HETATM    2  C   UNL     1      -9.354   9.100  67.678  1.00  0.00    -0.135 C  
HETATM    3  C   UNL     1     -10.116   9.353  66.390  1.00  0.00    -0.262 C  
HETATM    4  O   UNL     1      -9.858   9.023  68.789  1.00  0.00    -0.163 OA 
ENDROOT
BRANCH   3   5
HETATM    5  O   UNL     1      -9.192   9.399  65.290  1.00  0.00    -0.224 OA 
BRANCH   5   6
HETATM    6  C   UNL     1      -9.609  10.360  64.302  1.00  0.00    -0.318 C  
BRANCH   6   7
HETATM    7  C   UNL     1     -10.859  11.094  64.822  1.00  0.00    -0.207 C  
BRANCH   7   8
HETATM    8  N   UNL     1     -11.205  12.324  64.091  1.00  0.00    -0.339 NA 
HETATM    9  C   UNL     1     -12.491  12.931  64.488  1.00  0.00    -0.400 C  
HETATM   10  C   UNL     1     -12.521  13.637  65.873  1.00  0.00    -0.452 C  
HETATM   11  N   UNL     1     -11.378  14.523  66.158  1.00  0.00    -0.344 NA 
HETATM   12  C   UNL     1     -10.105  13.981  65.682  1.00  0.00    -0.322 C  
HETATM   13  C   UNL     1     -10.162  13.355  64.269  1.00  0.00    -0.110 C  
BRANCH  11  14
HETATM   14  C   UNL     1     -11.392  15.084  67.540  1.00  0.00    -0.333 C  
BRANCH  14  15
HETATM   15  C   UNL     1     -10.273  16.112  67.856  1.00  0.00    -0.261 A  
HETATM   16  C   UNL     1     -10.431  17.470  67.541  1.00  0.00    -0.355 A  
HETATM   17  C   UNL     1      -9.089  15.744  68.530  1.00  0.00    -0.194 A  
HETATM   18  C   UNL     1      -9.457  18.417  67.899  1.00  0.00    -0.299 A  
HETATM   19  C   UNL     1      -8.309  18.018  68.575  1.00  0.00    -0.313 A  
HETATM   20  C   UNL     1      -8.121  16.680  68.890  1.00  0.00    -0.235 A  
ENDBRANCH  14  15
BRANCH  14  21
HETATM   21  C   UNL     1     -11.584  14.082  68.704  1.00  0.00    -0.360 A  
HETATM   22  C   UNL     1     -12.296  12.151  70.633  1.00  0.00    -0.295 A  
HETATM   23 CL   UNL     1     -12.853  10.972  71.753  1.00  0.00    -0.534 Cl 
HETATM   24  C   UNL     1     -12.514  13.498  70.888  1.00  0.00    -0.448 A  
HETATM   25  C   UNL     1     -11.299  12.717  68.504  1.00  0.00    -0.333 A  
HETATM   26  C   UNL     1     -12.134  14.455  69.943  1.00  0.00    -0.398 A  
HETATM   27  C   UNL     1     -11.652  11.759  69.464  1.00  0.00    -0.398 A  
ENDBRANCH  14  21
ENDBRANCH  11  14
ENDBRANCH   7   8
ENDBRANCH   6   7
ENDBRANCH   5   6
ENDBRANCH   3   5
TORSDOF 7
ENDMDL
MODEL       52
REMARK 921   NORMALIZED FREE ENERGY PREDICTED BY IDOCK:   -5.56 KCAL/MOL
REMARK 922        TOTAL FREE ENERGY PREDICTED BY IDOCK:   -8.86 KCAL/MOL
REMARK 923 INTER-LIGAND FREE ENERGY PREDICTED BY IDOCK:   -7.98 KCAL/MOL
REMARK 924 INTRA-LIGAND FREE ENERGY PREDICTED BY IDOCK:   -0.88 KCAL/MOL
REMARK 927      BINDING AFFINITY PREDICTED BY RF-SCORE:    0.00 PKD
ROOT
HETATM    1  O   UNL     1      -8.380   9.794  65.850  1.00  0.00    -0.121 OA 
HETATM    2  C   UNL     1      -7.592   9.980  64.756  1.00  0.00    -0.143 C  
HETATM    3  C   UNL     1      -8.397  10.377  63.532  1.00  0.00    -0.154 C  
HETATM    4  O   UNL     1      -6.378   9.846  64.785  1.00  0.00    -0.100 OA 
ENDROOT
BRANCH   3   5
HETATM    5  O   UNL     1      -9.793  10.414  63.869  1.00  0.00    -0.312 OA 
BRANCH   5   6
HETATM    6  C   UNL     1     -10.407  11.632  63.409  1.00  0.00    -0.435 C  
BRANCH   6   7
HETATM    7  C   UNL     1     -11.571  11.987  64.352  1.00  0.00    -0.336 C  
BRANCH   7   8
HETATM    8  N   UNL     1     -11.981  13.401  64.327  1.00  0.00    -0.410 NA 
HETATM    9  C   UNL     1     -12.941  13.779  65.383  1.00  0.00    -0.312 C  
HETATM   10  C   UNL     1     -12.373  13.876  66.827  1.00  0.00    -0.330 C  
HETATM   11  N   UNL     1     -11.091  14.594  66.959  1.00  0.00    -0.324 NA 
HETATM   12  C   UNL     1     -10.164  14.307  65.865  1.00  0.00    -0.324 C  
HETATM   13  C   UNL     1     -10.811  14.293  64.460  1.00  0.00    -0.288 C  
BRANCH  11  14
HETATM   14  C   UNL     1     -10.530  14.558  68.340  1.00  0.00    -0.246 C  
BRANCH  14  15
HETATM   15  C   UNL     1     -11.571  14.409  69.481  1.00  0.00    -0.352 A  
HETATM   16  C   UNL     1     -11.867  13.152  70.029  1.00  0.00    -0.360 A  
HETATM   17  C   UNL     1     -12.208  15.528  70.062  1.00  0.00    -0.380 A  
HETATM   18  C   UNL     1     -12.747  13.022  71.116  1.00  0.00    -0.372 A  
HETATM   19  C   UNL     1     -13.345  14.148  71.670  1.00  0.00    -0.440 A  
HETATM   20  C   UNL     1     -13.079  15.403  71.142  1.00  0.00    -0.565 A  
ENDBRANCH  14  15
BRANCH  14  21
HETATM   21  C   UNL     1      -9.455  15.615  68.690  1.00  0.00    -0.204 A  
HETATM   22  C   UNL     1      -7.379  17.511  68.921  1.00  0.00    -0.245 A  
HETATM   23 CL   UNL     1      -6.071  18.627  68.940  1.00  0.00    -0.222 Cl 
HETATM   24  C   UNL     1      -7.175  16.205  69.346  1.00  0.00    -0.204 A  
HETATM   25  C   UNL     1      -9.662  16.964  68.343  1.00  0.00    -0.263 A  
HETATM   26  C   UNL     1      -8.213  15.275  69.256  1.00  0.00    -0.244 A  
HETATM   27  C   UNL     1      -8.630  17.906  68.460  1.00  0.00    -0.298 A  
ENDBRANCH  14  21
ENDBRANCH  11  14
ENDBRANCH   7   8
ENDBRANCH   6   7
ENDBRANCH   5   6
ENDBRANCH   3   5
TORSDOF 7
ENDMDL
MODEL       53
REMARK 921   NORMALIZED FREE ENERGY PREDICTED BY IDOCK:   -5.56 KCAL/MOL
REMARK 922        TOTAL FREE ENERGY PREDICTED BY IDOCK:   -8.86 KCAL/MOL
REMARK 923 INTER-LIGAND FREE ENERGY PREDICTED BY IDOCK:   -7.81 KCAL/MOL
REMARK 924 INTRA-LIGAND FREE ENERGY PREDICTED BY IDOCK:   -1.05 KCAL/MOL
REMARK 927      BINDING AFFINITY PREDICTED BY RF-SCORE:    0.00 PKD
ROOT
HETATM    1  O   UNL     1      -8.330   8.563  74.097  1.00  0.00    -0.301 OA 
HETATM    2  C   UNL     1      -9.173   8.203  73.091  1.00  0.00    -0.266 C  
HETATM    3  C   UNL     1      -8.573   8.461  71.721  1.00  0.00    -0.176 C  
HETATM    4  O   UNL     1     -10.278   7.721  73.294  1.00  0.00    -0.317 OA 
ENDROOT
BRANCH   3   5
HETATM    5  O   UNL     1      -7.272   9.054  71.874  1.00  0.00    -0.305 OA 
BRANCH   5   6
HETATM    6  C   UNL     1      -6.831   9.659  70.644  1.00  0.00    -0.116 C  
BRANCH   6   7
HETATM    7  C   UNL     1      -7.667   9.089  69.484  1.00  0.00    -0.082 C  
BRANCH   7   8
HETATM    8  N   UNL     1      -7.277   9.565  68.147  1.00  0.00    -0.080 NA 
HETATM    9  C   UNL     1      -8.222   9.206  67.070  1.00  0.00    -0.116 C  
HETATM   10  C   UNL     1      -9.571   9.980  67.052  1.00  0.00    -0.172 C  
HETATM   11  N   UNL     1      -9.469  11.440  67.236  1.00  0.00    -0.167 NA 
HETATM   12  C   UNL     1      -8.465  11.817  68.231  1.00  0.00    -0.161 C  
HETATM   13  C   UNL     1      -7.134  11.036  68.130  1.00  0.00    -0.074 C  
BRANCH  11  14
HETATM   14  C   UNL     1     -10.793  12.121  67.329  1.00  0.00    -0.244 C  
BRANCH  14  15
HETATM   15  C   UNL     1     -10.987  13.335  66.383  1.00  0.00    -0.301 A  
HETATM   16  C   UNL     1     -10.015  14.343  66.292  1.00  0.00    -0.320 A  
HETATM   17  C   UNL     1     -12.105  13.443  65.527  1.00  0.00    -0.467 A  
HETATM   18  C   UNL     1     -10.148  15.401  65.378  1.00  0.00    -0.394 A  
HETATM   19  C   UNL     1     -11.257  15.467  64.542  1.00  0.00    -0.310 A  
HETATM   20  C   UNL     1     -12.240  14.489  64.617  1.00  0.00    -0.474 A  
ENDBRANCH  14  15
BRANCH  14  21
HETATM   21  C   UNL     1     -11.333  12.417  68.748  1.00  0.00    -0.339 A  
HETATM   22  C   UNL     1     -12.701  12.883  71.170  1.00  0.00    -0.276 A  
HETATM   23 CL   UNL     1     -13.650  13.169  72.575  1.00  0.00    -0.665 Cl 
HETATM   24  C   UNL     1     -12.283  13.955  70.394  1.00  0.00    -0.438 A  
HETATM   25  C   UNL     1     -11.695  11.350  69.595  1.00  0.00    -0.415 A  
HETATM   26  C   UNL     1     -11.581  13.722  69.209  1.00  0.00    -0.362 A  
HETATM   27  C   UNL     1     -12.374  11.584  70.799  1.00  0.00    -0.472 A  
ENDBRANCH  14  21
ENDBRANCH  11  14
ENDBRANCH   7   8
ENDBRANCH   6   7
ENDBRANCH   5   6
ENDBRANCH   3   5
TORSDOF 7
ENDMDL
MODEL       54
REMARK 921   NORMALIZED FREE ENERGY PREDICTED BY IDOCK:   -5.52 KCAL/MOL
REMARK 922        TOTAL FREE ENERGY PREDICTED BY IDOCK:   -8.81 KCAL/MOL
REMARK 923 INTER-LIGAND FREE ENERGY PREDICTED BY IDOCK:   -8.12 KCAL/MOL
REMARK 924 INTRA-LIGAND FREE ENERGY PREDICTED BY IDOCK:   -0.69 KCAL/MOL
REMARK 927      BINDING AFFINITY PREDICTED BY RF-SCORE:    0.00 PKD
ROOT
HETATM    1  O   UNL     1     -13.274  12.274  64.547  1.00  0.00    -0.799 OA 
HETATM    2  C   UNL     1     -12.251  13.031  64.067  1.00  0.00    -0.417 C  
HETATM    3  C   UNL     1     -11.811  14.094  65.057  1.00  0.00    -0.389 C  
HETATM    4  O   UNL     1     -11.752  12.848  62.966  1.00  0.00    -0.354 OA 
ENDROOT
BRANCH   3   5
HETATM    5  O   UNL     1     -12.638  14.023  66.231  1.00  0.00    -0.451 OA 
BRANCH   5   6
HETATM    6  C   UNL     1     -11.840  13.844  67.417  1.00  0.00    -0.402 C  
BRANCH   6   7
HETATM    7  C   UNL     1     -11.659  12.336  67.669  1.00  0.00    -0.354 C  
BRANCH   7   8
HETATM    8  N   UNL     1     -10.349  11.794  67.273  1.00  0.00    -0.203 NA 
HETATM    9  C   UNL     1      -9.317  11.856  68.328  1.00  0.00    -0.193 C  
HETATM   10  C   UNL     1      -9.477  10.853  69.506  1.00  0.00     0.188 C  
HETATM   11  N   UNL     1      -9.795   9.466  69.120  1.00  0.00    -0.169 NA 
HETATM   12  C   UNL     1     -10.742   9.388  68.008  1.00  0.00    -0.190 C  
HETATM   13  C   UNL     1     -10.465  10.382  66.856  1.00  0.00    -0.240 C  
BRANCH  11  14
HETATM   14  C   UNL     1     -10.054   8.570  70.285  1.00  0.00    -0.186 C  
BRANCH  14  15
HETATM   15  C   UNL     1     -11.499   8.608  70.848  1.00  0.00    -0.315 A  
HETATM   16  C   UNL     1     -12.262   7.435  70.959  1.00  0.00    -0.315 A  
HETATM   17  C   UNL     1     -12.080   9.799  71.335  1.00  0.00    -0.486 A  
HETATM   18  C   UNL     1     -13.539   7.452  71.544  1.00  0.00    -0.454 A  
HETATM   19  C   UNL     1     -14.073   8.642  72.025  1.00  0.00    -0.523 A  
HETATM   20  C   UNL     1     -13.345   9.820  71.919  1.00  0.00    -0.530 A  
ENDBRANCH  14  15
BRANCH  14  21
HETATM   21  C   UNL     1      -9.004   8.572  71.420  1.00  0.00    -0.262 A  
HETATM   22  C   UNL     1      -7.007   8.178  73.374  1.00  0.00    -0.125 A  
HETATM   23 CL   UNL     1      -5.794   7.806  74.534  1.00  0.00    -0.080 Cl 
HETATM   24  C   UNL     1      -8.347   8.077  73.723  1.00  0.00    -0.311 A  
HETATM   25  C   UNL     1      -7.641   8.750  71.112  1.00  0.00    -0.134 A  
HETATM   26  C   UNL     1      -9.334   8.301  72.760  1.00  0.00    -0.338 A  
HETATM   27  C   UNL     1      -6.650   8.555  72.083  1.00  0.00    -0.085 A  
ENDBRANCH  14  21
ENDBRANCH  11  14
ENDBRANCH   7   8
ENDBRANCH   6   7
ENDBRANCH   5   6
ENDBRANCH   3   5
TORSDOF 7
ENDMDL
MODEL       55
REMARK 921   NORMALIZED FREE ENERGY PREDICTED BY IDOCK:   -5.50 KCAL/MOL
REMARK 922        TOTAL FREE ENERGY PREDICTED BY IDOCK:   -8.79 KCAL/MOL
REMARK 923 INTER-LIGAND FREE ENERGY PREDICTED BY IDOCK:   -8.72 KCAL/MOL
REMARK 924 INTRA-LIGAND FREE ENERGY PREDICTED BY IDOCK:   -0.06 KCAL/MOL
REMARK 927      BINDING AFFINITY PREDICTED BY RF-SCORE:    0.00 PKD
ROOT
HETATM    1  O   UNL     1     -10.353   8.793  66.280  1.00  0.00    -0.231 OA 
HETATM    2  C   UNL     1      -9.988   9.972  66.852  1.00  0.00    -0.209 C  
HETATM    3  C   UNL     1      -9.713  11.049  65.818  1.00  0.00    -0.224 C  
HETATM    4  O   UNL     1      -9.909  10.125  68.061  1.00  0.00    -0.145 OA 
ENDROOT
BRANCH   3   5
HETATM    5  O   UNL     1      -9.885  10.501  64.500  1.00  0.00    -0.288 OA 
BRANCH   5   6
HETATM    6  C   UNL     1     -10.869  11.243  63.754  1.00  0.00    -0.350 C  
BRANCH   6   7
HETATM    7  C   UNL     1     -10.656  12.746  64.013  1.00  0.00    -0.416 C  
BRANCH   7   8
HETATM    8  N   UNL     1     -11.889  13.514  64.254  1.00  0.00    -0.410 NA 
HETATM    9  C   UNL     1     -12.547  13.226  65.544  1.00  0.00    -0.446 C  
HETATM   10  C   UNL     1     -11.844  13.784  66.814  1.00  0.00    -0.420 C  
HETATM   11  N   UNL     1     -11.386  15.183  66.724  1.00  0.00    -0.296 NA 
HETATM   12  C   UNL     1     -10.821  15.512  65.416  1.00  0.00    -0.390 C  
HETATM   13  C   UNL     1     -11.624  14.966  64.212  1.00  0.00    -0.191 C  
BRANCH  11  14
HETATM   14  C   UNL     1     -10.616  15.634  67.919  1.00  0.00    -0.278 C  
BRANCH  14  15
HETATM   15  C   UNL     1     -11.299  15.380  69.289  1.00  0.00    -0.323 A  
HETATM   16  C   UNL     1     -12.133  14.269  69.485  1.00  0.00    -0.376 A  
HETATM   17  C   UNL     1     -11.058  16.206  70.408  1.00  0.00    -0.362 A  
HETATM   18  C   UNL     1     -12.688  13.990  70.745  1.00  0.00    -0.396 A  
HETATM   19  C   UNL     1     -12.417  14.819  71.828  1.00  0.00    -0.410 A  
HETATM   20  C   UNL     1     -11.604  15.931  71.661  1.00  0.00    -0.541 A  
ENDBRANCH  14  15
BRANCH  14  21
HETATM   21  C   UNL     1      -9.982  17.043  67.856  1.00  0.00    -0.281 A  
HETATM   22  C   UNL     1      -8.778  19.539  67.327  1.00  0.00    -0.300 A  
HETATM   23 CL   UNL     1      -8.011  21.013  66.883  1.00  0.00    -0.082 Cl 
HETATM   24  C   UNL     1      -8.022  18.506  67.864  1.00  0.00    -0.270 A  
HETATM   25  C   UNL     1     -10.743  18.133  67.390  1.00  0.00    -0.355 A  
HETATM   26  C   UNL     1      -8.627  17.280  68.152  1.00  0.00    -0.242 A  
HETATM   27  C   UNL     1     -10.144  19.373  67.129  1.00  0.00    -0.490 A  
ENDBRANCH  14  21
ENDBRANCH  11  14
ENDBRANCH   7   8
ENDBRANCH   6   7
ENDBRANCH   5   6
ENDBRANCH   3   5
TORSDOF 7
ENDMDL
MODEL       56
REMARK 921   NORMALIZED FREE ENERGY PREDICTED BY IDOCK:   -5.49 KCAL/MOL
REMARK 922        TOTAL FREE ENERGY PREDICTED BY IDOCK:   -8.77 KCAL/MOL
REMARK 923 INTER-LIGAND FREE ENERGY PREDICTED BY IDOCK:   -7.65 KCAL/MOL
REMARK 924 INTRA-LIGAND FREE ENERGY PREDICTED BY IDOCK:   -1.12 KCAL/MOL
REMARK 927      BINDING AFFINITY PREDICTED BY RF-SCORE:    0.00 PKD
ROOT
HETATM    1  O   UNL     1      -9.856   4.582  68.620  1.00  0.00    -0.156 OA 
HETATM    2  C   UNL     1     -10.677   5.600  68.244  1.00  0.00    -0.151 C  
HETATM    3  C   UNL     1     -11.309   6.296  69.436  1.00  0.00    -0.378 C  
HETATM    4  O   UNL     1     -10.860   5.906  67.075  1.00  0.00    -0.301 OA 
ENDROOT
BRANCH   3   5
HETATM    5  O   UNL     1     -10.881   5.651  70.647  1.00  0.00    -0.273 OA 
BRANCH   5   6
HETATM    6  C   UNL     1     -11.563   6.194  71.793  1.00  0.00    -0.275 C  
BRANCH   6   7
HETATM    7  C   UNL     1     -12.250   7.510  71.383  1.00  0.00    -0.335 C  
BRANCH   7   8
HETATM    8  N   UNL     1     -11.775   8.706  72.098  1.00  0.00    -0.364 NA 
HETATM    9  C   UNL     1     -10.452   9.196  71.660  1.00  0.00    -0.332 C  
HETATM   10  C   UNL     1     -10.402   9.894  70.271  1.00  0.00    -0.281 C  
HETATM   11  N   UNL     1     -11.471  10.878  70.016  1.00  0.00    -0.308 NA 
HETATM   12  C   UNL     1     -12.771  10.452  70.533  1.00  0.00    -0.278 C  
HETATM   13  C   UNL     1     -12.727   9.825  71.946  1.00  0.00    -0.410 C  
BRANCH  11  14
HETATM   14  C   UNL     1     -11.449  11.433  68.632  1.00  0.00    -0.296 C  
BRANCH  14  15
HETATM   15  C   UNL     1     -10.397  10.807  67.678  1.00  0.00    -0.236 A  
HETATM   16  C   UNL     1      -9.125  11.379  67.531  1.00  0.00    -0.157 A  
HETATM   17  C   UNL     1     -10.646   9.607  66.976  1.00  0.00    -0.267 A  
HETATM   18  C   UNL     1      -8.143  10.771  66.732  1.00  0.00    -0.137 A  
HETATM   19  C   UNL     1      -8.420   9.582  66.067  1.00  0.00    -0.132 A  
HETATM   20  C   UNL     1      -9.674   8.999  66.186  1.00  0.00    -0.354 A  
ENDBRANCH  14  15
BRANCH  14  21
HETATM   21  C   UNL     1     -11.496  12.973  68.490  1.00  0.00    -0.340 A  
HETATM   22  C   UNL     1     -11.193  15.746  68.070  1.00  0.00    -0.338 A  
HETATM   23 CL   UNL     1     -10.877  17.412  67.791  1.00  0.00    -0.327 Cl 
HETATM   24  C   UNL     1     -10.994  15.212  69.336  1.00  0.00    -0.268 A  
HETATM   25  C   UNL     1     -11.771  13.552  67.236  1.00  0.00    -0.423 A  
HETATM   26  C   UNL     1     -11.173  13.842  69.548  1.00  0.00    -0.221 A  
HETATM   27  C   UNL     1     -11.622  14.930  67.029  1.00  0.00    -0.314 A  
ENDBRANCH  14  21
ENDBRANCH  11  14
ENDBRANCH   7   8
ENDBRANCH   6   7
ENDBRANCH   5   6
ENDBRANCH   3   5
TORSDOF 7
ENDMDL
MODEL       57
REMARK 921   NORMALIZED FREE ENERGY PREDICTED BY IDOCK:   -5.45 KCAL/MOL
REMARK 922        TOTAL FREE ENERGY PREDICTED BY IDOCK:   -8.71 KCAL/MOL
REMARK 923 INTER-LIGAND FREE ENERGY PREDICTED BY IDOCK:   -8.00 KCAL/MOL
REMARK 924 INTRA-LIGAND FREE ENERGY PREDICTED BY IDOCK:   -0.71 KCAL/MOL
REMARK 927      BINDING AFFINITY PREDICTED BY RF-SCORE:    0.00 PKD
ROOT
HETATM    1  O   UNL     1     -12.096  16.105  63.783  1.00  0.00    -0.946 OA 
HETATM    2  C   UNL     1     -11.842  14.795  64.049  1.00  0.00    -0.071 C  
HETATM    3  C   UNL     1     -10.670  14.619  64.998  1.00  0.00    -0.430 C  
HETATM    4  O   UNL     1     -12.503  13.883  63.574  1.00  0.00    -0.810 OA 
ENDROOT
BRANCH   3   5
HETATM    5  O   UNL     1     -10.127  15.908  65.328  1.00  0.00    -0.433 OA 
BRANCH   5   6
HETATM    6  C   UNL     1     -10.385  16.243  66.705  1.00  0.00    -0.302 C  
BRANCH   6   7
HETATM    7  C   UNL     1     -11.244  15.129  67.332  1.00  0.00    -0.323 C  
BRANCH   7   8
HETATM    8  N   UNL     1     -10.841  14.727  68.689  1.00  0.00    -0.244 NA 
HETATM    9  C   UNL     1     -11.550  13.541  69.211  1.00  0.00    -0.316 C  
HETATM   10  C   UNL     1     -11.153  12.172  68.589  1.00  0.00    -0.251 C  
HETATM   11  N   UNL     1      -9.705  11.935  68.448  1.00  0.00    -0.206 NA 
HETATM   12  C   UNL     1      -8.972  13.128  68.026  1.00  0.00    -0.195 C  
HETATM   13  C   UNL     1      -9.395  14.430  68.745  1.00  0.00    -0.150 C  
BRANCH  11  14
HETATM   14  C   UNL     1      -9.378  10.663  67.741  1.00  0.00    -0.146 C  
BRANCH  14  15
HETATM   15  C   UNL     1      -9.542  10.695  66.198  1.00  0.00    -0.232 A  
HETATM   16  C   UNL     1     -10.771  11.026  65.609  1.00  0.00    -0.217 A  
HETATM   17  C   UNL     1      -8.455  10.465  65.327  1.00  0.00    -0.173 A  
HETATM   18  C   UNL     1     -10.903  11.136  64.215  1.00  0.00    -0.354 A  
HETATM   19  C   UNL     1      -9.807  10.915  63.389  1.00  0.00    -0.408 A  
HETATM   20  C   UNL     1      -8.580  10.576  63.944  1.00  0.00    -0.146 A  
ENDBRANCH  14  15
BRANCH  14  21
HETATM   21  C   UNL     1      -9.947   9.357  68.343  1.00  0.00    -0.191 A  
HETATM   22  C   UNL     1     -10.582   6.872  69.517  1.00  0.00    -0.236 A  
HETATM   23 CL   UNL     1     -10.838   5.326  70.225  1.00  0.00    -0.228 Cl 
HETATM   24  C   UNL     1     -10.566   7.001  68.135  1.00  0.00    -0.250 A  
HETATM   25  C   UNL     1     -10.052   9.219  69.741  1.00  0.00    -0.218 A  
HETATM   26  C   UNL     1     -10.279   8.240  67.556  1.00  0.00    -0.309 A  
HETATM   27  C   UNL     1     -10.369   7.985  70.323  1.00  0.00    -0.212 A  
ENDBRANCH  14  21
ENDBRANCH  11  14
ENDBRANCH   7   8
ENDBRANCH   6   7
ENDBRANCH   5   6
ENDBRANCH   3   5
TORSDOF 7
ENDMDL
MODEL       58
REMARK 921   NORMALIZED FREE ENERGY PREDICTED BY IDOCK:   -5.44 KCAL/MOL
REMARK 922        TOTAL FREE ENERGY PREDICTED BY IDOCK:   -8.70 KCAL/MOL
REMARK 923 INTER-LIGAND FREE ENERGY PREDICTED BY IDOCK:   -7.65 KCAL/MOL
REMARK 924 INTRA-LIGAND FREE ENERGY PREDICTED BY IDOCK:   -1.05 KCAL/MOL
REMARK 927      BINDING AFFINITY PREDICTED BY RF-SCORE:    0.00 PKD
ROOT
HETATM    1  O   UNL     1      -6.420   7.614  68.277  1.00  0.00    -0.046 OA 
HETATM    2  C   UNL     1      -7.157   6.841  69.120  1.00  0.00    -0.088 C  
HETATM    3  C   UNL     1      -8.483   7.487  69.479  1.00  0.00    -0.132 C  
HETATM    4  O   UNL     1      -6.777   5.750  69.519  1.00  0.00    -0.054 OA 
ENDROOT
BRANCH   3   5
HETATM    5  O   UNL     1      -8.575   8.773  68.843  1.00  0.00    -0.133 OA 
BRANCH   5   6
HETATM    6  C   UNL     1      -9.733   8.848  67.991  1.00  0.00    -0.156 C  
BRANCH   6   7
HETATM    7  C   UNL     1      -9.851  10.282  67.442  1.00  0.00    -0.179 C  
BRANCH   7   8
HETATM    8  N   UNL     1     -11.229  10.781  67.306  1.00  0.00    -0.374 NA 
HETATM    9  C   UNL     1     -11.968  10.896  68.579  1.00  0.00    -0.067 C  
HETATM   10  C   UNL     1     -11.542  12.060  69.519  1.00  0.00    -0.321 C  
HETATM   11  N   UNL     1     -11.357  13.369  68.864  1.00  0.00    -0.270 NA 
HETATM   12  C   UNL     1     -10.715  13.263  67.554  1.00  0.00    -0.250 C  
HETATM   13  C   UNL     1     -11.248  12.114  66.668  1.00  0.00    -0.324 C  
BRANCH  11  14
HETATM   14  C   UNL     1     -10.837  14.423  69.782  1.00  0.00    -0.051 C  
BRANCH  14  15
HETATM   15  C   UNL     1     -11.803  14.858  70.917  1.00  0.00    -0.375 A  
HETATM   16  C   UNL     1     -11.310  15.326  72.144  1.00  0.00    -0.414 A  
HETATM   17  C   UNL     1     -13.203  14.868  70.741  1.00  0.00    -0.377 A  
HETATM   18  C   UNL     1     -12.178  15.797  73.143  1.00  0.00    -0.605 A  
HETATM   19  C   UNL     1     -13.552  15.805  72.929  1.00  0.00    -0.660 A  
HETATM   20  C   UNL     1     -14.068  15.338  71.728  1.00  0.00    -0.654 A  
ENDBRANCH  14  15
BRANCH  14  21
HETATM   21  C   UNL     1     -10.144  15.644  69.131  1.00  0.00    -0.237 A  
HETATM   22  C   UNL     1      -8.863  18.027  68.334  1.00  0.00    -0.292 A  
HETATM   23 CL   UNL     1      -8.108  19.529  67.972  1.00  0.00    -0.340 Cl 
HETATM   24  C   UNL     1     -10.235  17.892  68.173  1.00  0.00    -0.386 A  
HETATM   25  C   UNL     1      -8.744  15.776  69.206  1.00  0.00    -0.261 A  
HETATM   26  C   UNL     1     -10.863  16.700  68.542  1.00  0.00    -0.356 A  
HETATM   27  C   UNL     1      -8.108  16.960  68.809  1.00  0.00    -0.251 A  
ENDBRANCH  14  21
ENDBRANCH  11  14
ENDBRANCH   7   8
ENDBRANCH   6   7
ENDBRANCH   5   6
ENDBRANCH   3   5
TORSDOF 7
ENDMDL
MODEL       59
REMARK 921   NORMALIZED FREE ENERGY PREDICTED BY IDOCK:   -5.44 KCAL/MOL
REMARK 922        TOTAL FREE ENERGY PREDICTED BY IDOCK:   -8.70 KCAL/MOL
REMARK 923 INTER-LIGAND FREE ENERGY PREDICTED BY IDOCK:   -8.39 KCAL/MOL
REMARK 924 INTRA-LIGAND FREE ENERGY PREDICTED BY IDOCK:   -0.30 KCAL/MOL
REMARK 927      BINDING AFFINITY PREDICTED BY RF-SCORE:    0.00 PKD
ROOT
HETATM    1  O   UNL     1      -7.170  19.941  68.420  1.00  0.00    -0.301 OA 
HETATM    2  C   UNL     1      -8.372  19.377  68.123  1.00  0.00    -0.328 C  
HETATM    3  C   UNL     1      -8.346  18.638  66.797  1.00  0.00    -0.281 C  
HETATM    4  O   UNL     1      -9.343  19.460  68.860  1.00  0.00    -0.381 OA 
ENDROOT
BRANCH   3   5
HETATM    5  O   UNL     1      -7.045  18.774  66.201  1.00  0.00    -0.231 OA 
BRANCH   5   6
HETATM    6  C   UNL     1      -6.218  17.632  66.496  1.00  0.00    -0.205 C  
BRANCH   6   7
HETATM    7  C   UNL     1      -7.127  16.415  66.748  1.00  0.00    -0.198 C  
BRANCH   7   8
HETATM    8  N   UNL     1      -6.771  15.610  67.928  1.00  0.00    -0.136 NA 
HETATM    9  C   UNL     1      -7.636  15.833  69.104  1.00  0.00    -0.212 C  
HETATM   10  C   UNL     1      -9.073  15.245  69.023  1.00  0.00    -0.225 C  
HETATM   11  N   UNL     1      -9.166  13.862  68.520  1.00  0.00    -0.185 NA 
HETATM   12  C   UNL     1      -8.242  13.595  67.418  1.00  0.00    -0.179 C  
HETATM   13  C   UNL     1      -6.820  14.166  67.618  1.00  0.00    -0.179 C  
BRANCH  11  14
HETATM   14  C   UNL     1     -10.569  13.384  68.350  1.00  0.00    -0.248 C  
BRANCH  14  15
HETATM   15  C   UNL     1     -11.123  13.442  66.901  1.00  0.00    -0.309 A  
HETATM   16  C   UNL     1     -11.602  12.287  66.265  1.00  0.00    -0.446 A  
HETATM   17  C   UNL     1     -11.234  14.658  66.192  1.00  0.00    -0.341 A  
HETATM   18  C   UNL     1     -12.179  12.348  64.986  1.00  0.00    -0.465 A  
HETATM   19  C   UNL     1     -12.284  13.566  64.324  1.00  0.00    -0.450 A  
HETATM   20  C   UNL     1     -11.809  14.723  64.925  1.00  0.00    -0.377 A  
ENDBRANCH  14  15
BRANCH  14  21
HETATM   21  C   UNL     1     -11.612  13.888  69.375  1.00  0.00    -0.350 A  
HETATM   22  C   UNL     1     -13.183  14.954  71.462  1.00  0.00    -0.368 A  
HETATM   23 CL   UNL     1     -14.026  15.619  72.804  1.00  0.00    -0.623 Cl 
HETATM   24  C   UNL     1     -12.895  13.596  71.436  1.00  0.00    -0.442 A  
HETATM   25  C   UNL     1     -11.988  15.246  69.381  1.00  0.00    -0.342 A  
HETATM   26  C   UNL     1     -12.141  13.066  70.386  1.00  0.00    -0.391 A  
HETATM   27  C   UNL     1     -12.770  15.774  70.417  1.00  0.00    -0.202 A  
ENDBRANCH  14  21
ENDBRANCH  11  14
ENDBRANCH   7   8
ENDBRANCH   6   7
ENDBRANCH   5   6
ENDBRANCH   3   5
TORSDOF 7
ENDMDL
MODEL       60
REMARK 921   NORMALIZED FREE ENERGY PREDICTED BY IDOCK:   -5.43 KCAL/MOL
REMARK 922        TOTAL FREE ENERGY PREDICTED BY IDOCK:   -8.69 KCAL/MOL
REMARK 923 INTER-LIGAND FREE ENERGY PREDICTED BY IDOCK:   -8.01 KCAL/MOL
REMARK 924 INTRA-LIGAND FREE ENERGY PREDICTED BY IDOCK:   -0.68 KCAL/MOL
REMARK 927      BINDING AFFINITY PREDICTED BY RF-SCORE:    0.00 PKD
ROOT
HETATM    1  O   UNL     1      -8.064  21.071  67.401  1.00  0.00    -0.224 OA 
HETATM    2  C   UNL     1      -9.140  20.252  67.247  1.00  0.00    -0.385 C  
HETATM    3  C   UNL     1      -8.949  19.262  66.112  1.00  0.00    -0.255 C  
HETATM    4  O   UNL     1     -10.130  20.319  67.960  1.00  0.00    -0.397 OA 
ENDROOT
BRANCH   3   5
HETATM    5  O   UNL     1      -7.675  19.494  65.486  1.00  0.00    -0.419 OA 
BRANCH   5   6
HETATM    6  C   UNL     1      -6.766  18.407  65.742  1.00  0.00    -0.280 C  
BRANCH   6   7
HETATM    7  C   UNL     1      -7.563  17.217  66.308  1.00  0.00    -0.325 C  
BRANCH   7   8
HETATM    8  N   UNL     1      -7.151  16.779  67.652  1.00  0.00    -0.129 NA 
HETATM    9  C   UNL     1      -7.980  17.311  68.751  1.00  0.00    -0.250 C  
HETATM   10  C   UNL     1      -9.406  16.707  68.892  1.00  0.00    -0.244 C  
HETATM   11  N   UNL     1      -9.485  15.237  68.799  1.00  0.00    -0.202 NA 
HETATM   12  C   UNL     1      -8.593  14.684  67.780  1.00  0.00    -0.173 C  
HETATM   13  C   UNL     1      -7.178  15.305  67.758  1.00  0.00    -0.165 C  
BRANCH  11  14
HETATM   14  C   UNL     1     -10.882  14.714  68.822  1.00  0.00    -0.255 C  
BRANCH  14  15
HETATM   15  C   UNL     1     -11.693  15.034  70.106  1.00  0.00    -0.340 A  
HETATM   16  C   UNL     1     -13.096  15.069  70.083  1.00  0.00    -0.018 A  
HETATM   17  C   UNL     1     -11.067  15.232  71.355  1.00  0.00    -0.285 A  
HETATM   18  C   UNL     1     -13.837  15.277  71.258  1.00  0.00    -0.562 A  
HETATM   19  C   UNL     1     -13.185  15.454  72.473  1.00  0.00    -0.543 A  
HETATM   20  C   UNL     1     -11.798  15.435  72.524  1.00  0.00    -0.564 A  
ENDBRANCH  14  15
BRANCH  14  21
HETATM   21  C   UNL     1     -11.092  13.250  68.370  1.00  0.00    -0.299 A  
HETATM   22  C   UNL     1     -11.056  10.543  67.576  1.00  0.00    -0.290 A  
HETATM   23 CL   UNL     1     -10.900   8.905  67.081  1.00  0.00    -0.193 Cl 
HETATM   24  C   UNL     1     -11.158  11.544  66.619  1.00  0.00    -0.355 A  
HETATM   25  C   UNL     1     -11.073  12.214  69.324  1.00  0.00    -0.229 A  
HETATM   26  C   UNL     1     -11.204  12.883  67.017  1.00  0.00    -0.329 A  
HETATM   27  C   UNL     1     -11.056  10.869  68.928  1.00  0.00    -0.307 A  
ENDBRANCH  14  21
ENDBRANCH  11  14
ENDBRANCH   7   8
ENDBRANCH   6   7
ENDBRANCH   5   6
ENDBRANCH   3   5
TORSDOF 7
ENDMDL
MODEL       61
REMARK 921   NORMALIZED FREE ENERGY PREDICTED BY IDOCK:   -5.42 KCAL/MOL
REMARK 922        TOTAL FREE ENERGY PREDICTED BY IDOCK:   -8.68 KCAL/MOL
REMARK 923 INTER-LIGAND FREE ENERGY PREDICTED BY IDOCK:   -7.76 KCAL/MOL
REMARK 924 INTRA-LIGAND FREE ENERGY PREDICTED BY IDOCK:   -0.92 KCAL/MOL
REMARK 927      BINDING AFFINITY PREDICTED BY RF-SCORE:    0.00 PKD
ROOT
HETATM    1  O   UNL     1     -10.533  17.961  65.410  1.00  0.00    -0.635 OA 
HETATM    2  C   UNL     1     -10.696  19.242  65.840  1.00  0.00    -0.372 C  
HETATM    3  C   UNL     1     -10.522  19.369  67.342  1.00  0.00    -0.466 C  
HETATM    4  O   UNL     1     -10.943  20.167  65.081  1.00  0.00    -0.231 OA 
ENDROOT
BRANCH   3   5
HETATM    5  O   UNL     1     -10.263  18.071  67.904  1.00  0.00    -0.340 OA 
BRANCH   5   6
HETATM    6  C   UNL     1      -9.076  18.087  68.719  1.00  0.00    -0.214 C  
BRANCH   6   7
HETATM    7  C   UNL     1      -8.277  16.797  68.454  1.00  0.00    -0.224 C  
BRANCH   7   8
HETATM    8  N   UNL     1      -8.430  15.752  69.478  1.00  0.00    -0.211 NA 
HETATM    9  C   UNL     1      -9.769  15.129  69.521  1.00  0.00    -0.165 C  
HETATM   10  C   UNL     1     -10.116  14.163  68.353  1.00  0.00    -0.238 C  
HETATM   11  N   UNL     1      -9.064  13.193  67.997  1.00  0.00    -0.200 NA 
HETATM   12  C   UNL     1      -7.720  13.769  68.045  1.00  0.00    -0.152 C  
HETATM   13  C   UNL     1      -7.449  14.666  69.276  1.00  0.00    -0.132 C  
BRANCH  11  14
HETATM   14  C   UNL     1      -9.397  12.370  66.798  1.00  0.00    -0.220 C  
BRANCH  14  15
HETATM   15  C   UNL     1     -10.457  12.979  65.843  1.00  0.00    -0.293 A  
HETATM   16  C   UNL     1     -11.723  12.391  65.701  1.00  0.00    -0.468 A  
HETATM   17  C   UNL     1     -10.224  14.178  65.135  1.00  0.00    -0.411 A  
HETATM   18  C   UNL     1     -12.714  12.984  64.901  1.00  0.00    -0.456 A  
HETATM   19  C   UNL     1     -12.452  14.173  64.229  1.00  0.00    -0.301 A  
HETATM   20  C   UNL     1     -11.204  14.771  64.343  1.00  0.00    -0.184 A  
ENDBRANCH  14  15
BRANCH  14  21
HETATM   21  C   UNL     1      -9.643  10.860  67.029  1.00  0.00    -0.197 A  
HETATM   22  C   UNL     1     -10.441   8.161  67.214  1.00  0.00    -0.309 A  
HETATM   23 CL   UNL     1     -11.046   6.553  67.276  1.00  0.00    -0.463 Cl 
HETATM   24  C   UNL     1     -10.698   9.032  68.264  1.00  0.00    -0.155 A  
HETATM   25  C   UNL     1      -9.322   9.936  66.015  1.00  0.00    -0.240 A  
HETATM   26  C   UNL     1     -10.277  10.362  68.181  1.00  0.00    -0.187 A  
HETATM   27  C   UNL     1      -9.717   8.595  66.109  1.00  0.00    -0.292 A  
ENDBRANCH  14  21
ENDBRANCH  11  14
ENDBRANCH   7   8
ENDBRANCH   6   7
ENDBRANCH   5   6
ENDBRANCH   3   5
TORSDOF 7
ENDMDL
MODEL       62
REMARK 921   NORMALIZED FREE ENERGY PREDICTED BY IDOCK:   -5.41 KCAL/MOL
REMARK 922        TOTAL FREE ENERGY PREDICTED BY IDOCK:   -8.66 KCAL/MOL
REMARK 923 INTER-LIGAND FREE ENERGY PREDICTED BY IDOCK:   -8.41 KCAL/MOL
REMARK 924 INTRA-LIGAND FREE ENERGY PREDICTED BY IDOCK:   -0.25 KCAL/MOL
REMARK 927      BINDING AFFINITY PREDICTED BY RF-SCORE:    0.00 PKD
ROOT
HETATM    1  O   UNL     1     -10.273  19.983  68.838  1.00  0.00    -0.421 OA 
HETATM    2  C   UNL     1     -10.106  19.750  67.508  1.00  0.00    -0.420 C  
HETATM    3  C   UNL     1     -10.379  18.302  67.141  1.00  0.00    -0.384 C  
HETATM    4  O   UNL     1      -9.782  20.624  66.718  1.00  0.00    -0.382 OA 
ENDROOT
BRANCH   3   5
HETATM    5  O   UNL     1     -10.711  17.564  68.329  1.00  0.00    -0.371 OA 
BRANCH   5   6
HETATM    6  C   UNL     1     -10.205  16.218  68.262  1.00  0.00    -0.253 C  
BRANCH   6   7
HETATM    7  C   UNL     1     -10.999  15.443  67.194  1.00  0.00    -0.317 C  
BRANCH   7   8
HETATM    8  N   UNL     1     -10.202  14.499  66.392  1.00  0.00    -0.279 NA 
HETATM    9  C   UNL     1      -9.150  13.791  67.148  1.00  0.00    -0.239 C  
HETATM   10  C   UNL     1      -9.633  12.689  68.133  1.00  0.00    -0.219 C  
HETATM   11  N   UNL     1     -10.651  11.764  67.601  1.00  0.00    -0.199 NA 
HETATM   12  C   UNL     1     -11.647  12.436  66.766  1.00  0.00    -0.379 C  
HETATM   13  C   UNL     1     -11.065  13.470  65.776  1.00  0.00    -0.286 C  
BRANCH  11  14
HETATM   14  C   UNL     1     -11.167  10.801  68.616  1.00  0.00    -0.274 C  
BRANCH  14  15
HETATM   15  C   UNL     1     -11.885  11.437  69.836  1.00  0.00    -0.435 A  
HETATM   16  C   UNL     1     -12.047  12.827  69.934  1.00  0.00    -0.329 A  
HETATM   17  C   UNL     1     -12.464  10.650  70.856  1.00  0.00    -0.495 A  
HETATM   18  C   UNL     1     -12.768  13.401  70.995  1.00  0.00    -0.387 A  
HETATM   19  C   UNL     1     -13.335  12.593  71.974  1.00  0.00    -0.555 A  
HETATM   20  C   UNL     1     -13.182  11.215  71.907  1.00  0.00    -0.488 A  
ENDBRANCH  14  15
BRANCH  14  21
HETATM   21  C   UNL     1     -10.216   9.661  69.051  1.00  0.00    -0.209 A  
HETATM   22  C   UNL     1      -8.793   7.465  70.104  1.00  0.00    -0.147 A  
HETATM   23 CL   UNL     1      -8.021   6.118  70.842  1.00  0.00    -0.113 Cl 
HETATM   24  C   UNL     1      -8.531   8.747  70.569  1.00  0.00    -0.181 A  
HETATM   25  C   UNL     1     -10.403   8.362  68.540  1.00  0.00    -0.232 A  
HETATM   26  C   UNL     1      -9.217   9.836  70.025  1.00  0.00    -0.266 A  
HETATM   27  C   UNL     1      -9.695   7.272  69.063  1.00  0.00    -0.152 A  
ENDBRANCH  14  21
ENDBRANCH  11  14
ENDBRANCH   7   8
ENDBRANCH   6   7
ENDBRANCH   5   6
ENDBRANCH   3   5
TORSDOF 7
ENDMDL
MODEL       63
REMARK 921   NORMALIZED FREE ENERGY PREDICTED BY IDOCK:   -5.38 KCAL/MOL
REMARK 922        TOTAL FREE ENERGY PREDICTED BY IDOCK:   -8.61 KCAL/MOL
REMARK 923 INTER-LIGAND FREE ENERGY PREDICTED BY IDOCK:   -7.97 KCAL/MOL
REMARK 924 INTRA-LIGAND FREE ENERGY PREDICTED BY IDOCK:   -0.65 KCAL/MOL
REMARK 927      BINDING AFFINITY PREDICTED BY RF-SCORE:    0.00 PKD
ROOT
HETATM    1  O   UNL     1      -9.434   9.437  64.516  1.00  0.00    -0.129 OA 
HETATM    2  C   UNL     1      -8.504   8.820  65.295  1.00  0.00    -0.174 C  
HETATM    3  C   UNL     1      -9.050   8.467  66.667  1.00  0.00    -0.165 C  
HETATM    4  O   UNL     1      -7.370   8.580  64.907  1.00  0.00    -0.082 OA 
ENDROOT
BRANCH   3   5
HETATM    5  O   UNL     1     -10.409   8.922  66.771  1.00  0.00    -0.269 OA 
BRANCH   5   6
HETATM    6  C   UNL     1     -10.573   9.814  67.890  1.00  0.00    -0.259 C  
BRANCH   6   7
HETATM    7  C   UNL     1     -11.494  10.974  67.468  1.00  0.00    -0.185 C  
BRANCH   7   8
HETATM    8  N   UNL     1     -11.040  11.727  66.287  1.00  0.00    -0.308 NA 
HETATM    9  C   UNL     1     -12.043  12.660  65.735  1.00  0.00    -0.423 C  
HETATM   10  C   UNL     1     -12.315  13.947  66.564  1.00  0.00    -0.404 C  
HETATM   11  N   UNL     1     -11.117  14.649  67.059  1.00  0.00    -0.324 NA 
HETATM   12  C   UNL     1     -10.072  13.735  67.519  1.00  0.00    -0.241 C  
HETATM   13  C   UNL     1      -9.831  12.517  66.597  1.00  0.00    -0.241 C  
BRANCH  11  14
HETATM   14  C   UNL     1     -11.431  15.808  67.944  1.00  0.00    -0.221 C  
BRANCH  14  15
HETATM   15  C   UNL     1     -10.577  17.082  67.707  1.00  0.00    -0.350 A  
HETATM   16  C   UNL     1      -9.206  16.989  67.423  1.00  0.00    -0.234 A  
HETATM   17  C   UNL     1     -11.149  18.372  67.694  1.00  0.00     0.028 A  
HETATM   18  C   UNL     1      -8.447  18.134  67.127  1.00  0.00    -0.247 A  
HETATM   19  C   UNL     1      -9.048  19.387  67.110  1.00  0.00    -0.359 A  
HETATM   20  C   UNL     1     -10.401  19.509  67.397  1.00  0.00    -0.572 A  
ENDBRANCH  14  15
BRANCH  14  21
HETATM   21  C   UNL     1     -11.599  15.513  69.454  1.00  0.00    -0.366 A  
HETATM   22  C   UNL     1     -12.299  15.130  72.160  1.00  0.00    -0.358 A  
HETATM   23 CL   UNL     1     -12.834  14.971  73.786  1.00  0.00    -0.592 Cl 
HETATM   24  C   UNL     1     -11.542  16.233  71.790  1.00  0.00    -0.436 A  
HETATM   25  C   UNL     1     -12.295  14.360  69.868  1.00  0.00    -0.365 A  
HETATM   26  C   UNL     1     -11.173  16.406  70.453  1.00  0.00    -0.253 A  
HETATM   27  C   UNL     1     -12.640  14.170  71.213  1.00  0.00    -0.438 A  
ENDBRANCH  14  21
ENDBRANCH  11  14
ENDBRANCH   7   8
ENDBRANCH   6   7
ENDBRANCH   5   6
ENDBRANCH   3   5
TORSDOF 7
ENDMDL
MODEL       64
REMARK 921   NORMALIZED FREE ENERGY PREDICTED BY IDOCK:   -5.36 KCAL/MOL
REMARK 922        TOTAL FREE ENERGY PREDICTED BY IDOCK:   -8.59 KCAL/MOL
REMARK 923 INTER-LIGAND FREE ENERGY PREDICTED BY IDOCK:   -8.12 KCAL/MOL
REMARK 924 INTRA-LIGAND FREE ENERGY PREDICTED BY IDOCK:   -0.48 KCAL/MOL
REMARK 927      BINDING AFFINITY PREDICTED BY RF-SCORE:    0.00 PKD
ROOT
HETATM    1  O   UNL     1      -6.643  19.849  69.029  1.00  0.00    -0.304 OA 
HETATM    2  C   UNL     1      -7.863  19.353  68.689  1.00  0.00    -0.364 C  
HETATM    3  C   UNL     1      -7.780  18.363  67.542  1.00  0.00    -0.228 C  
HETATM    4  O   UNL     1      -8.892  19.675  69.264  1.00  0.00    -0.189 OA 
ENDROOT
BRANCH   3   5
HETATM    5  O   UNL     1      -6.414  18.251  67.107  1.00  0.00    -0.171 OA 
BRANCH   5   6
HETATM    6  C   UNL     1      -5.720  17.219  67.833  1.00  0.00    -0.117 C  
BRANCH   6   7
HETATM    7  C   UNL     1      -6.213  15.848  67.337  1.00  0.00    -0.137 C  
BRANCH   7   8
HETATM    8  N   UNL     1      -6.322  14.814  68.379  1.00  0.00    -0.095 NA 
HETATM    9  C   UNL     1      -7.069  15.234  69.582  1.00  0.00    -0.187 C  
HETATM   10  C   UNL     1      -8.610  15.366  69.424  1.00  0.00    -0.249 C  
HETATM   11  N   UNL     1      -9.274  14.254  68.719  1.00  0.00    -0.158 NA 
HETATM   12  C   UNL     1      -8.499  13.759  67.582  1.00  0.00    -0.183 C  
HETATM   13  C   UNL     1      -6.985  13.602  67.855  1.00  0.00    -0.153 C  
BRANCH  11  14
HETATM   14  C   UNL     1     -10.730  14.481  68.489  1.00  0.00    -0.250 C  
BRANCH  14  15
HETATM   15  C   UNL     1     -11.630  14.373  69.748  1.00  0.00    -0.352 A  
HETATM   16  C   UNL     1     -12.351  15.482  70.218  1.00  0.00    -0.431 A  
HETATM   17  C   UNL     1     -11.818  13.151  70.429  1.00  0.00    -0.259 A  
HETATM   18  C   UNL     1     -13.230  15.368  71.307  1.00  0.00    -0.585 A  
HETATM   19  C   UNL     1     -13.400  14.144  71.945  1.00  0.00    -0.476 A  
HETATM   20  C   UNL     1     -12.692  13.033  71.508  1.00  0.00    -0.349 A  
ENDBRANCH  14  15
BRANCH  14  21
HETATM   21  C   UNL     1     -11.369  13.769  67.274  1.00  0.00    -0.343 A  
HETATM   22  C   UNL     1     -12.169  12.548  64.860  1.00  0.00    -0.470 A  
HETATM   23 CL   UNL     1     -12.548  11.859  63.331  1.00  0.00    -0.674 Cl 
HETATM   24  C   UNL     1     -12.586  13.839  65.154  1.00  0.00    -0.471 A  
HETATM   25  C   UNL     1     -11.030  12.432  66.988  1.00  0.00    -0.303 A  
HETATM   26  C   UNL     1     -12.212  14.431  66.363  1.00  0.00    -0.363 A  
HETATM   27  C   UNL     1     -11.429  11.826  65.789  1.00  0.00    -0.258 A  
ENDBRANCH  14  21
ENDBRANCH  11  14
ENDBRANCH   7   8
ENDBRANCH   6   7
ENDBRANCH   5   6
ENDBRANCH   3   5
TORSDOF 7
ENDMDL
MODEL       65
REMARK 921   NORMALIZED FREE ENERGY PREDICTED BY IDOCK:   -5.36 KCAL/MOL
REMARK 922        TOTAL FREE ENERGY PREDICTED BY IDOCK:   -8.59 KCAL/MOL
REMARK 923 INTER-LIGAND FREE ENERGY PREDICTED BY IDOCK:   -8.30 KCAL/MOL
REMARK 924 INTRA-LIGAND FREE ENERGY PREDICTED BY IDOCK:   -0.29 KCAL/MOL
REMARK 927      BINDING AFFINITY PREDICTED BY RF-SCORE:    0.00 PKD
ROOT
HETATM    1  O   UNL     1      -9.960   4.235  67.104  1.00  0.00    -0.193 OA 
HETATM    2  C   UNL     1      -9.762   5.360  66.365  1.00  0.00    -0.166 C  
HETATM    3  C   UNL     1     -10.471   6.565  66.956  1.00  0.00    -0.295 C  
HETATM    4  O   UNL     1      -9.080   5.374  65.351  1.00  0.00    -0.154 OA 
ENDROOT
BRANCH   3   5
HETATM    5  O   UNL     1     -11.192   6.165  68.133  1.00  0.00    -0.314 OA 
BRANCH   5   6
HETATM    6  C   UNL     1     -10.808   6.959  69.271  1.00  0.00    -0.237 C  
BRANCH   6   7
HETATM    7  C   UNL     1     -10.370   8.351  68.779  1.00  0.00    -0.206 C  
BRANCH   7   8
HETATM    8  N   UNL     1     -10.194   9.356  69.840  1.00  0.00    -0.207 NA 
HETATM    9  C   UNL     1      -9.244  10.437  69.507  1.00  0.00    -0.120 C  
HETATM   10  C   UNL     1      -9.731  11.486  68.468  1.00  0.00    -0.189 C  
HETATM   11  N   UNL     1     -11.100  11.995  68.673  1.00  0.00    -0.233 NA 
HETATM   12  C   UNL     1     -12.035  10.954  69.100  1.00  0.00    -0.288 C  
HETATM   13  C   UNL     1     -11.481   9.996  70.181  1.00  0.00    -0.277 C  
BRANCH  11  14
HETATM   14  C   UNL     1     -11.563  12.907  67.588  1.00  0.00    -0.355 C  
BRANCH  14  15
HETATM   15  C   UNL     1     -11.451  12.343  66.147  1.00  0.00    -0.430 A  
HETATM   16  C   UNL     1     -12.347  12.741  65.144  1.00  0.00    -0.555 A  
HETATM   17  C   UNL     1     -10.410  11.467  65.767  1.00  0.00    -0.295 A  
HETATM   18  C   UNL     1     -12.199  12.296  63.820  1.00  0.00    -0.642 A  
HETATM   19  C   UNL     1     -11.153  11.445  63.480  1.00  0.00    -0.373 A  
HETATM   20  C   UNL     1     -10.258  11.026  64.454  1.00  0.00    -0.409 A  
ENDBRANCH  14  15
BRANCH  14  21
HETATM   21  C   UNL     1     -11.092  14.379  67.658  1.00  0.00    -0.311 A  
HETATM   22  C   UNL     1     -10.632  17.162  67.692  1.00  0.00    -0.343 A  
HETATM   23 CL   UNL     1     -10.474  18.873  67.656  1.00  0.00    -0.487 Cl 
HETATM   24  C   UNL     1     -10.283  16.416  66.574  1.00  0.00    -0.310 A  
HETATM   25  C   UNL     1     -11.360  15.145  68.809  1.00  0.00    -0.313 A  
HETATM   26  C   UNL     1     -10.486  15.034  66.571  1.00  0.00    -0.285 A  
HETATM   27  C   UNL     1     -11.130  16.528  68.825  1.00  0.00    -0.309 A  
ENDBRANCH  14  21
ENDBRANCH  11  14
ENDBRANCH   7   8
ENDBRANCH   6   7
ENDBRANCH   5   6
ENDBRANCH   3   5
TORSDOF 7
ENDMDL
MODEL       66
REMARK 921   NORMALIZED FREE ENERGY PREDICTED BY IDOCK:   -5.34 KCAL/MOL
REMARK 922        TOTAL FREE ENERGY PREDICTED BY IDOCK:   -8.56 KCAL/MOL
REMARK 923 INTER-LIGAND FREE ENERGY PREDICTED BY IDOCK:   -7.52 KCAL/MOL
REMARK 924 INTRA-LIGAND FREE ENERGY PREDICTED BY IDOCK:   -1.03 KCAL/MOL
REMARK 927      BINDING AFFINITY PREDICTED BY RF-SCORE:    0.00 PKD
ROOT
HETATM    1  O   UNL     1     -10.619  12.250  63.668  1.00  0.00    -0.408 OA 
HETATM    2  C   UNL     1     -11.931  12.315  64.024  1.00  0.00    -0.462 C  
HETATM    3  C   UNL     1     -12.113  12.754  65.465  1.00  0.00    -0.465 C  
HETATM    4  O   UNL     1     -12.840  12.056  63.249  1.00  0.00    -0.732 OA 
ENDROOT
BRANCH   3   5
HETATM    5  O   UNL     1     -10.824  12.948  66.071  1.00  0.00    -0.274 OA 
BRANCH   5   6
HETATM    6  C   UNL     1     -10.734  12.257  67.332  1.00  0.00    -0.230 C  
BRANCH   6   7
HETATM    7  C   UNL     1      -9.345  11.601  67.439  1.00  0.00    -0.168 C  
BRANCH   7   8
HETATM    8  N   UNL     1      -9.078  10.550  66.444  1.00  0.00    -0.159 NA 
HETATM    9  C   UNL     1      -7.877   9.737  66.721  1.00  0.00    -0.102 C  
HETATM   10  C   UNL     1      -7.987   8.724  67.896  1.00  0.00    -0.107 C  
HETATM   11  N   UNL     1      -9.221   7.918  67.926  1.00  0.00    -0.134 NA 
HETATM   12  C   UNL     1     -10.410   8.686  67.557  1.00  0.00    -0.269 C  
HETATM   13  C   UNL     1     -10.221   9.619  66.339  1.00  0.00    -0.217 C  
BRANCH  11  14
HETATM   14  C   UNL     1      -9.333   7.048  69.133  1.00  0.00    -0.140 C  
BRANCH  14  15
HETATM   15  C   UNL     1      -9.302   5.521  68.861  1.00  0.00    -0.154 A  
HETATM   16  C   UNL     1      -9.194   4.602  69.916  1.00  0.00    -0.188 A  
HETATM   17  C   UNL     1      -9.451   4.991  67.561  1.00  0.00    -0.152 A  
HETATM   18  C   UNL     1      -9.247   3.218  69.682  1.00  0.00    -0.221 A  
HETATM   19  C   UNL     1      -9.409   2.733  68.389  1.00  0.00    -0.252 A  
HETATM   20  C   UNL     1      -9.508   3.619  67.325  1.00  0.00    -0.235 A  
ENDBRANCH  14  15
BRANCH  14  21
HETATM   21  C   UNL     1     -10.424   7.417  70.166  1.00  0.00    -0.228 A  
HETATM   22  C   UNL     1     -12.599   8.296  71.733  1.00  0.00    -0.333 A  
HETATM   23 CL   UNL     1     -13.958   8.915  72.586  1.00  0.00    -0.452 Cl 
HETATM   24  C   UNL     1     -11.384   8.964  71.799  1.00  0.00    -0.431 A  
HETATM   25  C   UNL     1     -11.642   6.709  70.180  1.00  0.00    -0.446 A  
HETATM   26  C   UNL     1     -10.300   8.509  71.044  1.00  0.00    -0.261 A  
HETATM   27  C   UNL     1     -12.721   7.146  70.960  1.00  0.00    -0.303 A  
ENDBRANCH  14  21
ENDBRANCH  11  14
ENDBRANCH   7   8
ENDBRANCH   6   7
ENDBRANCH   5   6
ENDBRANCH   3   5
TORSDOF 7
ENDMDL
MODEL       67
REMARK 921   NORMALIZED FREE ENERGY PREDICTED BY IDOCK:   -5.31 KCAL/MOL
REMARK 922        TOTAL FREE ENERGY PREDICTED BY IDOCK:   -8.52 KCAL/MOL
REMARK 923 INTER-LIGAND FREE ENERGY PREDICTED BY IDOCK:   -8.22 KCAL/MOL
REMARK 924 INTRA-LIGAND FREE ENERGY PREDICTED BY IDOCK:   -0.30 KCAL/MOL
REMARK 927      BINDING AFFINITY PREDICTED BY RF-SCORE:    0.00 PKD
ROOT
HETATM    1  O   UNL     1      -9.445   5.417  67.924  1.00  0.00    -0.114 OA 
HETATM    2  C   UNL     1     -10.357   5.729  66.963  1.00  0.00    -0.250 C  
HETATM    3  C   UNL     1     -10.995   7.086  67.198  1.00  0.00    -0.323 C  
HETATM    4  O   UNL     1     -10.607   4.989  66.024  1.00  0.00    -0.285 OA 
ENDROOT
BRANCH   3   5
HETATM    5  O   UNL     1     -10.472   7.656  68.409  1.00  0.00    -0.196 OA 
BRANCH   5   6
HETATM    6  C   UNL     1      -9.797   8.901  68.148  1.00  0.00    -0.167 C  
BRANCH   6   7
HETATM    7  C   UNL     1     -10.849   9.974  67.815  1.00  0.00    -0.282 C  
BRANCH   7   8
HETATM    8  N   UNL     1     -10.493  10.865  66.698  1.00  0.00    -0.246 NA 
HETATM    9  C   UNL     1     -11.517  11.879  66.374  1.00  0.00    -0.304 C  
HETATM   10  C   UNL     1     -11.665  13.053  67.383  1.00  0.00    -0.374 C  
HETATM   11  N   UNL     1     -10.401  13.665  67.836  1.00  0.00    -0.243 NA 
HETATM   12  C   UNL     1      -9.344  12.680  68.066  1.00  0.00    -0.209 C  
HETATM   13  C   UNL     1      -9.235  11.587  66.977  1.00  0.00    -0.176 C  
BRANCH  11  14
HETATM   14  C   UNL     1     -10.589  14.705  68.888  1.00  0.00    -0.253 C  
BRANCH  14  15
HETATM   15  C   UNL     1     -11.752  14.447  69.883  1.00  0.00    -0.363 A  
HETATM   16  C   UNL     1     -11.937  13.184  70.465  1.00  0.00    -0.303 A  
HETATM   17  C   UNL     1     -12.622  15.479  70.297  1.00  0.00    -0.362 A  
HETATM   18  C   UNL     1     -12.938  12.968  71.427  1.00  0.00    -0.373 A  
HETATM   19  C   UNL     1     -13.768  14.012  71.820  1.00  0.00    -0.479 A  
HETATM   20  C   UNL     1     -13.613  15.269  71.254  1.00  0.00    -0.584 A  
ENDBRANCH  14  15
BRANCH  14  21
HETATM   21  C   UNL     1     -10.552  16.182  68.431  1.00  0.00    -0.286 A  
HETATM   22  C   UNL     1     -10.084  18.799  67.486  1.00  0.00    -0.360 A  
HETATM   23 CL   UNL     1      -9.668  20.363  66.906  1.00  0.00    -0.579 Cl 
HETATM   24  C   UNL     1     -10.033  18.535  68.848  1.00  0.00    -0.383 A  
HETATM   25  C   UNL     1     -10.680  16.494  67.063  1.00  0.00    -0.191 A  
HETATM   26  C   UNL     1     -10.292  17.244  69.316  1.00  0.00    -0.237 A  
HETATM   27  C   UNL     1     -10.449  17.795  66.595  1.00  0.00    -0.300 A  
ENDBRANCH  14  21
ENDBRANCH  11  14
ENDBRANCH   7   8
ENDBRANCH   6   7
ENDBRANCH   5   6
ENDBRANCH   3   5
TORSDOF 7
ENDMDL
MODEL       68
REMARK 921   NORMALIZED FREE ENERGY PREDICTED BY IDOCK:   -5.31 KCAL/MOL
REMARK 922        TOTAL FREE ENERGY PREDICTED BY IDOCK:   -8.52 KCAL/MOL
REMARK 923 INTER-LIGAND FREE ENERGY PREDICTED BY IDOCK:   -8.21 KCAL/MOL
REMARK 924 INTRA-LIGAND FREE ENERGY PREDICTED BY IDOCK:   -0.31 KCAL/MOL
REMARK 927      BINDING AFFINITY PREDICTED BY RF-SCORE:    0.00 PKD
ROOT
HETATM    1  O   UNL     1     -10.146   3.144  72.055  1.00  0.00    -0.166 OA 
HETATM    2  C   UNL     1     -10.804   3.440  73.208  1.00  0.00    -0.186 C  
HETATM    3  C   UNL     1     -11.269   4.885  73.248  1.00  0.00    -0.345 C  
HETATM    4  O   UNL     1     -10.995   2.618  74.091  1.00  0.00    -0.174 OA 
ENDROOT
BRANCH   3   5
HETATM    5  O   UNL     1     -10.846   5.555  72.048  1.00  0.00    -0.230 OA 
BRANCH   5   6
HETATM    6  C   UNL     1     -11.880   6.422  71.546  1.00  0.00    -0.298 C  
BRANCH   6   7
HETATM    7  C   UNL     1     -11.399   7.056  70.228  1.00  0.00    -0.295 C  
BRANCH   7   8
HETATM    8  N   UNL     1     -10.139   7.812  70.328  1.00  0.00    -0.194 NA 
HETATM    9  C   UNL     1      -9.709   8.452  69.069  1.00  0.00    -0.171 C  
HETATM   10  C   UNL     1     -10.525   9.696  68.616  1.00  0.00    -0.210 C  
HETATM   11  N   UNL     1     -10.815  10.684  69.671  1.00  0.00    -0.261 NA 
HETATM   12  C   UNL     1     -11.147  10.065  70.953  1.00  0.00    -0.314 C  
HETATM   13  C   UNL     1     -10.241   8.876  71.348  1.00  0.00    -0.305 C  
BRANCH  11  14
HETATM   14  C   UNL     1     -11.698  11.797  69.215  1.00  0.00    -0.335 C  
BRANCH  14  15
HETATM   15  C   UNL     1     -11.272  12.489  67.893  1.00  0.00    -0.312 A  
HETATM   16  C   UNL     1      -9.970  12.983  67.723  1.00  0.00    -0.227 A  
HETATM   17  C   UNL     1     -12.146  12.589  66.788  1.00  0.00    -0.180 A  
HETATM   18  C   UNL     1      -9.557  13.536  66.500  1.00  0.00    -0.284 A  
HETATM   19  C   UNL     1     -10.441  13.605  65.429  1.00  0.00    -0.333 A  
HETATM   20  C   UNL     1     -11.739  13.134  65.572  1.00  0.00    -0.393 A  
ENDBRANCH  14  15
BRANCH  14  21
HETATM   21  C   UNL     1     -12.132  12.831  70.281  1.00  0.00    -0.373 A  
HETATM   22  C   UNL     1     -13.293  14.727  72.017  1.00  0.00    -0.363 A  
HETATM   23 CL   UNL     1     -14.100  15.896  72.985  1.00  0.00    -0.433 Cl 
HETATM   24  C   UNL     1     -12.422  15.144  71.019  1.00  0.00    -0.419 A  
HETATM   25  C   UNL     1     -12.953  12.428  71.353  1.00  0.00    -0.348 A  
HETATM   26  C   UNL     1     -11.827  14.200  70.179  1.00  0.00    -0.382 A  
HETATM   27  C   UNL     1     -13.528  13.371  72.215  1.00  0.00    -0.683 A  
ENDBRANCH  14  21
ENDBRANCH  11  14
ENDBRANCH   7   8
ENDBRANCH   6   7
ENDBRANCH   5   6
ENDBRANCH   3   5
TORSDOF 7
ENDMDL
MODEL       69
REMARK 921   NORMALIZED FREE ENERGY PREDICTED BY IDOCK:   -5.29 KCAL/MOL
REMARK 922        TOTAL FREE ENERGY PREDICTED BY IDOCK:   -8.49 KCAL/MOL
REMARK 923 INTER-LIGAND FREE ENERGY PREDICTED BY IDOCK:   -8.13 KCAL/MOL
REMARK 924 INTRA-LIGAND FREE ENERGY PREDICTED BY IDOCK:   -0.36 KCAL/MOL
REMARK 927      BINDING AFFINITY PREDICTED BY RF-SCORE:    0.00 PKD
ROOT
HETATM    1  O   UNL     1     -11.836   8.789  71.398  1.00  0.00    -0.280 OA 
HETATM    2  C   UNL     1     -11.703   7.523  70.918  1.00  0.00    -0.283 C  
HETATM    3  C   UNL     1     -10.837   7.471  69.672  1.00  0.00    -0.202 C  
HETATM    4  O   UNL     1     -12.221   6.554  71.453  1.00  0.00    -0.338 OA 
ENDROOT
BRANCH   3   5
HETATM    5  O   UNL     1     -10.422   8.802  69.324  1.00  0.00    -0.219 OA 
BRANCH   5   6
HETATM    6  C   UNL     1     -10.490   9.011  67.900  1.00  0.00    -0.234 C  
BRANCH   6   7
HETATM    7  C   UNL     1     -11.283  10.303  67.627  1.00  0.00    -0.158 C  
BRANCH   7   8
HETATM    8  N   UNL     1     -10.798  11.099  66.489  1.00  0.00    -0.269 NA 
HETATM    9  C   UNL     1     -11.609  12.296  66.189  1.00  0.00    -0.390 C  
HETATM   10  C   UNL     1     -11.482  13.481  67.188  1.00  0.00    -0.338 C  
HETATM   11  N   UNL     1     -10.106  13.829  67.590  1.00  0.00    -0.239 NA 
HETATM   12  C   UNL     1      -9.260  12.653  67.795  1.00  0.00    -0.195 C  
HETATM   13  C   UNL     1      -9.411  11.556  66.716  1.00  0.00    -0.189 C  
BRANCH  11  14
HETATM   14  C   UNL     1     -10.044  14.890  68.637  1.00  0.00    -0.237 C  
BRANCH  14  15
HETATM   15  C   UNL     1     -11.172  14.846  69.701  1.00  0.00    -0.300 A  
HETATM   16  C   UNL     1     -11.776  13.633  70.064  1.00  0.00    -0.319 A  
HETATM   17  C   UNL     1     -11.587  16.002  70.397  1.00  0.00    -0.364 A  
HETATM   18  C   UNL     1     -12.739  13.577  71.085  1.00  0.00    -0.425 A  
HETATM   19  C   UNL     1     -13.113  14.735  71.757  1.00  0.00    -0.421 A  
HETATM   20  C   UNL     1     -12.540  15.951  71.413  1.00  0.00    -0.437 A  
ENDBRANCH  14  15
BRANCH  14  21
HETATM   21  C   UNL     1      -9.775  16.336  68.156  1.00  0.00    -0.227 A  
HETATM   22  C   UNL     1      -9.544  19.090  67.593  1.00  0.00    -0.309 A  
HETATM   23 CL   UNL     1      -9.508  20.789  67.334  1.00  0.00    -0.526 Cl 
HETATM   24  C   UNL     1     -10.395  18.298  66.835  1.00  0.00    -0.404 A  
HETATM   25  C   UNL     1      -8.859  17.146  68.855  1.00  0.00    -0.186 A  
HETATM   26  C   UNL     1     -10.486  16.928  67.098  1.00  0.00    -0.296 A  
HETATM   27  C   UNL     1      -8.744  18.514  68.574  1.00  0.00    -0.352 A  
ENDBRANCH  14  21
ENDBRANCH  11  14
ENDBRANCH   7   8
ENDBRANCH   6   7
ENDBRANCH   5   6
ENDBRANCH   3   5
TORSDOF 7
ENDMDL
MODEL       70
REMARK 921   NORMALIZED FREE ENERGY PREDICTED BY IDOCK:   -5.29 KCAL/MOL
REMARK 922        TOTAL FREE ENERGY PREDICTED BY IDOCK:   -8.48 KCAL/MOL
REMARK 923 INTER-LIGAND FREE ENERGY PREDICTED BY IDOCK:   -7.46 KCAL/MOL
REMARK 924 INTRA-LIGAND FREE ENERGY PREDICTED BY IDOCK:   -1.02 KCAL/MOL
REMARK 927      BINDING AFFINITY PREDICTED BY RF-SCORE:    0.00 PKD
ROOT
HETATM    1  O   UNL     1      -5.622  16.855  70.304  1.00  0.00    -0.211 OA 
HETATM    2  C   UNL     1      -6.073  15.694  69.758  1.00  0.00    -0.160 C  
HETATM    3  C   UNL     1      -6.124  15.754  68.242  1.00  0.00    -0.113 C  
HETATM    4  O   UNL     1      -6.386  14.724  70.432  1.00  0.00    -0.175 OA 
ENDROOT
BRANCH   3   5
HETATM    5  O   UNL     1      -5.705  17.057  67.803  1.00  0.00    -0.117 OA 
BRANCH   5   6
HETATM    6  C   UNL     1      -6.452  17.479  66.646  1.00  0.00    -0.217 C  
BRANCH   6   7
HETATM    7  C   UNL     1      -7.826  16.786  66.664  1.00  0.00    -0.272 C  
BRANCH   7   8
HETATM    8  N   UNL     1      -8.956  17.658  67.024  1.00  0.00    -0.244 NA 
HETATM    9  C   UNL     1     -10.199  17.390  66.274  1.00  0.00    -0.341 C  
HETATM   10  C   UNL     1     -10.965  16.091  66.652  1.00  0.00    -0.092 C  
HETATM   11  N   UNL     1     -11.125  15.846  68.097  1.00  0.00    -0.331 NA 
HETATM   12  C   UNL     1      -9.934  16.201  68.869  1.00  0.00    -0.233 C  
HETATM   13  C   UNL     1      -9.278  17.540  68.461  1.00  0.00    -0.278 C  
BRANCH  11  14
HETATM   14  C   UNL     1     -11.760  14.533  68.411  1.00  0.00    -0.333 C  
BRANCH  14  15
HETATM   15  C   UNL     1     -12.321  14.389  69.850  1.00  0.00    -0.365 A  
HETATM   16  C   UNL     1     -12.379  13.136  70.480  1.00  0.00    -0.380 A  
HETATM   17  C   UNL     1     -12.728  15.508  70.608  1.00  0.00    -0.487 A  
HETATM   18  C   UNL     1     -12.810  13.012  71.811  1.00  0.00    -0.351 A  
HETATM   19  C   UNL     1     -13.190  14.139  72.532  1.00  0.00    -0.596 A  
HETATM   20  C   UNL     1     -13.153  15.390  71.930  1.00  0.00    -0.515 A  
ENDBRANCH  14  15
BRANCH  14  21
HETATM   21  C   UNL     1     -10.998  13.261  67.970  1.00  0.00    -0.266 A  
HETATM   22  C   UNL     1      -9.823  10.744  67.474  1.00  0.00    -0.172 A  
HETATM   23 CL   UNL     1      -9.160   9.169  67.288  1.00  0.00    -0.139 Cl 
HETATM   24  C   UNL     1      -9.132  11.698  68.209  1.00  0.00    -0.187 A  
HETATM   25  C   UNL     1     -11.641  12.306  67.159  1.00  0.00    -0.423 A  
HETATM   26  C   UNL     1      -9.704  12.954  68.429  1.00  0.00    -0.186 A  
HETATM   27  C   UNL     1     -11.056  11.057  66.912  1.00  0.00    -0.280 A  
ENDBRANCH  14  21
ENDBRANCH  11  14
ENDBRANCH   7   8
ENDBRANCH   6   7
ENDBRANCH   5   6
ENDBRANCH   3   5
TORSDOF 7
ENDMDL
MODEL       71
REMARK 921   NORMALIZED FREE ENERGY PREDICTED BY IDOCK:   -5.29 KCAL/MOL
REMARK 922        TOTAL FREE ENERGY PREDICTED BY IDOCK:   -8.48 KCAL/MOL
REMARK 923 INTER-LIGAND FREE ENERGY PREDICTED BY IDOCK:   -7.41 KCAL/MOL
REMARK 924 INTRA-LIGAND FREE ENERGY PREDICTED BY IDOCK:   -1.07 KCAL/MOL
REMARK 927      BINDING AFFINITY PREDICTED BY RF-SCORE:    0.00 PKD
ROOT
HETATM    1  O   UNL     1     -11.760  16.371  63.661  1.00  0.00    -0.933 OA 
HETATM    2  C   UNL     1     -10.929  16.143  64.715  1.00  0.00    -0.313 C  
HETATM    3  C   UNL     1     -10.802  14.664  65.034  1.00  0.00    -0.417 C  
HETATM    4  O   UNL     1     -10.355  17.041  65.312  1.00  0.00    -0.626 OA 
ENDROOT
BRANCH   3   5
HETATM    5  O   UNL     1     -11.636  13.910  64.139  1.00  0.00    -0.367 OA 
BRANCH   5   6
HETATM    6  C   UNL     1     -11.897  12.592  64.659  1.00  0.00    -0.380 C  
BRANCH   6   7
HETATM    7  C   UNL     1     -10.897  12.301  65.793  1.00  0.00    -0.278 C  
BRANCH   7   8
HETATM    8  N   UNL     1      -9.811  11.373  65.438  1.00  0.00    -0.227 NA 
HETATM    9  C   UNL     1      -8.540  11.618  66.150  1.00  0.00    -0.053 C  
HETATM   10  C   UNL     1      -8.507  11.225  67.654  1.00  0.00    -0.124 C  
HETATM   11  N   UNL     1      -9.080   9.906  67.979  1.00  0.00    -0.121 NA 
HETATM   12  C   UNL     1     -10.286   9.605  67.209  1.00  0.00    -0.249 C  
HETATM   13  C   UNL     1     -10.201   9.974  65.710  1.00  0.00    -0.200 C  
BRANCH  11  14
HETATM   14  C   UNL     1      -9.132   9.625  69.443  1.00  0.00    -0.188 C  
BRANCH  14  15
HETATM   15  C   UNL     1      -8.134   8.553  69.955  1.00  0.00    -0.118 A  
HETATM   16  C   UNL     1      -7.694   7.518  69.116  1.00  0.00    -0.113 A  
HETATM   17  C   UNL     1      -7.575   8.611  71.250  1.00  0.00    -0.129 A  
HETATM   18  C   UNL     1      -6.728   6.594  69.548  1.00  0.00    -0.050 A  
HETATM   19  C   UNL     1      -6.190   6.691  70.826  1.00  0.00    -0.032 A  
HETATM   20  C   UNL     1      -6.614   7.699  71.681  1.00  0.00    -0.042 A  
ENDBRANCH  14  15
BRANCH  14  21
HETATM   21  C   UNL     1     -10.533   9.441  70.074  1.00  0.00    -0.266 A  
HETATM   22  C   UNL     1     -12.897   9.190  71.592  1.00  0.00    -0.363 A  
HETATM   23 CL   UNL     1     -14.261   9.038  72.628  1.00  0.00    -0.401 Cl 
HETATM   24  C   UNL     1     -12.202   8.054  71.201  1.00  0.00    -0.262 A  
HETATM   25  C   UNL     1     -11.302  10.571  70.413  1.00  0.00    -0.411 A  
HETATM   26  C   UNL     1     -11.047   8.180  70.425  1.00  0.00    -0.239 A  
HETATM   27  C   UNL     1     -12.477  10.446  71.166  1.00  0.00    -0.509 A  
ENDBRANCH  14  21
ENDBRANCH  11  14
ENDBRANCH   7   8
ENDBRANCH   6   7
ENDBRANCH   5   6
ENDBRANCH   3   5
TORSDOF 7
ENDMDL
MODEL       72
REMARK 921   NORMALIZED FREE ENERGY PREDICTED BY IDOCK:   -5.27 KCAL/MOL
REMARK 922        TOTAL FREE ENERGY PREDICTED BY IDOCK:   -8.45 KCAL/MOL
REMARK 923 INTER-LIGAND FREE ENERGY PREDICTED BY IDOCK:   -7.53 KCAL/MOL
REMARK 924 INTRA-LIGAND FREE ENERGY PREDICTED BY IDOCK:   -0.92 KCAL/MOL
REMARK 927      BINDING AFFINITY PREDICTED BY RF-SCORE:    0.00 PKD
ROOT
HETATM    1  O   UNL     1     -12.818  12.506  63.664  1.00  0.00    -0.731 OA 
HETATM    2  C   UNL     1     -11.537  12.105  63.888  1.00  0.00    -0.448 C  
HETATM    3  C   UNL     1     -11.191  12.092  65.366  1.00  0.00    -0.333 C  
HETATM    4  O   UNL     1     -10.777  11.786  62.987  1.00  0.00    -0.269 OA 
ENDROOT
BRANCH   3   5
HETATM    5  O   UNL     1     -12.324  12.548  66.125  1.00  0.00    -0.596 OA 
BRANCH   5   6
HETATM    6  C   UNL     1     -11.938  12.910  67.465  1.00  0.00    -0.296 C  
BRANCH   6   7
HETATM    7  C   UNL     1     -12.015  11.658  68.357  1.00  0.00    -0.196 C  
BRANCH   7   8
HETATM    8  N   UNL     1     -11.250  11.743  69.612  1.00  0.00    -0.200 NA 
HETATM    9  C   UNL     1     -11.982  11.276  70.807  1.00  0.00    -0.279 C  
HETATM   10  C   UNL     1     -12.187   9.739  70.931  1.00  0.00    -0.302 C  
HETATM   11  N   UNL     1     -10.996   8.915  70.650  1.00  0.00    -0.232 NA 
HETATM   12  C   UNL     1     -10.205   9.422  69.530  1.00  0.00    -0.209 C  
HETATM   13  C   UNL     1     -10.004  10.956  69.527  1.00  0.00     0.025 C  
BRANCH  11  14
HETATM   14  C   UNL     1     -11.272   7.449  70.667  1.00  0.00    -0.270 C  
BRANCH  14  15
HETATM   15  C   UNL     1     -11.045   6.742  72.029  1.00  0.00    -0.283 A  
HETATM   16  C   UNL     1     -11.466   5.419  72.235  1.00  0.00    -0.157 A  
HETATM   17  C   UNL     1     -10.349   7.365  73.087  1.00  0.00    -0.384 A  
HETATM   18  C   UNL     1     -11.190   4.748  73.437  1.00  0.00    -0.425 A  
HETATM   19  C   UNL     1     -10.490   5.390  74.452  1.00  0.00    -0.255 A  
HETATM   20  C   UNL     1     -10.070   6.702  74.280  1.00  0.00    -0.378 A  
ENDBRANCH  14  15
BRANCH  14  21
HETATM   21  C   UNL     1     -10.705   6.614  69.494  1.00  0.00    -0.305 A  
HETATM   22  C   UNL     1      -9.465   5.444  67.247  1.00  0.00    -0.123 A  
HETATM   23 CL   UNL     1      -8.672   4.855  65.840  1.00  0.00    -0.124 Cl 
HETATM   24  C   UNL     1     -10.780   5.880  67.163  1.00  0.00    -0.387 A  
HETATM   25  C   UNL     1      -9.401   6.089  69.576  1.00  0.00    -0.151 A  
HETATM   26  C   UNL     1     -11.401   6.434  68.285  1.00  0.00    -0.116 A  
HETATM   27  C   UNL     1      -8.786   5.506  68.460  1.00  0.00    -0.104 A  
ENDBRANCH  14  21
ENDBRANCH  11  14
ENDBRANCH   7   8
ENDBRANCH   6   7
ENDBRANCH   5   6
ENDBRANCH   3   5
TORSDOF 7
ENDMDL
MODEL       73
REMARK 921   NORMALIZED FREE ENERGY PREDICTED BY IDOCK:   -5.26 KCAL/MOL
REMARK 922        TOTAL FREE ENERGY PREDICTED BY IDOCK:   -8.45 KCAL/MOL
REMARK 923 INTER-LIGAND FREE ENERGY PREDICTED BY IDOCK:   -7.57 KCAL/MOL
REMARK 924 INTRA-LIGAND FREE ENERGY PREDICTED BY IDOCK:   -0.87 KCAL/MOL
REMARK 927      BINDING AFFINITY PREDICTED BY RF-SCORE:    0.00 PKD
ROOT
HETATM    1  O   UNL     1     -13.248  14.078  65.327  1.00  0.00    -0.782 OA 
HETATM    2  C   UNL     1     -12.283  14.166  64.372  1.00  0.00    -0.439 C  
HETATM    3  C   UNL     1     -10.974  14.697  64.928  1.00  0.00    -0.407 C  
HETATM    4  O   UNL     1     -12.469  13.837  63.210  1.00  0.00    -0.819 OA 
ENDROOT
BRANCH   3   5
HETATM    5  O   UNL     1     -11.135  14.997  66.325  1.00  0.00    -0.340 OA 
BRANCH   5   6
HETATM    6  C   UNL     1     -10.116  14.355  67.114  1.00  0.00    -0.253 C  
BRANCH   6   7
HETATM    7  C   UNL     1      -9.971  12.896  66.644  1.00  0.00    -0.251 C  
BRANCH   7   8
HETATM    8  N   UNL     1      -8.671  12.274  66.945  1.00  0.00    -0.201 NA 
HETATM    9  C   UNL     1      -8.481  11.910  68.364  1.00  0.00    -0.155 C  
HETATM   10  C   UNL     1      -9.289  10.684  68.874  1.00  0.00    -0.184 C  
HETATM   11  N   UNL     1      -9.275   9.502  67.992  1.00  0.00    -0.130 NA 
HETATM   12  C   UNL     1      -9.362   9.851  66.574  1.00  0.00    -0.164 C  
HETATM   13  C   UNL     1      -8.476  11.045  66.149  1.00  0.00    -0.168 C  
BRANCH  11  14
HETATM   14  C   UNL     1     -10.157   8.396  68.466  1.00  0.00    -0.197 C  
BRANCH  14  15
HETATM   15  C   UNL     1     -10.331   8.293  70.004  1.00  0.00    -0.212 A  
HETATM   16  C   UNL     1     -11.570   8.551  70.609  1.00  0.00    -0.214 A  
HETATM   17  C   UNL     1      -9.281   7.871  70.848  1.00  0.00    -0.160 A  
HETATM   18  C   UNL     1     -11.754   8.380  71.991  1.00  0.00    -0.417 A  
HETATM   19  C   UNL     1     -10.700   7.949  72.788  1.00  0.00    -0.435 A  
HETATM   20  C   UNL     1      -9.460   7.696  72.219  1.00  0.00    -0.209 A  
ENDBRANCH  14  15
BRANCH  14  21
HETATM   21  C   UNL     1      -9.944   7.004  67.826  1.00  0.00    -0.186 A  
HETATM   22  C   UNL     1      -9.438   4.677  66.312  1.00  0.00    -0.167 A  
HETATM   23 CL   UNL     1      -9.123   3.339  65.281  1.00  0.00    -0.143 Cl 
HETATM   24  C   UNL     1     -10.741   5.133  66.468  1.00  0.00    -0.262 A  
HETATM   25  C   UNL     1      -8.643   6.474  67.721  1.00  0.00    -0.117 A  
HETATM   26  C   UNL     1     -10.991   6.269  67.242  1.00  0.00    -0.455 A  
HETATM   27  C   UNL     1      -8.393   5.318  66.970  1.00  0.00    -0.107 A  
ENDBRANCH  14  21
ENDBRANCH  11  14
ENDBRANCH   7   8
ENDBRANCH   6   7
ENDBRANCH   5   6
ENDBRANCH   3   5
TORSDOF 7
ENDMDL
MODEL       74
REMARK 921   NORMALIZED FREE ENERGY PREDICTED BY IDOCK:   -5.25 KCAL/MOL
REMARK 922        TOTAL FREE ENERGY PREDICTED BY IDOCK:   -8.44 KCAL/MOL
REMARK 923 INTER-LIGAND FREE ENERGY PREDICTED BY IDOCK:   -7.76 KCAL/MOL
REMARK 924 INTRA-LIGAND FREE ENERGY PREDICTED BY IDOCK:   -0.68 KCAL/MOL
REMARK 927      BINDING AFFINITY PREDICTED BY RF-SCORE:    0.00 PKD
ROOT
HETATM    1  O   UNL     1      -7.940   7.541  64.478  1.00  0.00    -0.132 OA 
HETATM    2  C   UNL     1      -8.408   8.818  64.483  1.00  0.00    -0.162 C  
HETATM    3  C   UNL     1      -9.357   9.076  65.638  1.00  0.00    -0.222 C  
HETATM    4  O   UNL     1      -8.078   9.647  63.648  1.00  0.00    -0.132 OA 
ENDROOT
BRANCH   3   5
HETATM    5  O   UNL     1      -9.525   7.867  66.397  1.00  0.00    -0.200 OA 
BRANCH   5   6
HETATM    6  C   UNL     1      -9.326   8.105  67.803  1.00  0.00    -0.134 C  
BRANCH   6   7
HETATM    7  C   UNL     1     -10.506   8.939  68.336  1.00  0.00    -0.187 C  
BRANCH   7   8
HETATM    8  N   UNL     1     -10.161   9.889  69.405  1.00  0.00    -0.198 NA 
HETATM    9  C   UNL     1      -9.180  10.922  69.013  1.00  0.00    -0.115 C  
HETATM   10  C   UNL     1      -9.700  12.038  68.064  1.00  0.00    -0.198 C  
HETATM   11  N   UNL     1     -11.006  12.621  68.424  1.00  0.00    -0.244 NA 
HETATM   12  C   UNL     1     -11.959  11.623  68.910  1.00  0.00    -0.292 C  
HETATM   13  C   UNL     1     -11.363  10.592  69.897  1.00  0.00    -0.313 C  
BRANCH  11  14
HETATM   14  C   UNL     1     -11.515  13.602  67.422  1.00  0.00    -0.336 C  
BRANCH  14  15
HETATM   15  C   UNL     1     -11.566  13.094  65.956  1.00  0.00    -0.393 A  
HETATM   16  C   UNL     1     -10.405  12.653  65.304  1.00  0.00    -0.309 A  
HETATM   17  C   UNL     1     -12.781  12.987  65.245  1.00  0.00    -0.432 A  
HETATM   18  C   UNL     1     -10.459  12.117  64.007  1.00  0.00    -0.418 A  
HETATM   19  C   UNL     1     -11.676  12.015  63.343  1.00  0.00    -0.519 A  
HETATM   20  C   UNL     1     -12.840  12.453  63.959  1.00  0.00    -0.371 A  
ENDBRANCH  14  15
BRANCH  14  21
HETATM   21  C   UNL     1     -10.959  15.043  67.503  1.00  0.00    -0.307 A  
HETATM   22  C   UNL     1     -10.349  17.793  67.649  1.00  0.00    -0.373 A  
HETATM   23 CL   UNL     1     -10.107  19.494  67.710  1.00  0.00    -0.496 Cl 
HETATM   24  C   UNL     1     -10.275  17.132  66.431  1.00  0.00    -0.331 A  
HETATM   25  C   UNL     1     -10.945  15.719  68.738  1.00  0.00    -0.291 A  
HETATM   26  C   UNL     1     -10.550  15.763  66.366  1.00  0.00    -0.307 A  
HETATM   27  C   UNL     1     -10.641  17.085  68.810  1.00  0.00    -0.346 A  
ENDBRANCH  14  21
ENDBRANCH  11  14
ENDBRANCH   7   8
ENDBRANCH   6   7
ENDBRANCH   5   6
ENDBRANCH   3   5
TORSDOF 7
ENDMDL
MODEL       75
REMARK 921   NORMALIZED FREE ENERGY PREDICTED BY IDOCK:   -5.25 KCAL/MOL
REMARK 922        TOTAL FREE ENERGY PREDICTED BY IDOCK:   -8.43 KCAL/MOL
REMARK 923 INTER-LIGAND FREE ENERGY PREDICTED BY IDOCK:   -7.47 KCAL/MOL
REMARK 924 INTRA-LIGAND FREE ENERGY PREDICTED BY IDOCK:   -0.96 KCAL/MOL
REMARK 927      BINDING AFFINITY PREDICTED BY RF-SCORE:    0.00 PKD
ROOT
HETATM    1  O   UNL     1     -10.942  19.304  65.271  1.00  0.00    -0.487 OA 
HETATM    2  C   UNL     1     -10.335  18.393  66.079  1.00  0.00    -0.375 C  
HETATM    3  C   UNL     1     -10.535  16.970  65.590  1.00  0.00    -0.216 C  
HETATM    4  O   UNL     1      -9.700  18.711  67.074  1.00  0.00    -0.290 OA 
ENDROOT
BRANCH   3   5
HETATM    5  O   UNL     1     -11.352  16.982  64.408  1.00  0.00    -1.140 OA 
BRANCH   5   6
HETATM    6  C   UNL     1     -12.120  15.769  64.295  1.00  0.00     0.016 C  
BRANCH   6   7
HETATM    7  C   UNL     1     -11.167  14.566  64.426  1.00  0.00    -0.195 C  
BRANCH   7   8
HETATM    8  N   UNL     1     -11.793  13.253  64.201  1.00  0.00    -0.419 NA 
HETATM    9  C   UNL     1     -10.837  12.153  63.960  1.00  0.00    -0.383 C  
HETATM   10  C   UNL     1     -10.031  11.659  65.194  1.00  0.00    -0.259 C  
HETATM   11  N   UNL     1     -10.817  11.452  66.424  1.00  0.00    -0.277 NA 
HETATM   12  C   UNL     1     -11.837  12.480  66.627  1.00  0.00    -0.352 C  
HETATM   13  C   UNL     1     -12.628  12.861  65.355  1.00  0.00    -0.378 C  
BRANCH  11  14
HETATM   14  C   UNL     1      -9.983  11.092  67.608  1.00  0.00    -0.174 C  
BRANCH  14  15
HETATM   15  C   UNL     1      -8.545  11.675  67.614  1.00  0.00    -0.142 A  
HETATM   16  C   UNL     1      -7.435  10.861  67.341  1.00  0.00    -0.100 A  
HETATM   17  C   UNL     1      -8.297  13.049  67.821  1.00  0.00    -0.175 A  
HETATM   18  C   UNL     1      -6.140  11.401  67.265  1.00  0.00    -0.085 A  
HETATM   19  C   UNL     1      -5.936  12.762  67.461  1.00  0.00    -0.143 A  
HETATM   20  C   UNL     1      -7.015  13.589  67.743  1.00  0.00    -0.164 A  
ENDBRANCH  14  15
BRANCH  14  21
HETATM   21  C   UNL     1      -9.995   9.611  68.052  1.00  0.00    -0.190 A  
HETATM   22  C   UNL     1     -10.434   6.959  68.909  1.00  0.00    -0.208 A  
HETATM   23 CL   UNL     1     -10.826   5.381  69.468  1.00  0.00    -0.263 Cl 
HETATM   24  C   UNL     1      -9.956   7.906  69.805  1.00  0.00    -0.186 A  
HETATM   25  C   UNL     1     -10.400   8.612  67.145  1.00  0.00    -0.369 A  
HETATM   26  C   UNL     1      -9.713   9.212  69.371  1.00  0.00    -0.170 A  
HETATM   27  C   UNL     1     -10.617   7.294  67.572  1.00  0.00    -0.344 A  
ENDBRANCH  14  21
ENDBRANCH  11  14
ENDBRANCH   7   8
ENDBRANCH   6   7
ENDBRANCH   5   6
ENDBRANCH   3   5
TORSDOF 7
ENDMDL
MODEL       76
REMARK 921   NORMALIZED FREE ENERGY PREDICTED BY IDOCK:   -5.23 KCAL/MOL
REMARK 922        TOTAL FREE ENERGY PREDICTED BY IDOCK:   -8.40 KCAL/MOL
REMARK 923 INTER-LIGAND FREE ENERGY PREDICTED BY IDOCK:   -7.62 KCAL/MOL
REMARK 924 INTRA-LIGAND FREE ENERGY PREDICTED BY IDOCK:   -0.79 KCAL/MOL
REMARK 927      BINDING AFFINITY PREDICTED BY RF-SCORE:    0.00 PKD
ROOT
HETATM    1  O   UNL     1     -11.481  12.396  63.153  1.00  0.00    -0.389 OA 
HETATM    2  C   UNL     1     -11.102  13.062  64.278  1.00  0.00    -0.385 C  
HETATM    3  C   UNL     1     -10.179  12.232  65.151  1.00  0.00    -0.279 C  
HETATM    4  O   UNL     1     -11.469  14.200  64.527  1.00  0.00    -0.379 OA 
ENDROOT
BRANCH   3   5
HETATM    5  O   UNL     1      -9.987  10.940  64.551  1.00  0.00    -0.263 OA 
BRANCH   5   6
HETATM    6  C   UNL     1      -9.191  10.088  65.396  1.00  0.00    -0.210 C  
BRANCH   6   7
HETATM    7  C   UNL     1     -10.130   9.162  66.190  1.00  0.00    -0.208 C  
BRANCH   7   8
HETATM    8  N   UNL     1      -9.561   7.848  66.531  1.00  0.00    -0.215 NA 
HETATM    9  C   UNL     1      -8.389   7.902  67.428  1.00  0.00    -0.123 C  
HETATM   10  C   UNL     1      -8.675   8.265  68.912  1.00  0.00    -0.137 C  
HETATM   11  N   UNL     1      -9.814   7.561  69.530  1.00  0.00    -0.168 NA 
HETATM   12  C   UNL     1     -10.950   7.410  68.620  1.00  0.00     0.055 C  
HETATM   13  C   UNL     1     -10.570   6.987  67.182  1.00  0.00    -0.341 C  
BRANCH  11  14
HETATM   14  C   UNL     1     -10.121   8.027  70.913  1.00  0.00    -0.191 C  
BRANCH  14  15
HETATM   15  C   UNL     1     -10.266   6.908  71.979  1.00  0.00    -0.206 A  
HETATM   16  C   UNL     1     -10.116   7.189  73.345  1.00  0.00    -0.345 A  
HETATM   17  C   UNL     1     -10.623   5.587  71.631  1.00  0.00    -0.294 A  
HETATM   18  C   UNL     1     -10.327   6.198  74.318  1.00  0.00    -0.291 A  
HETATM   19  C   UNL     1     -10.690   4.911  73.938  1.00  0.00    -0.363 A  
HETATM   20  C   UNL     1     -10.836   4.602  72.592  1.00  0.00    -0.221 A  
ENDBRANCH  14  15
BRANCH  14  21
HETATM   21  C   UNL     1     -11.226   9.100  71.065  1.00  0.00    -0.380 A  
HETATM   22  C   UNL     1     -12.991  11.224  71.639  1.00  0.00    -0.432 A  
HETATM   23 CL   UNL     1     -13.992  12.545  72.098  1.00  0.00    -0.199 Cl 
HETATM   24  C   UNL     1     -13.224   9.966  72.177  1.00  0.00    -0.511 A  
HETATM   25  C   UNL     1     -11.059  10.364  70.466  1.00  0.00    -0.343 A  
HETATM   26  C   UNL     1     -12.364   8.909  71.868  1.00  0.00    -0.445 A  
HETATM   27  C   UNL     1     -11.938  11.418  70.751  1.00  0.00    -0.355 A  
ENDBRANCH  14  21
ENDBRANCH  11  14
ENDBRANCH   7   8
ENDBRANCH   6   7
ENDBRANCH   5   6
ENDBRANCH   3   5
TORSDOF 7
ENDMDL
MODEL       77
REMARK 921   NORMALIZED FREE ENERGY PREDICTED BY IDOCK:   -5.22 KCAL/MOL
REMARK 922        TOTAL FREE ENERGY PREDICTED BY IDOCK:   -8.38 KCAL/MOL
REMARK 923 INTER-LIGAND FREE ENERGY PREDICTED BY IDOCK:   -7.40 KCAL/MOL
REMARK 924 INTRA-LIGAND FREE ENERGY PREDICTED BY IDOCK:   -0.98 KCAL/MOL
REMARK 927      BINDING AFFINITY PREDICTED BY RF-SCORE:    0.00 PKD
ROOT
HETATM    1  O   UNL     1     -11.742  16.597  72.712  1.00  0.00    -0.472 OA 
HETATM    2  C   UNL     1     -12.890  15.937  73.023  1.00  0.00    -0.513 C  
HETATM    3  C   UNL     1     -13.598  15.407  71.789  1.00  0.00    -0.498 C  
HETATM    4  O   UNL     1     -13.279  15.791  74.172  1.00  0.00    -0.347 OA 
ENDROOT
BRANCH   3   5
HETATM    5  O   UNL     1     -12.862  15.788  70.615  1.00  0.00    -0.438 OA 
BRANCH   5   6
HETATM    6  C   UNL     1     -12.318  14.634  69.947  1.00  0.00    -0.294 C  
BRANCH   6   7
HETATM    7  C   UNL     1     -11.233  15.101  68.959  1.00  0.00    -0.273 C  
BRANCH   7   8
HETATM    8  N   UNL     1     -11.595  14.978  67.537  1.00  0.00    -0.333 NA 
HETATM    9  C   UNL     1     -10.449  15.033  66.607  1.00  0.00    -0.284 C  
HETATM   10  C   UNL     1      -9.529  13.780  66.574  1.00  0.00    -0.269 C  
HETATM   11  N   UNL     1     -10.226  12.481  66.521  1.00  0.00    -0.237 NA 
HETATM   12  C   UNL     1     -11.422  12.443  67.362  1.00  0.00    -0.352 C  
HETATM   13  C   UNL     1     -12.306  13.709  67.281  1.00  0.00    -0.153 C  
BRANCH  11  14
HETATM   14  C   UNL     1      -9.307  11.310  66.610  1.00  0.00    -0.180 C  
BRANCH  14  15
HETATM   15  C   UNL     1      -8.941  10.643  65.257  1.00  0.00    -0.209 A  
HETATM   16  C   UNL     1      -7.845   9.774  65.154  1.00  0.00    -0.126 A  
HETATM   17  C   UNL     1      -9.728  10.823  64.099  1.00  0.00    -0.364 A  
HETATM   18  C   UNL     1      -7.558   9.105  63.952  1.00  0.00    -0.113 A  
HETATM   19  C   UNL     1      -8.364   9.297  62.836  1.00  0.00    -0.193 A  
HETATM   20  C   UNL     1      -9.450  10.159  62.906  1.00  0.00    -0.288 A  
ENDBRANCH  14  15
BRANCH  14  21
HETATM   21  C   UNL     1      -9.619  10.252  67.696  1.00  0.00    -0.173 A  
HETATM   22  C   UNL     1      -9.812   8.157  69.574  1.00  0.00    -0.181 A  
HETATM   23 CL   UNL     1      -9.824   6.822  70.658  1.00  0.00    -0.187 Cl 
HETATM   24  C   UNL     1     -10.477   8.061  68.359  1.00  0.00    -0.205 A  
HETATM   25  C   UNL     1      -9.022  10.360  68.967  1.00  0.00    -0.184 A  
HETATM   26  C   UNL     1     -10.403   9.113  67.442  1.00  0.00    -0.330 A  
HETATM   27  C   UNL     1      -9.120   9.318  69.900  1.00  0.00    -0.203 A  
ENDBRANCH  14  21
ENDBRANCH  11  14
ENDBRANCH   7   8
ENDBRANCH   6   7
ENDBRANCH   5   6
ENDBRANCH   3   5
TORSDOF 7
ENDMDL
MODEL       78
REMARK 921   NORMALIZED FREE ENERGY PREDICTED BY IDOCK:   -5.21 KCAL/MOL
REMARK 922        TOTAL FREE ENERGY PREDICTED BY IDOCK:   -8.38 KCAL/MOL
REMARK 923 INTER-LIGAND FREE ENERGY PREDICTED BY IDOCK:   -7.33 KCAL/MOL
REMARK 924 INTRA-LIGAND FREE ENERGY PREDICTED BY IDOCK:   -1.05 KCAL/MOL
REMARK 927      BINDING AFFINITY PREDICTED BY RF-SCORE:    0.00 PKD
ROOT
HETATM    1  O   UNL     1     -11.962  16.223  71.648  1.00  0.00    -0.468 OA 
HETATM    2  C   UNL     1     -12.448  15.183  70.916  1.00  0.00    -0.365 C  
HETATM    3  C   UNL     1     -11.886  15.162  69.506  1.00  0.00    -0.332 C  
HETATM    4  O   UNL     1     -13.237  14.368  71.369  1.00  0.00    -0.322 OA 
ENDROOT
BRANCH   3   5
HETATM    5  O   UNL     1     -11.009  16.287  69.326  1.00  0.00    -0.281 OA 
BRANCH   5   6
HETATM    6  C   UNL     1     -10.405  16.269  68.019  1.00  0.00    -0.279 C  
BRANCH   6   7
HETATM    7  C   UNL     1     -10.759  14.939  67.328  1.00  0.00    -0.294 C  
BRANCH   7   8
HETATM    8  N   UNL     1      -9.644  14.294  66.615  1.00  0.00    -0.278 NA 
HETATM    9  C   UNL     1      -8.789  13.439  67.463  1.00  0.00    -0.210 C  
HETATM   10  C   UNL     1      -9.403  12.084  67.914  1.00  0.00    -0.190 C  
HETATM   11  N   UNL     1     -10.086  11.313  66.858  1.00  0.00    -0.207 NA 
HETATM   12  C   UNL     1     -10.859  12.158  65.948  1.00  0.00    -0.278 C  
HETATM   13  C   UNL     1     -10.141  13.454  65.506  1.00  0.00    -0.266 C  
BRANCH  11  14
HETATM   14  C   UNL     1     -10.759  10.081  67.363  1.00  0.00    -0.274 C  
BRANCH  14  15
HETATM   15  C   UNL     1     -11.210  10.126  68.847  1.00  0.00    -0.220 A  
HETATM   16  C   UNL     1     -10.507   9.425  69.837  1.00  0.00    -0.257 A  
HETATM   17  C   UNL     1     -12.294  10.924  69.273  1.00  0.00    -0.107 A  
HETATM   18  C   UNL     1     -10.862   9.528  71.192  1.00  0.00    -0.425 A  
HETATM   19  C   UNL     1     -11.928  10.335  71.576  1.00  0.00    -0.357 A  
HETATM   20  C   UNL     1     -12.648  11.032  70.617  1.00  0.00    -0.427 A  
ENDBRANCH  14  15
BRANCH  14  21
HETATM   21  C   UNL     1     -10.099   8.726  67.013  1.00  0.00    -0.335 A  
HETATM   22  C   UNL     1      -9.003   6.343  65.975  1.00  0.00    -0.130 A  
HETATM   23 CL   UNL     1      -8.399   4.918  65.227  1.00  0.00    -0.125 Cl 
HETATM   24  C   UNL     1     -10.252   6.324  66.581  1.00  0.00    -0.226 A  
HETATM   25  C   UNL     1      -8.801   8.701  66.468  1.00  0.00    -0.163 A  
HETATM   26  C   UNL     1     -10.780   7.501  67.120  1.00  0.00    -0.379 A  
HETATM   27  C   UNL     1      -8.256   7.516  65.954  1.00  0.00    -0.134 A  
ENDBRANCH  14  21
ENDBRANCH  11  14
ENDBRANCH   7   8
ENDBRANCH   6   7
ENDBRANCH   5   6
ENDBRANCH   3   5
TORSDOF 7
ENDMDL
MODEL       79
REMARK 921   NORMALIZED FREE ENERGY PREDICTED BY IDOCK:   -5.19 KCAL/MOL
REMARK 922        TOTAL FREE ENERGY PREDICTED BY IDOCK:   -8.35 KCAL/MOL
REMARK 923 INTER-LIGAND FREE ENERGY PREDICTED BY IDOCK:   -7.11 KCAL/MOL
REMARK 924 INTRA-LIGAND FREE ENERGY PREDICTED BY IDOCK:   -1.24 KCAL/MOL
REMARK 927      BINDING AFFINITY PREDICTED BY RF-SCORE:    0.00 PKD
ROOT
HETATM    1  O   UNL     1     -10.441   9.695  67.311  1.00  0.00    -0.239 OA 
HETATM    2  C   UNL     1      -9.825  10.193  66.205  1.00  0.00    -0.237 C  
HETATM    3  C   UNL     1      -8.383  10.580  66.476  1.00  0.00    -0.141 C  
HETATM    4  O   UNL     1     -10.388  10.297  65.125  1.00  0.00    -0.286 OA 
ENDROOT
BRANCH   3   5
HETATM    5  O   UNL     1      -8.077  10.340  67.860  1.00  0.00    -0.102 OA 
BRANCH   5   6
HETATM    6  C   UNL     1      -6.765  10.830  68.194  1.00  0.00    -0.063 C  
BRANCH   6   7
HETATM    7  C   UNL     1      -6.906  11.952  69.238  1.00  0.00    -0.080 C  
BRANCH   7   8
HETATM    8  N   UNL     1      -6.139  13.174  68.943  1.00  0.00    -0.078 NA 
HETATM    9  C   UNL     1      -6.359  13.723  67.590  1.00  0.00    -0.128 C  
HETATM   10  C   UNL     1      -7.730  14.415  67.343  1.00  0.00    -0.185 C  
HETATM   11  N   UNL     1      -8.170  15.346  68.398  1.00  0.00    -0.137 NA 
HETATM   12  C   UNL     1      -7.870  14.862  69.745  1.00  0.00     0.045 C  
HETATM   13  C   UNL     1      -6.460  14.246  69.907  1.00  0.00    -0.137 C  
BRANCH  11  14
HETATM   14  C   UNL     1      -9.540  15.893  68.173  1.00  0.00    -0.208 C  
BRANCH  14  15
HETATM   15  C   UNL     1      -9.614  17.421  67.914  1.00  0.00    -0.267 A  
HETATM   16  C   UNL     1     -10.733  17.994  67.290  1.00  0.00    -0.305 A  
HETATM   17  C   UNL     1      -8.603  18.303  68.352  1.00  0.00    -0.315 A  
HETATM   18  C   UNL     1     -10.841  19.385  67.127  1.00  0.00    -0.561 A  
HETATM   19  C   UNL     1      -9.831  20.224  67.584  1.00  0.00    -0.563 A  
HETATM   20  C   UNL     1      -8.707  19.684  68.196  1.00  0.00    -0.359 A  
ENDBRANCH  14  15
BRANCH  14  21
HETATM   21  C   UNL     1     -10.651  15.429  69.145  1.00  0.00    -0.248 A  
HETATM   22  C   UNL     1     -12.360  14.451  71.164  1.00  0.00    -0.358 A  
HETATM   23 CL   UNL     1     -13.294  13.793  72.449  1.00  0.00    -0.594 Cl 
HETATM   24  C   UNL     1     -12.132  13.693  70.023  1.00  0.00    -0.417 A  
HETATM   25  C   UNL     1     -10.964  16.212  70.273  1.00  0.00    -0.345 A  
HETATM   26  C   UNL     1     -11.307  14.193  69.012  1.00  0.00    -0.310 A  
HETATM   27  C   UNL     1     -11.815  15.725  71.275  1.00  0.00    -0.491 A  
ENDBRANCH  14  21
ENDBRANCH  11  14
ENDBRANCH   7   8
ENDBRANCH   6   7
ENDBRANCH   5   6
ENDBRANCH   3   5
TORSDOF 7
ENDMDL
MODEL       80
REMARK 921   NORMALIZED FREE ENERGY PREDICTED BY IDOCK:   -5.16 KCAL/MOL
REMARK 922        TOTAL FREE ENERGY PREDICTED BY IDOCK:   -8.30 KCAL/MOL
REMARK 923 INTER-LIGAND FREE ENERGY PREDICTED BY IDOCK:   -7.53 KCAL/MOL
REMARK 924 INTRA-LIGAND FREE ENERGY PREDICTED BY IDOCK:   -0.78 KCAL/MOL
REMARK 927      BINDING AFFINITY PREDICTED BY RF-SCORE:    0.00 PKD
ROOT
HETATM    1  O   UNL     1     -10.575  19.501  68.109  1.00  0.00    -0.405 OA 
HETATM    2  C   UNL     1     -10.375  19.184  66.800  1.00  0.00    -0.421 C  
HETATM    3  C   UNL     1     -10.340  17.684  66.573  1.00  0.00    -0.337 C  
HETATM    4  O   UNL     1     -10.251  20.030  65.927  1.00  0.00    -0.486 OA 
ENDROOT
BRANCH   3   5
HETATM    5  O   UNL     1     -10.497  17.007  67.831  1.00  0.00    -0.326 OA 
BRANCH   5   6
HETATM    6  C   UNL     1      -9.651  15.844  67.903  1.00  0.00    -0.215 C  
BRANCH   6   7
HETATM    7  C   UNL     1     -10.344  14.681  67.169  1.00  0.00    -0.265 C  
BRANCH   7   8
HETATM    8  N   UNL     1      -9.475  13.919  66.257  1.00  0.00    -0.253 NA 
HETATM    9  C   UNL     1      -8.548  12.987  66.931  1.00  0.00    -0.119 C  
HETATM   10  C   UNL     1      -9.184  11.707  67.543  1.00  0.00    -0.172 C  
HETATM   11  N   UNL     1     -10.148  11.002  66.678  1.00  0.00    -0.212 NA 
HETATM   12  C   UNL     1     -11.010  11.914  65.926  1.00  0.00    -0.307 C  
HETATM   13  C   UNL     1     -10.276  13.124  65.304  1.00  0.00    -0.286 C  
BRANCH  11  14
HETATM   14  C   UNL     1     -10.817   9.850  67.350  1.00  0.00    -0.227 C  
BRANCH  14  15
HETATM   15  C   UNL     1     -11.119  10.041  68.860  1.00  0.00    -0.219 A  
HETATM   16  C   UNL     1     -12.092  10.955  69.292  1.00  0.00    -0.332 A  
HETATM   17  C   UNL     1     -10.486   9.262  69.853  1.00  0.00    -0.247 A  
HETATM   18  C   UNL     1     -12.426  11.073  70.651  1.00  0.00    -0.465 A  
HETATM   19  C   UNL     1     -11.791  10.278  71.599  1.00  0.00    -0.151 A  
HETATM   20  C   UNL     1     -10.817   9.373  71.202  1.00  0.00    -0.427 A  
ENDBRANCH  14  15
BRANCH  14  21
HETATM   21  C   UNL     1     -10.249   8.440  67.061  1.00  0.00    -0.377 A  
HETATM   22  C   UNL     1      -9.348   5.932  66.137  1.00  0.00    -0.132 A  
HETATM   23 CL   UNL     1      -8.871   4.425  65.462  1.00  0.00    -0.122 Cl 
HETATM   24  C   UNL     1     -10.543   6.023  66.838  1.00  0.00    -0.384 A  
HETATM   25  C   UNL     1      -9.001   8.308  66.420  1.00  0.00    -0.202 A  
HETATM   26  C   UNL     1     -10.973   7.263  67.319  1.00  0.00    -0.284 A  
HETATM   27  C   UNL     1      -8.554   7.060  65.963  1.00  0.00    -0.154 A  
ENDBRANCH  14  21
ENDBRANCH  11  14
ENDBRANCH   7   8
ENDBRANCH   6   7
ENDBRANCH   5   6
ENDBRANCH   3   5
TORSDOF 7
ENDMDL
MODEL       81
REMARK 921   NORMALIZED FREE ENERGY PREDICTED BY IDOCK:   -5.16 KCAL/MOL
REMARK 922        TOTAL FREE ENERGY PREDICTED BY IDOCK:   -8.30 KCAL/MOL
REMARK 923 INTER-LIGAND FREE ENERGY PREDICTED BY IDOCK:   -7.55 KCAL/MOL
REMARK 924 INTRA-LIGAND FREE ENERGY PREDICTED BY IDOCK:   -0.75 KCAL/MOL
REMARK 927      BINDING AFFINITY PREDICTED BY RF-SCORE:    0.00 PKD
ROOT
HETATM    1  O   UNL     1     -10.483   8.525  66.386  1.00  0.00    -0.195 OA 
HETATM    2  C   UNL     1     -10.217   9.657  67.091  1.00  0.00    -0.243 C  
HETATM    3  C   UNL     1      -9.976  10.852  66.186  1.00  0.00    -0.233 C  
HETATM    4  O   UNL     1     -10.192   9.686  68.312  1.00  0.00    -0.170 OA 
ENDROOT
BRANCH   3   5
HETATM    5  O   UNL     1     -10.064  10.436  64.813  1.00  0.00    -0.339 OA 
BRANCH   5   6
HETATM    6  C   UNL     1     -11.013  11.241  64.087  1.00  0.00    -0.305 C  
BRANCH   6   7
HETATM    7  C   UNL     1     -10.741  12.725  64.395  1.00  0.00    -0.376 C  
BRANCH   7   8
HETATM    8  N   UNL     1     -11.928  13.507  64.776  1.00  0.00    -0.372 NA 
HETATM    9  C   UNL     1     -12.287  13.418  66.206  1.00  0.00    -0.349 C  
HETATM   10  C   UNL     1     -11.358  14.176  67.196  1.00  0.00    -0.332 C  
HETATM   11  N   UNL     1     -10.992  15.549  66.800  1.00  0.00    -0.295 NA 
HETATM   12  C   UNL     1     -10.730  15.675  65.367  1.00  0.00    -0.408 C  
HETATM   13  C   UNL     1     -11.742  14.938  64.460  1.00  0.00    -0.382 C  
BRANCH  11  14
HETATM   14  C   UNL     1     -10.009  16.190  67.721  1.00  0.00    -0.237 C  
BRANCH  14  15
HETATM   15  C   UNL     1      -9.675  17.674  67.413  1.00  0.00    -0.283 A  
HETATM   16  C   UNL     1     -10.611  18.690  67.656  1.00  0.00    -0.458 A  
HETATM   17  C   UNL     1      -8.403  18.072  66.947  1.00  0.00    -0.263 A  
HETATM   18  C   UNL     1     -10.285  20.042  67.456  1.00  0.00    -0.551 A  
HETATM   19  C   UNL     1      -9.017  20.396  67.009  1.00  0.00    -0.423 A  
HETATM   20  C   UNL     1      -8.073  19.411  66.751  1.00  0.00    -0.302 A  
ENDBRANCH  14  15
BRANCH  14  21
HETATM   21  C   UNL     1      -8.734  15.382  68.062  1.00  0.00    -0.160 A  
HETATM   22  C   UNL     1      -6.675  13.592  68.776  1.00  0.00    -0.105 A  
HETATM   23 CL   UNL     1      -5.515  12.420  69.263  1.00  0.00    -0.069 Cl 
HETATM   24  C   UNL     1      -7.098  14.556  69.680  1.00  0.00    -0.090 A  
HETATM   25  C   UNL     1      -8.230  14.448  67.135  1.00  0.00    -0.202 A  
HETATM   26  C   UNL     1      -8.099  15.460  69.314  1.00  0.00    -0.246 A  
HETATM   27  C   UNL     1      -7.205  13.560  67.491  1.00  0.00    -0.165 A  
ENDBRANCH  14  21
ENDBRANCH  11  14
ENDBRANCH   7   8
ENDBRANCH   6   7
ENDBRANCH   5   6
ENDBRANCH   3   5
TORSDOF 7
ENDMDL
MODEL       82
REMARK 921   NORMALIZED FREE ENERGY PREDICTED BY IDOCK:   -5.15 KCAL/MOL
REMARK 922        TOTAL FREE ENERGY PREDICTED BY IDOCK:   -8.29 KCAL/MOL
REMARK 923 INTER-LIGAND FREE ENERGY PREDICTED BY IDOCK:   -7.50 KCAL/MOL
REMARK 924 INTRA-LIGAND FREE ENERGY PREDICTED BY IDOCK:   -0.79 KCAL/MOL
REMARK 927      BINDING AFFINITY PREDICTED BY RF-SCORE:    0.00 PKD
ROOT
HETATM    1  O   UNL     1     -12.032  14.793  71.375  1.00  0.00    -0.320 OA 
HETATM    2  C   UNL     1     -13.140  14.730  72.162  1.00  0.00    -0.341 C  
HETATM    3  C   UNL     1     -13.689  13.319  72.268  1.00  0.00    -0.589 C  
HETATM    4  O   UNL     1     -13.614  15.710  72.717  1.00  0.00    -0.521 OA 
ENDROOT
BRANCH   3   5
HETATM    5  O   UNL     1     -12.889  12.435  71.465  1.00  0.00    -0.366 OA 
BRANCH   5   6
HETATM    6  C   UNL     1     -13.176  11.056  71.768  1.00  0.00    -0.400 C  
BRANCH   6   7
HETATM    7  C   UNL     1     -12.031  10.181  71.224  1.00  0.00    -0.382 C  
BRANCH   7   8
HETATM    8  N   UNL     1     -11.664   9.040  72.078  1.00  0.00    -0.361 NA 
HETATM    9  C   UNL     1     -12.447   7.812  71.828  1.00  0.00    -0.320 C  
HETATM   10  C   UNL     1     -12.125   7.048  70.513  1.00  0.00    -0.229 C  
HETATM   11  N   UNL     1     -10.692   6.862  70.220  1.00  0.00    -0.231 NA 
HETATM   12  C   UNL     1      -9.887   8.036  70.556  1.00  0.00    -0.182 C  
HETATM   13  C   UNL     1     -10.239   8.691  71.912  1.00  0.00    -0.334 C  
BRANCH  11  14
HETATM   14  C   UNL     1     -10.434   6.230  68.894  1.00  0.00    -0.232 C  
BRANCH  14  15
HETATM   15  C   UNL     1      -9.842   4.796  68.941  1.00  0.00    -0.230 A  
HETATM   16  C   UNL     1      -9.547   4.177  70.165  1.00  0.00    -0.272 A  
HETATM   17  C   UNL     1      -9.642   4.032  67.771  1.00  0.00    -0.204 A  
HETATM   18  C   UNL     1      -9.088   2.850  70.216  1.00  0.00    -0.187 A  
HETATM   19  C   UNL     1      -8.916   2.124  69.043  1.00  0.00    -0.163 A  
HETATM   20  C   UNL     1      -9.190   2.715  67.817  1.00  0.00    -0.244 A  
ENDBRANCH  14  15
BRANCH  14  21
HETATM   21  C   UNL     1      -9.728   7.098  67.826  1.00  0.00    -0.161 A  
HETATM   22  C   UNL     1      -8.377   8.960  66.192  1.00  0.00    -0.122 A  
HETATM   23 CL   UNL     1      -7.566  10.183  65.298  1.00  0.00    -0.141 Cl 
HETATM   24  C   UNL     1      -9.764   8.900  66.173  1.00  0.00    -0.338 A  
HETATM   25  C   UNL     1      -8.321   7.124  67.764  1.00  0.00    -0.118 A  
HETATM   26  C   UNL     1     -10.429   7.958  66.962  1.00  0.00    -0.419 A  
HETATM   27  C   UNL     1      -7.651   8.048  66.951  1.00  0.00    -0.095 A  
ENDBRANCH  14  21
ENDBRANCH  11  14
ENDBRANCH   7   8
ENDBRANCH   6   7
ENDBRANCH   5   6
ENDBRANCH   3   5
TORSDOF 7
ENDMDL
MODEL       83
REMARK 921   NORMALIZED FREE ENERGY PREDICTED BY IDOCK:   -5.13 KCAL/MOL
REMARK 922        TOTAL FREE ENERGY PREDICTED BY IDOCK:   -8.26 KCAL/MOL
REMARK 923 INTER-LIGAND FREE ENERGY PREDICTED BY IDOCK:   -7.47 KCAL/MOL
REMARK 924 INTRA-LIGAND FREE ENERGY PREDICTED BY IDOCK:   -0.79 KCAL/MOL
REMARK 927      BINDING AFFINITY PREDICTED BY RF-SCORE:    0.00 PKD
ROOT
HETATM    1  O   UNL     1     -11.475   3.471  73.460  1.00  0.00    -0.207 OA 
HETATM    2  C   UNL     1     -10.426   4.304  73.701  1.00  0.00    -0.204 C  
HETATM    3  C   UNL     1     -10.674   5.705  73.172  1.00  0.00    -0.267 C  
HETATM    4  O   UNL     1      -9.416   3.944  74.287  1.00  0.00    -0.101 OA 
ENDROOT
BRANCH   3   5
HETATM    5  O   UNL     1     -11.956   5.750  72.523  1.00  0.00    -0.275 OA 
BRANCH   5   6
HETATM    6  C   UNL     1     -11.935   6.643  71.394  1.00  0.00    -0.353 C  
BRANCH   6   7
HETATM    7  C   UNL     1     -12.837   7.853  71.703  1.00  0.00    -0.334 C  
BRANCH   7   8
HETATM    8  N   UNL     1     -12.120   9.072  72.111  1.00  0.00    -0.360 NA 
HETATM    9  C   UNL     1     -10.733   9.162  71.612  1.00  0.00    -0.371 C  
HETATM   10  C   UNL     1     -10.566   9.462  70.096  1.00  0.00    -0.240 C  
HETATM   11  N   UNL     1     -11.419  10.542  69.564  1.00  0.00    -0.262 NA 
HETATM   12  C   UNL     1     -12.770  10.526  70.124  1.00  0.00    -0.127 C  
HETATM   13  C   UNL     1     -12.831  10.282  71.649  1.00  0.00    -0.463 C  
BRANCH  11  14
HETATM   14  C   UNL     1     -11.308  10.712  68.086  1.00  0.00    -0.284 C  
BRANCH  14  15
HETATM   15  C   UNL     1     -10.227   9.842  67.392  1.00  0.00    -0.284 A  
HETATM   16  C   UNL     1      -8.906  10.296  67.265  1.00  0.00    -0.136 A  
HETATM   17  C   UNL     1     -10.505   8.539  66.925  1.00  0.00    -0.345 A  
HETATM   18  C   UNL     1      -7.906   9.479  66.712  1.00  0.00    -0.101 A  
HETATM   19  C   UNL     1      -8.215   8.195  66.275  1.00  0.00    -0.114 A  
HETATM   20  C   UNL     1      -9.516   7.723  66.378  1.00  0.00    -0.245 A  
ENDBRANCH  14  15
BRANCH  14  21
HETATM   21  C   UNL     1     -11.301  12.161  67.544  1.00  0.00    -0.392 A  
HETATM   22  C   UNL     1     -10.949  14.685  66.334  1.00  0.00    -0.325 A  
HETATM   23 CL   UNL     1     -10.614  16.180  65.554  1.00  0.00    -0.401 Cl 
HETATM   24  C   UNL     1     -10.500  14.470  67.630  1.00  0.00    -0.246 A  
HETATM   25  C   UNL     1     -11.820  12.431  66.262  1.00  0.00    -0.431 A  
HETATM   26  C   UNL     1     -10.701  13.228  68.237  1.00  0.00    -0.267 A  
HETATM   27  C   UNL     1     -11.646  13.686  65.663  1.00  0.00    -0.342 A  
ENDBRANCH  14  21
ENDBRANCH  11  14
ENDBRANCH   7   8
ENDBRANCH   6   7
ENDBRANCH   5   6
ENDBRANCH   3   5
TORSDOF 7
ENDMDL
MODEL       84
REMARK 921   NORMALIZED FREE ENERGY PREDICTED BY IDOCK:   -5.13 KCAL/MOL
REMARK 922        TOTAL FREE ENERGY PREDICTED BY IDOCK:   -8.26 KCAL/MOL
REMARK 923 INTER-LIGAND FREE ENERGY PREDICTED BY IDOCK:   -7.66 KCAL/MOL
REMARK 924 INTRA-LIGAND FREE ENERGY PREDICTED BY IDOCK:   -0.60 KCAL/MOL
REMARK 927      BINDING AFFINITY PREDICTED BY RF-SCORE:    0.00 PKD
ROOT
HETATM    1  O   UNL     1      -8.822   9.473  62.534  1.00  0.00    -0.215 OA 
HETATM    2  C   UNL     1      -9.475  10.343  63.351  1.00  0.00    -0.315 C  
HETATM    3  C   UNL     1      -9.330   9.972  64.816  1.00  0.00    -0.271 C  
HETATM    4  O   UNL     1     -10.092  11.310  62.930  1.00  0.00    -0.282 OA 
ENDROOT
BRANCH   3   5
HETATM    5  O   UNL     1      -8.557   8.765  64.928  1.00  0.00    -0.173 OA 
BRANCH   5   6
HETATM    6  C   UNL     1      -7.460   8.934  65.846  1.00  0.00    -0.093 C  
BRANCH   6   7
HETATM    7  C   UNL     1      -7.307  10.434  66.162  1.00  0.00    -0.131 C  
BRANCH   7   8
HETATM    8  N   UNL     1      -7.087  10.748  67.583  1.00  0.00    -0.089 NA 
HETATM    9  C   UNL     1      -7.227  12.178  67.923  1.00  0.00    -0.102 C  
HETATM   10  C   UNL     1      -8.675  12.746  67.927  1.00  0.00    -0.185 C  
HETATM   11  N   UNL     1      -9.682  11.912  68.610  1.00  0.00    -0.155 NA 
HETATM   12  C   UNL     1      -9.497  10.482  68.364  1.00  0.00    -0.157 C  
HETATM   13  C   UNL     1      -8.030  10.000  68.442  1.00  0.00    -0.097 C  
BRANCH  11  14
HETATM   14  C   UNL     1     -11.072  12.439  68.486  1.00  0.00    -0.258 C  
BRANCH  14  15
HETATM   15  C   UNL     1     -11.423  13.084  67.119  1.00  0.00    -0.379 A  
HETATM   16  C   UNL     1     -12.117  12.361  66.137  1.00  0.00    -0.295 A  
HETATM   17  C   UNL     1     -11.126  14.434  66.832  1.00  0.00    -0.325 A  
HETATM   18  C   UNL     1     -12.508  12.966  64.931  1.00  0.00    -0.540 A  
HETATM   19  C   UNL     1     -12.210  14.302  64.690  1.00  0.00    -0.470 A  
HETATM   20  C   UNL     1     -11.515  15.038  65.639  1.00  0.00    -0.248 A  
ENDBRANCH  14  15
BRANCH  14  21
HETATM   21  C   UNL     1     -11.611  13.283  69.665  1.00  0.00    -0.329 A  
HETATM   22  C   UNL     1     -12.961  14.826  71.603  1.00  0.00    -0.334 A  
HETATM   23 CL   UNL     1     -13.883  15.783  72.694  1.00  0.00    -0.642 Cl 
HETATM   24  C   UNL     1     -12.122  15.445  70.687  1.00  0.00    -0.412 A  
HETATM   25  C   UNL     1     -12.403  12.672  70.658  1.00  0.00    -0.375 A  
HETATM   26  C   UNL     1     -11.433  14.675  69.746  1.00  0.00    -0.325 A  
HETATM   27  C   UNL     1     -13.072  13.440  71.621  1.00  0.00    -0.463 A  
ENDBRANCH  14  21
ENDBRANCH  11  14
ENDBRANCH   7   8
ENDBRANCH   6   7
ENDBRANCH   5   6
ENDBRANCH   3   5
TORSDOF 7
ENDMDL
MODEL       85
REMARK 921   NORMALIZED FREE ENERGY PREDICTED BY IDOCK:   -5.12 KCAL/MOL
REMARK 922        TOTAL FREE ENERGY PREDICTED BY IDOCK:   -8.25 KCAL/MOL
REMARK 923 INTER-LIGAND FREE ENERGY PREDICTED BY IDOCK:   -7.16 KCAL/MOL
REMARK 924 INTRA-LIGAND FREE ENERGY PREDICTED BY IDOCK:   -1.09 KCAL/MOL
REMARK 927      BINDING AFFINITY PREDICTED BY RF-SCORE:    0.00 PKD
ROOT
HETATM    1  O   UNL     1     -10.079  17.739  67.348  1.00  0.00    -0.311 OA 
HETATM    2  C   UNL     1      -9.672  17.103  66.216  1.00  0.00    -0.278 C  
HETATM    3  C   UNL     1      -8.160  17.024  66.115  1.00  0.00    -0.257 C  
HETATM    4  O   UNL     1     -10.455  16.647  65.396  1.00  0.00    -0.571 OA 
ENDROOT
BRANCH   3   5
HETATM    5  O   UNL     1      -7.571  17.686  67.247  1.00  0.00    -0.192 OA 
BRANCH   5   6
HETATM    6  C   UNL     1      -6.474  16.920  67.782  1.00  0.00    -0.143 C  
BRANCH   6   7
HETATM    7  C   UNL     1      -6.831  15.424  67.704  1.00  0.00    -0.182 C  
BRANCH   7   8
HETATM    8  N   UNL     1      -7.403  14.858  68.936  1.00  0.00    -0.126 NA 
HETATM    9  C   UNL     1      -8.878  14.768  68.941  1.00  0.00    -0.164 C  
HETATM   10  C   UNL     1      -9.503  13.669  68.037  1.00  0.00    -0.209 C  
HETATM   11  N   UNL     1      -8.866  12.341  68.118  1.00  0.00    -0.184 NA 
HETATM   12  C   UNL     1      -7.408  12.415  68.215  1.00  0.00    -0.113 C  
HETATM   13  C   UNL     1      -6.882  13.498  69.185  1.00  0.00    -0.084 C  
BRANCH  11  14
HETATM   14  C   UNL     1      -9.424  11.354  67.149  1.00  0.00    -0.175 C  
BRANCH  14  15
HETATM   15  C   UNL     1     -10.351  11.944  66.054  1.00  0.00    -0.268 A  
HETATM   16  C   UNL     1     -11.681  12.285  66.341  1.00  0.00    -0.431 A  
HETATM   17  C   UNL     1      -9.883  12.227  64.752  1.00  0.00    -0.129 A  
HETATM   18  C   UNL     1     -12.500  12.895  65.376  1.00  0.00    -0.511 A  
HETATM   19  C   UNL     1     -11.999  13.171  64.108  1.00  0.00    -0.499 A  
HETATM   20  C   UNL     1     -10.690  12.834  63.793  1.00  0.00    -0.397 A  
ENDBRANCH  14  15
BRANCH  14  21
HETATM   21  C   UNL     1     -10.002  10.044  67.734  1.00  0.00    -0.203 A  
HETATM   22  C   UNL     1     -10.656   7.565  68.911  1.00  0.00    -0.169 A  
HETATM   23 CL   UNL     1     -10.923   6.027  69.631  1.00  0.00    -0.441 Cl 
HETATM   24  C   UNL     1     -10.532   7.665  67.532  1.00  0.00    -0.336 A  
HETATM   25  C   UNL     1     -10.215   9.932  69.122  1.00  0.00    -0.218 A  
HETATM   26  C   UNL     1     -10.235   8.900  66.950  1.00  0.00    -0.347 A  
HETATM   27  C   UNL     1     -10.542   8.700  69.706  1.00  0.00    -0.224 A  
ENDBRANCH  14  21
ENDBRANCH  11  14
ENDBRANCH   7   8
ENDBRANCH   6   7
ENDBRANCH   5   6
ENDBRANCH   3   5
TORSDOF 7
ENDMDL
MODEL       86
REMARK 921   NORMALIZED FREE ENERGY PREDICTED BY IDOCK:   -5.12 KCAL/MOL
REMARK 922        TOTAL FREE ENERGY PREDICTED BY IDOCK:   -8.25 KCAL/MOL
REMARK 923 INTER-LIGAND FREE ENERGY PREDICTED BY IDOCK:   -7.95 KCAL/MOL
REMARK 924 INTRA-LIGAND FREE ENERGY PREDICTED BY IDOCK:   -0.30 KCAL/MOL
REMARK 927      BINDING AFFINITY PREDICTED BY RF-SCORE:    0.00 PKD
ROOT
HETATM    1  O   UNL     1      -7.530  18.994  68.941  1.00  0.00    -0.329 OA 
HETATM    2  C   UNL     1      -7.055  19.820  67.970  1.00  0.00    -0.277 C  
HETATM    3  C   UNL     1      -8.125  20.192  66.960  1.00  0.00    -0.326 C  
HETATM    4  O   UNL     1      -5.898  20.212  67.942  1.00  0.00    -0.203 OA 
ENDROOT
BRANCH   3   5
HETATM    5  O   UNL     1      -9.353  19.527  67.300  1.00  0.00    -0.302 OA 
BRANCH   5   6
HETATM    6  C   UNL     1     -10.105  19.189  66.119  1.00  0.00    -0.426 C  
BRANCH   6   7
HETATM    7  C   UNL     1     -10.697  17.779  66.296  1.00  0.00    -0.098 C  
BRANCH   7   8
HETATM    8  N   UNL     1     -10.092  16.741  65.445  1.00  0.00    -0.596 NA 
HETATM    9  C   UNL     1      -9.063  15.922  66.118  1.00  0.00    -0.350 C  
HETATM   10  C   UNL     1      -9.577  14.893  67.164  1.00  0.00    -0.225 C  
HETATM   11  N   UNL     1     -10.740  14.089  66.745  1.00  0.00    -0.284 NA 
HETATM   12  C   UNL     1     -11.725  14.864  65.990  1.00  0.00    -0.173 C  
HETATM   13  C   UNL     1     -11.120  15.814  64.930  1.00  0.00    -0.399 C  
BRANCH  11  14
HETATM   14  C   UNL     1     -11.268  13.202  67.822  1.00  0.00    -0.277 C  
BRANCH  14  15
HETATM   15  C   UNL     1     -11.614  13.909  69.159  1.00  0.00    -0.359 A  
HETATM   16  C   UNL     1     -12.398  13.270  70.132  1.00  0.00    -0.306 A  
HETATM   17  C   UNL     1     -11.103  15.185  69.484  1.00  0.00    -0.287 A  
HETATM   18  C   UNL     1     -12.646  13.873  71.376  1.00  0.00    -0.444 A  
HETATM   19  C   UNL     1     -12.114  15.125  71.665  1.00  0.00    -0.424 A  
HETATM   20  C   UNL     1     -11.344  15.785  70.718  1.00  0.00    -0.419 A  
ENDBRANCH  14  15
BRANCH  14  21
HETATM   21  C   UNL     1     -10.522  11.869  68.063  1.00  0.00    -0.228 A  
HETATM   22  C   UNL     1      -9.365   9.427  68.875  1.00  0.00    -0.154 A  
HETATM   23 CL   UNL     1      -8.709   7.963  69.493  1.00  0.00    -0.134 Cl 
HETATM   24  C   UNL     1      -8.648  10.609  69.000  1.00  0.00    -0.150 A  
HETATM   25  C   UNL     1     -11.196  10.646  67.871  1.00  0.00    -0.376 A  
HETATM   26  C   UNL     1      -9.212  11.813  68.571  1.00  0.00    -0.152 A  
HETATM   27  C   UNL     1     -10.619   9.434  68.273  1.00  0.00    -0.256 A  
ENDBRANCH  14  21
ENDBRANCH  11  14
ENDBRANCH   7   8
ENDBRANCH   6   7
ENDBRANCH   5   6
ENDBRANCH   3   5
TORSDOF 7
ENDMDL
MODEL       87
REMARK 921   NORMALIZED FREE ENERGY PREDICTED BY IDOCK:   -5.10 KCAL/MOL
REMARK 922        TOTAL FREE ENERGY PREDICTED BY IDOCK:   -8.22 KCAL/MOL
REMARK 923 INTER-LIGAND FREE ENERGY PREDICTED BY IDOCK:   -8.02 KCAL/MOL
REMARK 924 INTRA-LIGAND FREE ENERGY PREDICTED BY IDOCK:   -0.20 KCAL/MOL
REMARK 927      BINDING AFFINITY PREDICTED BY RF-SCORE:    0.00 PKD
ROOT
HETATM    1  O   UNL     1     -13.160  12.497  65.065  1.00  0.00    -0.765 OA 
HETATM    2  C   UNL     1     -12.787  12.452  63.758  1.00  0.00    -0.266 C  
HETATM    3  C   UNL     1     -11.884  13.612  63.379  1.00  0.00    -0.052 C  
HETATM    4  O   UNL     1     -13.142  11.563  62.998  1.00  0.00    -0.296 OA 
ENDROOT
BRANCH   3   5
HETATM    5  O   UNL     1     -11.701  14.466  64.521  1.00  0.00    -0.409 OA 
BRANCH   5   6
HETATM    6  C   UNL     1     -10.349  14.395  65.011  1.00  0.00    -0.421 C  
BRANCH   6   7
HETATM    7  C   UNL     1     -10.335  13.559  66.304  1.00  0.00    -0.293 C  
BRANCH   7   8
HETATM    8  N   UNL     1      -9.364  12.452  66.317  1.00  0.00    -0.219 NA 
HETATM    9  C   UNL     1      -8.684  12.249  67.612  1.00  0.00    -0.175 C  
HETATM   10  C   UNL     1      -9.543  11.629  68.750  1.00  0.00    -0.072 C  
HETATM   11  N   UNL     1     -10.362  10.464  68.365  1.00  0.00    -0.165 NA 
HETATM   12  C   UNL     1     -10.964  10.607  67.039  1.00  0.00    -0.208 C  
HETATM   13  C   UNL     1     -10.014  11.174  65.959  1.00  0.00    -0.236 C  
BRANCH  11  14
HETATM   14  C   UNL     1     -11.254   9.979  69.457  1.00  0.00    -0.208 C  
BRANCH  14  15
HETATM   15  C   UNL     1     -11.987  11.084  70.263  1.00  0.00    -0.452 A  
HETATM   16  C   UNL     1     -12.780  10.762  71.374  1.00  0.00    -0.544 A  
HETATM   17  C   UNL     1     -11.833  12.455  69.960  1.00  0.00    -0.363 A  
HETATM   18  C   UNL     1     -13.379  11.765  72.155  1.00  0.00    -0.334 A  
HETATM   19  C   UNL     1     -13.193  13.105  71.834  1.00  0.00    -0.526 A  
HETATM   20  C   UNL     1     -12.422  13.453  70.734  1.00  0.00    -0.418 A  
ENDBRANCH  14  15
BRANCH  14  21
HETATM   21  C   UNL     1     -10.691   8.879  70.388  1.00  0.00    -0.261 A  
HETATM   22  C   UNL     1      -9.388   6.797  71.775  1.00  0.00    -0.147 A  
HETATM   23 CL   UNL     1      -8.532   5.497  72.504  1.00  0.00    -0.118 Cl 
HETATM   24  C   UNL     1     -10.588   6.549  71.123  1.00  0.00    -0.271 A  
HETATM   25  C   UNL     1      -9.517   9.122  71.127  1.00  0.00    -0.331 A  
HETATM   26  C   UNL     1     -11.246   7.589  70.460  1.00  0.00    -0.287 A  
HETATM   27  C   UNL     1      -8.871   8.087  71.817  1.00  0.00    -0.184 A  
ENDBRANCH  14  21
ENDBRANCH  11  14
ENDBRANCH   7   8
ENDBRANCH   6   7
ENDBRANCH   5   6
ENDBRANCH   3   5
TORSDOF 7
ENDMDL
MODEL       88
REMARK 921   NORMALIZED FREE ENERGY PREDICTED BY IDOCK:   -5.04 KCAL/MOL
REMARK 922        TOTAL FREE ENERGY PREDICTED BY IDOCK:   -8.14 KCAL/MOL
REMARK 923 INTER-LIGAND FREE ENERGY PREDICTED BY IDOCK:   -7.18 KCAL/MOL
REMARK 924 INTRA-LIGAND FREE ENERGY PREDICTED BY IDOCK:   -0.96 KCAL/MOL
REMARK 927      BINDING AFFINITY PREDICTED BY RF-SCORE:    0.00 PKD
ROOT
HETATM    1  O   UNL     1     -13.012  10.217  71.826  1.00  0.00    -0.410 OA 
HETATM    2  C   UNL     1     -13.161   8.876  71.995  1.00  0.00    -0.402 C  
HETATM    3  C   UNL     1     -11.827   8.153  72.054  1.00  0.00    -0.338 C  
HETATM    4  O   UNL     1     -14.254   8.339  72.096  1.00  0.00    -0.395 OA 
ENDROOT
BRANCH   3   5
HETATM    5  O   UNL     1     -10.762   9.103  71.877  1.00  0.00    -0.357 OA 
BRANCH   5   6
HETATM    6  C   UNL     1      -9.481   8.502  72.145  1.00  0.00    -0.305 C  
BRANCH   6   7
HETATM    7  C   UNL     1      -8.473   8.997  71.092  1.00  0.00    -0.177 C  
BRANCH   7   8
HETATM    8  N   UNL     1      -8.204   8.051  69.997  1.00  0.00    -0.116 NA 
HETATM    9  C   UNL     1      -9.414   7.510  69.345  1.00  0.00    -0.155 C  
HETATM   10  C   UNL     1     -10.199   8.491  68.428  1.00  0.00    -0.203 C  
HETATM   11  N   UNL     1      -9.376   9.286  67.498  1.00  0.00    -0.127 NA 
HETATM   12  C   UNL     1      -8.124   9.747  68.098  1.00  0.00    -0.108 C  
HETATM   13  C   UNL     1      -7.385   8.683  68.942  1.00  0.00    -0.082 C  
BRANCH  11  14
HETATM   14  C   UNL     1     -10.159  10.293  66.725  1.00  0.00    -0.216 C  
BRANCH  14  15
HETATM   15  C   UNL     1      -9.777  10.429  65.227  1.00  0.00    -0.339 A  
HETATM   16  C   UNL     1     -10.594  11.142  64.336  1.00  0.00    -0.411 A  
HETATM   17  C   UNL     1      -8.570   9.908  64.713  1.00  0.00    -0.191 A  
HETATM   18  C   UNL     1     -10.212  11.338  62.998  1.00  0.00    -0.293 A  
HETATM   19  C   UNL     1      -9.008  10.821  62.532  1.00  0.00    -0.344 A  
HETATM   20  C   UNL     1      -8.186  10.103  63.388  1.00  0.00    -0.164 A  
ENDBRANCH  14  15
BRANCH  14  21
HETATM   21  C   UNL     1     -10.369  11.677  67.383  1.00  0.00    -0.231 A  
HETATM   22  C   UNL     1     -11.089  14.234  68.332  1.00  0.00    -0.256 A  
HETATM   23 CL   UNL     1     -11.613  15.801  68.806  1.00  0.00    -0.385 Cl 
HETATM   24  C   UNL     1     -10.073  14.104  67.394  1.00  0.00    -0.240 A  
HETATM   25  C   UNL     1     -11.338  11.830  68.394  1.00  0.00    -0.328 A  
HETATM   26  C   UNL     1      -9.699  12.834  66.947  1.00  0.00    -0.234 A  
HETATM   27  C   UNL     1     -11.694  13.101  68.866  1.00  0.00    -0.368 A  
ENDBRANCH  14  21
ENDBRANCH  11  14
ENDBRANCH   7   8
ENDBRANCH   6   7
ENDBRANCH   5   6
ENDBRANCH   3   5
TORSDOF 7
ENDMDL
MODEL       89
REMARK 921   NORMALIZED FREE ENERGY PREDICTED BY IDOCK:   -5.03 KCAL/MOL
REMARK 922        TOTAL FREE ENERGY PREDICTED BY IDOCK:   -8.13 KCAL/MOL
REMARK 923 INTER-LIGAND FREE ENERGY PREDICTED BY IDOCK:   -6.94 KCAL/MOL
REMARK 924 INTRA-LIGAND FREE ENERGY PREDICTED BY IDOCK:   -1.19 KCAL/MOL
REMARK 927      BINDING AFFINITY PREDICTED BY RF-SCORE:    0.00 PKD
ROOT
HETATM    1  O   UNL     1      -6.439  11.206  68.611  1.00  0.00    -0.047 OA 
HETATM    2  C   UNL     1      -6.978  11.775  67.499  1.00  0.00    -0.113 C  
HETATM    3  C   UNL     1      -6.745  13.275  67.453  1.00  0.00    -0.073 C  
HETATM    4  O   UNL     1      -7.568  11.131  66.645  1.00  0.00    -0.139 OA 
ENDROOT
BRANCH   3   5
HETATM    5  O   UNL     1      -6.037  13.684  68.635  1.00  0.00    -0.078 OA 
BRANCH   5   6
HETATM    6  C   UNL     1      -5.529  15.025  68.497  1.00  0.00    -0.100 C  
BRANCH   6   7
HETATM    7  C   UNL     1      -6.424  15.793  67.507  1.00  0.00    -0.173 C  
BRANCH   7   8
HETATM    8  N   UNL     1      -7.088  16.982  68.065  1.00  0.00    -0.159 NA 
HETATM    9  C   UNL     1      -8.082  17.606  67.169  1.00  0.00    -0.215 C  
HETATM   10  C   UNL     1      -9.419  16.834  66.983  1.00  0.00    -0.232 C  
HETATM   11  N   UNL     1     -10.034  16.319  68.221  1.00  0.00    -0.231 NA 
HETATM   12  C   UNL     1      -9.050  15.788  69.164  1.00  0.00    -0.262 C  
HETATM   13  C   UNL     1      -7.781  16.656  69.328  1.00  0.00    -0.110 C  
BRANCH  11  14
HETATM   14  C   UNL     1     -11.249  15.489  67.980  1.00  0.00    -0.332 C  
BRANCH  14  15
HETATM   15  C   UNL     1     -11.775  14.703  69.210  1.00  0.00    -0.348 A  
HETATM   16  C   UNL     1     -12.386  15.367  70.284  1.00  0.00    -0.425 A  
HETATM   17  C   UNL     1     -11.729  13.293  69.271  1.00  0.00    -0.380 A  
HETATM   18  C   UNL     1     -12.937  14.654  71.361  1.00  0.00    -0.404 A  
HETATM   19  C   UNL     1     -12.885  13.265  71.380  1.00  0.00    -0.411 A  
HETATM   20  C   UNL     1     -12.277  12.581  70.336  1.00  0.00    -0.368 A  
ENDBRANCH  14  15
BRANCH  14  21
HETATM   21  C   UNL     1     -11.261  14.616  66.703  1.00  0.00    -0.349 A  
HETATM   22  C   UNL     1     -11.460  12.726  64.618  1.00  0.00    -0.324 A  
HETATM   23 CL   UNL     1     -11.610  11.482  63.441  1.00  0.00    -0.371 Cl 
HETATM   24  C   UNL     1     -10.248  12.914  65.268  1.00  0.00    -0.294 A  
HETATM   25  C   UNL     1     -12.456  14.463  65.972  1.00  0.00    -0.305 A  
HETATM   26  C   UNL     1     -10.145  13.871  66.281  1.00  0.00    -0.306 A  
HETATM   27  C   UNL     1     -12.553  13.525  64.935  1.00  0.00    -0.392 A  
ENDBRANCH  14  21
ENDBRANCH  11  14
ENDBRANCH   7   8
ENDBRANCH   6   7
ENDBRANCH   5   6
ENDBRANCH   3   5
TORSDOF 7
ENDMDL
MODEL       90
REMARK 921   NORMALIZED FREE ENERGY PREDICTED BY IDOCK:   -5.03 KCAL/MOL
REMARK 922        TOTAL FREE ENERGY PREDICTED BY IDOCK:   -8.12 KCAL/MOL
REMARK 923 INTER-LIGAND FREE ENERGY PREDICTED BY IDOCK:   -7.09 KCAL/MOL
REMARK 924 INTRA-LIGAND FREE ENERGY PREDICTED BY IDOCK:   -1.03 KCAL/MOL
REMARK 927      BINDING AFFINITY PREDICTED BY RF-SCORE:    0.00 PKD
ROOT
HETATM    1  O   UNL     1     -11.908  16.340  72.475  1.00  0.00    -0.516 OA 
HETATM    2  C   UNL     1     -13.043  15.692  72.097  1.00  0.00    -0.458 C  
HETATM    3  C   UNL     1     -12.924  15.090  70.709  1.00  0.00    -0.389 C  
HETATM    4  O   UNL     1     -14.028  15.608  72.816  1.00  0.00    -0.558 OA 
ENDROOT
BRANCH   3   5
HETATM    5  O   UNL     1     -11.635  15.410  70.159  1.00  0.00    -0.275 OA 
BRANCH   5   6
HETATM    6  C   UNL     1     -11.622  15.236  68.730  1.00  0.00    -0.362 C  
BRANCH   6   7
HETATM    7  C   UNL     1     -10.608  14.134  68.374  1.00  0.00    -0.259 C  
BRANCH   7   8
HETATM    8  N   UNL     1     -11.165  13.000  67.618  1.00  0.00    -0.266 NA 
HETATM    9  C   UNL     1     -10.153  12.109  67.016  1.00  0.00    -0.204 C  
HETATM   10  C   UNL     1      -9.375  11.189  67.999  1.00  0.00    -0.166 C  
HETATM   11  N   UNL     1     -10.199  10.493  69.005  1.00  0.00    -0.205 NA 
HETATM   12  C   UNL     1     -11.271  11.332  69.540  1.00  0.00    -0.272 C  
HETATM   13  C   UNL     1     -12.027  12.164  68.478  1.00  0.00    -0.217 C  
BRANCH  11  14
HETATM   14  C   UNL     1      -9.397   9.718  69.995  1.00  0.00    -0.235 C  
BRANCH  14  15
HETATM   15  C   UNL     1      -8.025   9.201  69.486  1.00  0.00    -0.098 A  
HETATM   16  C   UNL     1      -6.827   9.790  69.918  1.00  0.00    -0.085 A  
HETATM   17  C   UNL     1      -7.919   8.082  68.632  1.00  0.00    -0.123 A  
HETATM   18  C   UNL     1      -5.581   9.274  69.524  1.00  0.00    -0.034 A  
HETATM   19  C   UNL     1      -5.516   8.161  68.693  1.00  0.00    -0.032 A  
HETATM   20  C   UNL     1      -6.685   7.565  68.242  1.00  0.00    -0.058 A  
ENDBRANCH  14  15
BRANCH  14  21
HETATM   21  C   UNL     1     -10.143   8.634  70.809  1.00  0.00    -0.244 A  
HETATM   22  C   UNL     1     -11.142   6.441  72.275  1.00  0.00    -0.265 A  
HETATM   23 CL   UNL     1     -11.640   5.035  73.131  1.00  0.00    -0.373 Cl 
HETATM   24  C   UNL     1     -11.442   6.565  70.925  1.00  0.00    -0.408 A  
HETATM   25  C   UNL     1      -9.924   8.527  72.197  1.00  0.00    -0.387 A  
HETATM   26  C   UNL     1     -10.969   7.667  70.208  1.00  0.00    -0.261 A  
HETATM   27  C   UNL     1     -10.422   7.438  72.924  1.00  0.00    -0.344 A  
ENDBRANCH  14  21
ENDBRANCH  11  14
ENDBRANCH   7   8
ENDBRANCH   6   7
ENDBRANCH   5   6
ENDBRANCH   3   5
TORSDOF 7
ENDMDL
MODEL       91
REMARK 921   NORMALIZED FREE ENERGY PREDICTED BY IDOCK:   -5.02 KCAL/MOL
REMARK 922        TOTAL FREE ENERGY PREDICTED BY IDOCK:   -8.10 KCAL/MOL
REMARK 923 INTER-LIGAND FREE ENERGY PREDICTED BY IDOCK:   -7.19 KCAL/MOL
REMARK 924 INTRA-LIGAND FREE ENERGY PREDICTED BY IDOCK:   -0.91 KCAL/MOL
REMARK 927      BINDING AFFINITY PREDICTED BY RF-SCORE:    0.00 PKD
ROOT
HETATM    1  O   UNL     1      -9.697  19.823  65.803  1.00  0.00    -0.357 OA 
HETATM    2  C   UNL     1      -9.581  18.767  66.654  1.00  0.00    -0.336 C  
HETATM    3  C   UNL     1     -10.324  17.542  66.153  1.00  0.00    -0.329 C  
HETATM    4  O   UNL     1      -8.937  18.821  67.691  1.00  0.00    -0.276 OA 
ENDROOT
BRANCH   3   5
HETATM    5  O   UNL     1     -10.982  17.857  64.914  1.00  0.00    -0.827 OA 
BRANCH   5   6
HETATM    6  C   UNL     1     -11.621  16.694  64.355  1.00  0.00     0.396 C  
BRANCH   6   7
HETATM    7  C   UNL     1     -10.755  15.458  64.663  1.00  0.00    -0.187 C  
BRANCH   7   8
HETATM    8  N   UNL     1     -11.302  14.181  64.175  1.00  0.00    -0.201 NA 
HETATM    9  C   UNL     1     -10.431  13.013  64.412  1.00  0.00    -0.404 C  
HETATM   10  C   UNL     1     -10.333  12.514  65.882  1.00  0.00    -0.263 C  
HETATM   11  N   UNL     1     -11.616  12.406  66.602  1.00  0.00    -0.391 NA 
HETATM   12  C   UNL     1     -12.531  13.506  66.301  1.00  0.00    -0.326 C  
HETATM   13  C   UNL     1     -12.606  13.890  64.805  1.00  0.00    -0.295 C  
BRANCH  11  14
HETATM   14  C   UNL     1     -11.460  12.037  68.039  1.00  0.00    -0.328 C  
BRANCH  14  15
HETATM   15  C   UNL     1     -11.429  13.228  69.034  1.00  0.00    -0.350 A  
HETATM   16  C   UNL     1     -12.283  13.261  70.147  1.00  0.00    -0.376 A  
HETATM   17  C   UNL     1     -10.502  14.284  68.906  1.00  0.00    -0.241 A  
HETATM   18  C   UNL     1     -12.202  14.295  71.095  1.00  0.00    -0.431 A  
HETATM   19  C   UNL     1     -11.266  15.311  70.942  1.00  0.00    -0.367 A  
HETATM   20  C   UNL     1     -10.416  15.310  69.845  1.00  0.00    -0.277 A  
ENDBRANCH  14  15
BRANCH  14  21
HETATM   21  C   UNL     1     -10.380  10.984  68.382  1.00  0.00    -0.200 A  
HETATM   22  C   UNL     1      -8.635   8.995  69.360  1.00  0.00    -0.137 A  
HETATM   23 CL   UNL     1      -7.637   7.791  70.073  1.00  0.00    -0.084 Cl 
HETATM   24  C   UNL     1      -8.313  10.336  69.516  1.00  0.00    -0.162 A  
HETATM   25  C   UNL     1     -10.642   9.618  68.164  1.00  0.00    -0.273 A  
HETATM   26  C   UNL     1      -9.165  11.319  69.006  1.00  0.00     0.005 A  
HETATM   27  C   UNL     1      -9.774   8.630  68.649  1.00  0.00    -0.171 A  
ENDBRANCH  14  21
ENDBRANCH  11  14
ENDBRANCH   7   8
ENDBRANCH   6   7
ENDBRANCH   5   6
ENDBRANCH   3   5
TORSDOF 7
ENDMDL
MODEL       92
REMARK 921   NORMALIZED FREE ENERGY PREDICTED BY IDOCK:   -5.01 KCAL/MOL
REMARK 922        TOTAL FREE ENERGY PREDICTED BY IDOCK:   -8.10 KCAL/MOL
REMARK 923 INTER-LIGAND FREE ENERGY PREDICTED BY IDOCK:   -8.11 KCAL/MOL
REMARK 924 INTRA-LIGAND FREE ENERGY PREDICTED BY IDOCK:    0.01 KCAL/MOL
REMARK 927      BINDING AFFINITY PREDICTED BY RF-SCORE:    0.00 PKD
ROOT
HETATM    1  O   UNL     1      -7.250   8.113  63.372  1.00  0.00    -0.084 OA 
HETATM    2  C   UNL     1      -7.917   7.570  64.426  1.00  0.00    -0.117 C  
HETATM    3  C   UNL     1      -8.754   8.598  65.166  1.00  0.00    -0.144 C  
HETATM    4  O   UNL     1      -7.843   6.386  64.716  1.00  0.00    -0.099 OA 
ENDROOT
BRANCH   3   5
HETATM    5  O   UNL     1      -8.576   9.887  64.554  1.00  0.00    -0.157 OA 
BRANCH   5   6
HETATM    6  C   UNL     1      -9.680  10.761  64.857  1.00  0.00    -0.276 C  
BRANCH   6   7
HETATM    7  C   UNL     1      -9.287  11.661  66.043  1.00  0.00    -0.227 C  
BRANCH   7   8
HETATM    8  N   UNL     1      -9.841  13.024  65.997  1.00  0.00    -0.272 NA 
HETATM    9  C   UNL     1     -11.315  13.083  65.923  1.00  0.00    -0.313 C  
HETATM   10  C   UNL     1     -12.085  12.715  67.223  1.00  0.00    -0.114 C  
HETATM   11  N   UNL     1     -11.567  13.325  68.461  1.00  0.00    -0.310 NA 
HETATM   12  C   UNL     1     -10.106  13.365  68.507  1.00  0.00    -0.207 C  
HETATM   13  C   UNL     1      -9.433  13.801  67.185  1.00  0.00    -0.244 C  
BRANCH  11  14
HETATM   14  C   UNL     1     -12.264  12.851  69.693  1.00  0.00    -0.141 C  
BRANCH  14  15
HETATM   15  C   UNL     1     -12.375  13.891  70.839  1.00  0.00    -0.451 A  
HETATM   16  C   UNL     1     -11.410  14.897  70.998  1.00  0.00    -0.259 A  
HETATM   17  C   UNL     1     -13.478  13.915  71.721  1.00  0.00    -0.464 A  
HETATM   18  C   UNL     1     -11.550  15.888  71.983  1.00  0.00    -0.525 A  
HETATM   19  C   UNL     1     -12.657  15.887  72.825  1.00  0.00    -0.567 A  
HETATM   20  C   UNL     1     -13.622  14.898  72.697  1.00  0.00    -0.563 A  
ENDBRANCH  14  15
BRANCH  14  21
HETATM   21  C   UNL     1     -11.869  11.456  70.230  1.00  0.00    -0.438 A  
HETATM   22  C   UNL     1     -11.012   9.117  71.555  1.00  0.00    -0.364 A  
HETATM   23 CL   UNL     1     -10.427   7.771  72.451  1.00  0.00    -0.295 Cl 
HETATM   24  C   UNL     1     -10.214   9.689  70.573  1.00  0.00    -0.351 A  
HETATM   25  C   UNL     1     -12.695  10.809  71.170  1.00  0.00    -0.532 A  
HETATM   26  C   UNL     1     -10.653  10.831  69.899  1.00  0.00    -0.130 A  
HETATM   27  C   UNL     1     -12.269   9.646  71.827  1.00  0.00    -0.464 A  
ENDBRANCH  14  21
ENDBRANCH  11  14
ENDBRANCH   7   8
ENDBRANCH   6   7
ENDBRANCH   5   6
ENDBRANCH   3   5
TORSDOF 7
ENDMDL
MODEL       93
REMARK 921   NORMALIZED FREE ENERGY PREDICTED BY IDOCK:   -5.01 KCAL/MOL
REMARK 922        TOTAL FREE ENERGY PREDICTED BY IDOCK:   -8.09 KCAL/MOL
REMARK 923 INTER-LIGAND FREE ENERGY PREDICTED BY IDOCK:   -7.03 KCAL/MOL
REMARK 924 INTRA-LIGAND FREE ENERGY PREDICTED BY IDOCK:   -1.06 KCAL/MOL
REMARK 927      BINDING AFFINITY PREDICTED BY RF-SCORE:    0.00 PKD
ROOT
HETATM    1  O   UNL     1     -13.301  12.296  64.526  1.00  0.00    -0.769 OA 
HETATM    2  C   UNL     1     -11.955  12.323  64.334  1.00  0.00    -0.394 C  
HETATM    3  C   UNL     1     -11.187  12.124  65.628  1.00  0.00    -0.335 C  
HETATM    4  O   UNL     1     -11.446  12.479  63.234  1.00  0.00    -0.466 OA 
ENDROOT
BRANCH   3   5
HETATM    5  O   UNL     1     -12.115  11.995  66.718  1.00  0.00    -0.613 OA 
BRANCH   5   6
HETATM    6  C   UNL     1     -11.436  12.045  67.987  1.00  0.00    -0.328 C  
BRANCH   6   7
HETATM    7  C   UNL     1     -11.363  10.620  68.566  1.00  0.00    -0.284 C  
BRANCH   7   8
HETATM    8  N   UNL     1     -10.688  10.515  69.870  1.00  0.00    -0.266 NA 
HETATM    9  C   UNL     1     -11.410   9.703  70.870  1.00  0.00    -0.360 C  
HETATM   10  C   UNL     1     -11.405   8.165  70.641  1.00  0.00    -0.249 C  
HETATM   11  N   UNL     1     -10.097   7.580  70.291  1.00  0.00    -0.193 NA 
HETATM   12  C   UNL     1      -9.324   8.422  69.377  1.00  0.00    -0.154 C  
HETATM   13  C   UNL     1      -9.340   9.929  69.722  1.00  0.00    -0.221 C  
BRANCH  11  14
HETATM   14  C   UNL     1     -10.165   6.126  69.967  1.00  0.00    -0.196 C  
BRANCH  14  15
HETATM   15  C   UNL     1      -9.537   5.176  71.021  1.00  0.00    -0.229 A  
HETATM   16  C   UNL     1      -8.552   5.634  71.909  1.00  0.00    -0.131 A  
HETATM   17  C   UNL     1      -9.974   3.843  71.179  1.00  0.00    -0.169 A  
HETATM   18  C   UNL     1      -8.040   4.801  72.918  1.00  0.00    -0.101 A  
HETATM   19  C   UNL     1      -8.504   3.497  73.052  1.00  0.00    -0.082 A  
HETATM   20  C   UNL     1      -9.471   3.014  72.180  1.00  0.00    -0.196 A  
ENDBRANCH  14  15
BRANCH  14  21
HETATM   21  C   UNL     1      -9.780   5.707  68.528  1.00  0.00    -0.172 A  
HETATM   22  C   UNL     1      -9.271   4.579  65.993  1.00  0.00    -0.141 A  
HETATM   23 CL   UNL     1      -9.000   3.772  64.499  1.00  0.00    -0.119 Cl 
HETATM   24  C   UNL     1      -8.273   4.591  66.958  1.00  0.00    -0.102 A  
HETATM   25  C   UNL     1     -10.747   5.755  67.504  1.00  0.00    -0.320 A  
HETATM   26  C   UNL     1      -8.519   5.176  68.203  1.00  0.00    -0.099 A  
HETATM   27  C   UNL     1     -10.492   5.196  66.244  1.00  0.00    -0.341 A  
ENDBRANCH  14  21
ENDBRANCH  11  14
ENDBRANCH   7   8
ENDBRANCH   6   7
ENDBRANCH   5   6
ENDBRANCH   3   5
TORSDOF 7
ENDMDL
MODEL       94
REMARK 921   NORMALIZED FREE ENERGY PREDICTED BY IDOCK:   -5.00 KCAL/MOL
REMARK 922        TOTAL FREE ENERGY PREDICTED BY IDOCK:   -8.08 KCAL/MOL
REMARK 923 INTER-LIGAND FREE ENERGY PREDICTED BY IDOCK:   -7.09 KCAL/MOL
REMARK 924 INTRA-LIGAND FREE ENERGY PREDICTED BY IDOCK:   -1.00 KCAL/MOL
REMARK 927      BINDING AFFINITY PREDICTED BY RF-SCORE:    0.00 PKD
ROOT
HETATM    1  O   UNL     1      -9.816  16.095  67.405  1.00  0.00    -0.233 OA 
HETATM    2  C   UNL     1      -9.562  16.334  66.089  1.00  0.00    -0.331 C  
HETATM    3  C   UNL     1     -10.644  15.771  65.186  1.00  0.00    -0.411 C  
HETATM    4  O   UNL     1      -8.575  16.943  65.706  1.00  0.00    -0.505 OA 
ENDROOT
BRANCH   3   5
HETATM    5  O   UNL     1     -11.634  15.102  65.985  1.00  0.00    -0.236 OA 
BRANCH   5   6
HETATM    6  C   UNL     1     -12.072  13.883  65.356  1.00  0.00    -0.408 C  
BRANCH   6   7
HETATM    7  C   UNL     1     -11.949  12.731  66.370  1.00  0.00    -0.375 C  
BRANCH   7   8
HETATM    8  N   UNL     1     -10.997  12.969  67.467  1.00  0.00    -0.253 NA 
HETATM    9  C   UNL     1     -11.517  12.646  68.811  1.00  0.00    -0.306 C  
HETATM   10  C   UNL     1     -11.664  11.135  69.146  1.00  0.00    -0.338 C  
HETATM   11  N   UNL     1     -10.515  10.287  68.777  1.00  0.00    -0.191 NA 
HETATM   12  C   UNL     1      -9.925  10.659  67.492  1.00  0.00    -0.171 C  
HETATM   13  C   UNL     1      -9.762  12.182  67.275  1.00  0.00    -0.191 C  
BRANCH  11  14
HETATM   14  C   UNL     1     -10.751   8.833  69.010  1.00  0.00    -0.112 C  
BRANCH  14  15
HETATM   15  C   UNL     1     -10.802   8.394  70.497  1.00  0.00    -0.250 A  
HETATM   16  C   UNL     1     -11.577   7.295  70.900  1.00  0.00    -0.331 A  
HETATM   17  C   UNL     1     -10.025   9.029  71.490  1.00  0.00    -0.391 A  
HETATM   18  C   UNL     1     -11.562   6.845  72.230  1.00  0.00    -0.309 A  
HETATM   19  C   UNL     1     -10.773   7.487  73.178  1.00  0.00    -0.452 A  
HETATM   20  C   UNL     1     -10.004   8.583  72.810  1.00  0.00    -0.193 A  
ENDBRANCH  14  15
BRANCH  14  21
HETATM   21  C   UNL     1      -9.927   7.841  68.155  1.00  0.00    -0.207 A  
HETATM   22  C   UNL     1      -8.350   6.363  66.343  1.00  0.00    -0.119 A  
HETATM   23 CL   UNL     1      -7.397   5.567  65.153  1.00  0.00    -0.067 Cl 
HETATM   24  C   UNL     1      -9.735   6.286  66.278  1.00  0.00    -0.090 A  
HETATM   25  C   UNL     1      -8.521   7.836  68.252  1.00  0.00    -0.124 A  
HETATM   26  C   UNL     1     -10.513   6.998  67.195  1.00  0.00    -0.383 A  
HETATM   27  C   UNL     1      -7.739   7.100  67.352  1.00  0.00    -0.110 A  
ENDBRANCH  14  21
ENDBRANCH  11  14
ENDBRANCH   7   8
ENDBRANCH   6   7
ENDBRANCH   5   6
ENDBRANCH   3   5
TORSDOF 7
ENDMDL
MODEL       95
REMARK 921   NORMALIZED FREE ENERGY PREDICTED BY IDOCK:   -4.99 KCAL/MOL
REMARK 922        TOTAL FREE ENERGY PREDICTED BY IDOCK:   -8.07 KCAL/MOL
REMARK 923 INTER-LIGAND FREE ENERGY PREDICTED BY IDOCK:   -7.88 KCAL/MOL
REMARK 924 INTRA-LIGAND FREE ENERGY PREDICTED BY IDOCK:   -0.19 KCAL/MOL
REMARK 927      BINDING AFFINITY PREDICTED BY RF-SCORE:    0.00 PKD
ROOT
HETATM    1  O   UNL     1     -11.051  17.647  64.722  1.00  0.00    -0.915 OA 
HETATM    2  C   UNL     1     -10.312  17.812  65.852  1.00  0.00    -0.254 C  
HETATM    3  C   UNL     1     -10.296  16.563  66.714  1.00  0.00    -0.296 C  
HETATM    4  O   UNL     1      -9.729  18.853  66.115  1.00  0.00    -0.402 OA 
ENDROOT
BRANCH   3   5
HETATM    5  O   UNL     1     -11.109  15.549  66.100  1.00  0.00    -0.286 OA 
BRANCH   5   6
HETATM    6  C   UNL     1     -10.306  14.437  65.660  1.00  0.00    -0.342 C  
BRANCH   6   7
HETATM    7  C   UNL     1      -9.997  13.539  66.873  1.00  0.00    -0.256 C  
BRANCH   7   8
HETATM    8  N   UNL     1      -9.075  12.425  66.600  1.00  0.00    -0.215 NA 
HETATM    9  C   UNL     1      -8.415  11.869  67.799  1.00  0.00    -0.154 C  
HETATM   10  C   UNL     1      -9.310  11.017  68.743  1.00  0.00    -0.179 C  
HETATM   11  N   UNL     1     -10.175  10.027  68.076  1.00  0.00    -0.171 NA 
HETATM   12  C   UNL     1     -10.758  10.528  66.832  1.00  0.00    -0.219 C  
HETATM   13  C   UNL     1      -9.776  11.310  65.930  1.00  0.00    -0.224 C  
BRANCH  11  14
HETATM   14  C   UNL     1     -11.097   9.318  69.011  1.00  0.00     0.052 C  
BRANCH  14  15
HETATM   15  C   UNL     1     -11.815  10.218  70.051  1.00  0.00    -0.305 A  
HETATM   16  C   UNL     1     -11.903  11.606  69.867  1.00  0.00    -0.434 A  
HETATM   17  C   UNL     1     -12.466   9.679  71.182  1.00  0.00    -0.421 A  
HETATM   18  C   UNL     1     -12.622  12.414  70.763  1.00  0.00    -0.298 A  
HETATM   19  C   UNL     1     -13.262  11.845  71.858  1.00  0.00    -0.467 A  
HETATM   20  C   UNL     1     -13.183  10.476  72.072  1.00  0.00    -0.483 A  
ENDBRANCH  14  15
BRANCH  14  21
HETATM   21  C   UNL     1     -10.576   8.012  69.656  1.00  0.00    -0.223 A  
HETATM   22  C   UNL     1      -9.957   5.666  71.095  1.00  0.00    -0.190 A  
HETATM   23 CL   UNL     1      -9.670   4.276  72.065  1.00  0.00    -0.216 Cl 
HETATM   24  C   UNL     1      -9.275   6.845  71.366  1.00  0.00    -0.156 A  
HETATM   25  C   UNL     1     -11.194   6.784  69.345  1.00  0.00    -0.288 A  
HETATM   26  C   UNL     1      -9.564   7.998  70.632  1.00  0.00    -0.172 A  
HETATM   27  C   UNL     1     -10.884   5.619  70.060  1.00  0.00    -0.366 A  
ENDBRANCH  14  21
ENDBRANCH  11  14
ENDBRANCH   7   8
ENDBRANCH   6   7
ENDBRANCH   5   6
ENDBRANCH   3   5
TORSDOF 7
ENDMDL
MODEL       96
REMARK 921   NORMALIZED FREE ENERGY PREDICTED BY IDOCK:   -4.98 KCAL/MOL
REMARK 922        TOTAL FREE ENERGY PREDICTED BY IDOCK:   -8.05 KCAL/MOL
REMARK 923 INTER-LIGAND FREE ENERGY PREDICTED BY IDOCK:   -7.59 KCAL/MOL
REMARK 924 INTRA-LIGAND FREE ENERGY PREDICTED BY IDOCK:   -0.46 KCAL/MOL
REMARK 927      BINDING AFFINITY PREDICTED BY RF-SCORE:    0.00 PKD
ROOT
HETATM    1  O   UNL     1      -9.784  20.565  67.142  1.00  0.00    -0.441 OA 
HETATM    2  C   UNL     1      -8.642  19.838  67.274  1.00  0.00    -0.321 C  
HETATM    3  C   UNL     1      -8.711  18.520  66.525  1.00  0.00    -0.286 C  
HETATM    4  O   UNL     1      -7.680  20.229  67.918  1.00  0.00    -0.287 OA 
ENDROOT
BRANCH   3   5
HETATM    5  O   UNL     1     -10.001  18.392  65.903  1.00  0.00    -0.526 OA 
BRANCH   5   6
HETATM    6  C   UNL     1     -10.439  17.020  65.896  1.00  0.00    -0.274 C  
BRANCH   6   7
HETATM    7  C   UNL     1      -9.631  16.237  66.947  1.00  0.00    -0.232 C  
BRANCH   7   8
HETATM    8  N   UNL     1     -10.207  16.241  68.301  1.00  0.00    -0.245 NA 
HETATM    9  C   UNL     1     -11.617  15.804  68.368  1.00  0.00    -0.338 C  
HETATM   10  C   UNL     1     -11.877  14.285  68.164  1.00  0.00    -0.339 C  
HETATM   11  N   UNL     1     -10.980  13.381  68.908  1.00  0.00    -0.256 NA 
HETATM   12  C   UNL     1      -9.595  13.852  68.936  1.00  0.00     0.028 C  
HETATM   13  C   UNL     1      -9.435  15.365  69.207  1.00  0.00    -0.261 C  
BRANCH  11  14
HETATM   14  C   UNL     1     -11.192  11.940  68.589  1.00  0.00    -0.257 C  
BRANCH  14  15
HETATM   15  C   UNL     1     -11.672  11.057  69.772  1.00  0.00    -0.410 A  
HETATM   16  C   UNL     1     -12.468  11.593  70.795  1.00  0.00    -0.425 A  
HETATM   17  C   UNL     1     -11.393   9.675  69.833  1.00  0.00    -0.200 A  
HETATM   18  C   UNL     1     -12.973  10.780  71.824  1.00  0.00    -0.568 A  
HETATM   19  C   UNL     1     -12.688   9.420  71.844  1.00  0.00    -0.484 A  
HETATM   20  C   UNL     1     -11.895   8.864  70.850  1.00  0.00    -0.283 A  
ENDBRANCH  14  15
BRANCH  14  21
HETATM   21  C   UNL     1     -10.088  11.232  67.767  1.00  0.00    -0.199 A  
HETATM   22  C   UNL     1      -8.327   9.601  66.286  1.00  0.00    -0.116 A  
HETATM   23 CL   UNL     1      -7.329   8.501  65.420  1.00  0.00    -0.083 Cl 
HETATM   24  C   UNL     1      -8.094   9.824  67.636  1.00  0.00    -0.113 A  
HETATM   25  C   UNL     1     -10.255  11.056  66.379  1.00  0.00    -0.284 A  
HETATM   26  C   UNL     1      -8.952  10.655  68.361  1.00  0.00    -0.149 A  
HETATM   27  C   UNL     1      -9.378  10.247  65.644  1.00  0.00    -0.241 A  
ENDBRANCH  14  21
ENDBRANCH  11  14
ENDBRANCH   7   8
ENDBRANCH   6   7
ENDBRANCH   5   6
ENDBRANCH   3   5
TORSDOF 7
ENDMDL
MODEL       97
REMARK 921   NORMALIZED FREE ENERGY PREDICTED BY IDOCK:   -4.93 KCAL/MOL
REMARK 922        TOTAL FREE ENERGY PREDICTED BY IDOCK:   -7.98 KCAL/MOL
REMARK 923 INTER-LIGAND FREE ENERGY PREDICTED BY IDOCK:   -7.46 KCAL/MOL
REMARK 924 INTRA-LIGAND FREE ENERGY PREDICTED BY IDOCK:   -0.52 KCAL/MOL
REMARK 927      BINDING AFFINITY PREDICTED BY RF-SCORE:    0.00 PKD
ROOT
HETATM    1  O   UNL     1      -8.349   7.609  65.267  1.00  0.00    -0.139 OA 
HETATM    2  C   UNL     1      -7.475   6.804  65.931  1.00  0.00    -0.081 C  
HETATM    3  C   UNL     1      -8.177   5.883  66.912  1.00  0.00    -0.105 C  
HETATM    4  O   UNL     1      -6.269   6.831  65.734  1.00  0.00    -0.036 OA 
ENDROOT
BRANCH   3   5
HETATM    5  O   UNL     1      -9.590   6.148  66.888  1.00  0.00    -0.132 OA 
BRANCH   5   6
HETATM    6  C   UNL     1     -10.046   6.645  68.161  1.00  0.00    -0.158 C  
BRANCH   6   7
HETATM    7  C   UNL     1     -10.304   8.158  68.037  1.00  0.00    -0.211 C  
BRANCH   7   8
HETATM    8  N   UNL     1      -9.273   9.014  68.647  1.00  0.00    -0.137 NA 
HETATM    9  C   UNL     1      -8.808  10.120  67.786  1.00  0.00    -0.125 C  
HETATM   10  C   UNL     1      -9.800  11.300  67.587  1.00  0.00    -0.175 C  
HETATM   11  N   UNL     1     -10.459  11.790  68.812  1.00  0.00    -0.214 NA 
HETATM   12  C   UNL     1     -10.837  10.711  69.724  1.00  0.00    -0.261 C  
HETATM   13  C   UNL     1      -9.761   9.615  69.905  1.00  0.00    -0.231 C  
BRANCH  11  14
HETATM   14  C   UNL     1     -11.486  12.841  68.555  1.00  0.00    -0.309 C  
BRANCH  14  15
HETATM   15  C   UNL     1     -11.280  13.674  67.263  1.00  0.00    -0.329 A  
HETATM   16  C   UNL     1     -12.267  13.715  66.266  1.00  0.00    -0.484 A  
HETATM   17  C   UNL     1     -10.135  14.476  67.065  1.00  0.00    -0.254 A  
HETATM   18  C   UNL     1     -12.120  14.532  65.132  1.00  0.00    -0.363 A  
HETATM   19  C   UNL     1     -10.984  15.319  64.979  1.00  0.00    -0.450 A  
HETATM   20  C   UNL     1      -9.987  15.290  65.944  1.00  0.00    -0.368 A  
ENDBRANCH  14  15
BRANCH  14  21
HETATM   21  C   UNL     1     -11.887  13.739  69.750  1.00  0.00    -0.394 A  
HETATM   22  C   UNL     1     -12.263  15.237  72.110  1.00  0.00    -0.380 A  
HETATM   23 CL   UNL     1     -12.394  16.077  73.604  1.00  0.00    -0.627 Cl 
HETATM   24  C   UNL     1     -12.949  14.043  71.931  1.00  0.00    -0.444 A  
HETATM   25  C   UNL     1     -11.268  14.993  69.920  1.00  0.00    -0.303 A  
HETATM   26  C   UNL     1     -12.782  13.317  70.749  1.00  0.00    -0.284 A  
HETATM   27  C   UNL     1     -11.457  15.737  71.093  1.00  0.00    -0.466 A  
ENDBRANCH  14  21
ENDBRANCH  11  14
ENDBRANCH   7   8
ENDBRANCH   6   7
ENDBRANCH   5   6
ENDBRANCH   3   5
TORSDOF 7
ENDMDL
MODEL       98
REMARK 921   NORMALIZED FREE ENERGY PREDICTED BY IDOCK:   -4.92 KCAL/MOL
REMARK 922        TOTAL FREE ENERGY PREDICTED BY IDOCK:   -7.96 KCAL/MOL
REMARK 923 INTER-LIGAND FREE ENERGY PREDICTED BY IDOCK:   -6.99 KCAL/MOL
REMARK 924 INTRA-LIGAND FREE ENERGY PREDICTED BY IDOCK:   -0.97 KCAL/MOL
REMARK 927      BINDING AFFINITY PREDICTED BY RF-SCORE:    0.00 PKD
ROOT
HETATM    1  O   UNL     1      -8.857   6.046  73.173  1.00  0.00    -0.129 OA 
HETATM    2  C   UNL     1      -9.448   7.157  73.690  1.00  0.00    -0.224 C  
HETATM    3  C   UNL     1     -10.893   7.297  73.244  1.00  0.00    -0.358 C  
HETATM    4  O   UNL     1      -8.865   7.932  74.433  1.00  0.00    -0.174 OA 
ENDROOT
BRANCH   3   5
HETATM    5  O   UNL     1     -11.225   6.215  72.358  1.00  0.00    -0.257 OA 
BRANCH   5   6
HETATM    6  C   UNL     1     -11.966   6.688  71.217  1.00  0.00    -0.355 C  
BRANCH   6   7
HETATM    7  C   UNL     1     -11.318   7.990  70.711  1.00  0.00    -0.272 C  
BRANCH   7   8
HETATM    8  N   UNL     1     -10.002   7.819  70.074  1.00  0.00    -0.185 NA 
HETATM    9  C   UNL     1     -10.055   7.359  68.672  1.00  0.00    -0.179 C  
HETATM   10  C   UNL     1     -10.530   8.403  67.622  1.00  0.00    -0.239 C  
HETATM   11  N   UNL     1      -9.927   9.744  67.743  1.00  0.00    -0.160 NA 
HETATM   12  C   UNL     1      -9.775  10.175  69.133  1.00  0.00    -0.215 C  
HETATM   13  C   UNL     1      -9.240   9.085  70.090  1.00  0.00    -0.192 C  
BRANCH  11  14
HETATM   14  C   UNL     1     -10.499  10.740  66.792  1.00  0.00    -0.251 C  
BRANCH  14  15
HETATM   15  C   UNL     1      -9.966  10.656  65.337  1.00  0.00    -0.343 A  
HETATM   16  C   UNL     1     -10.635  11.300  64.285  1.00  0.00    -0.422 A  
HETATM   17  C   UNL     1      -8.759   9.995  65.021  1.00  0.00    -0.192 A  
HETATM   18  C   UNL     1     -10.112  11.296  62.981  1.00  0.00    -0.327 A  
HETATM   19  C   UNL     1      -8.913  10.645  62.710  1.00  0.00    -0.290 A  
HETATM   20  C   UNL     1      -8.235   9.991  63.729  1.00  0.00    -0.161 A  
ENDBRANCH  14  15
BRANCH  14  21
HETATM   21  C   UNL     1     -10.589  12.206  67.278  1.00  0.00    -0.255 A  
HETATM   22  C   UNL     1     -10.971  14.950  67.808  1.00  0.00    -0.293 A  
HETATM   23 CL   UNL     1     -11.246  16.636  68.004  1.00  0.00    -0.251 Cl 
HETATM   24  C   UNL     1      -9.761  14.507  67.291  1.00  0.00    -0.232 A  
HETATM   25  C   UNL     1     -11.775  12.671  67.879  1.00  0.00    -0.412 A  
HETATM   26  C   UNL     1      -9.565  13.143  67.055  1.00  0.00    -0.241 A  
HETATM   27  C   UNL     1     -11.963  14.035  68.144  1.00  0.00    -0.382 A  
ENDBRANCH  14  21
ENDBRANCH  11  14
ENDBRANCH   7   8
ENDBRANCH   6   7
ENDBRANCH   5   6
ENDBRANCH   3   5
TORSDOF 7
ENDMDL
MODEL       99
REMARK 921   NORMALIZED FREE ENERGY PREDICTED BY IDOCK:   -4.91 KCAL/MOL
REMARK 922        TOTAL FREE ENERGY PREDICTED BY IDOCK:   -7.96 KCAL/MOL
REMARK 923 INTER-LIGAND FREE ENERGY PREDICTED BY IDOCK:   -7.14 KCAL/MOL
REMARK 924 INTRA-LIGAND FREE ENERGY PREDICTED BY IDOCK:   -0.82 KCAL/MOL
REMARK 927      BINDING AFFINITY PREDICTED BY RF-SCORE:    0.00 PKD
ROOT
HETATM    1  O   UNL     1      -7.738  18.555  65.582  1.00  0.00    -0.509 OA 
HETATM    2  C   UNL     1      -8.471  18.782  66.705  1.00  0.00    -0.287 C  
HETATM    3  C   UNL     1      -9.668  17.855  66.806  1.00  0.00    -0.314 C  
HETATM    4  O   UNL     1      -8.172  19.634  67.529  1.00  0.00    -0.280 OA 
ENDROOT
BRANCH   3   5
HETATM    5  O   UNL     1      -9.711  17.004  65.648  1.00  0.00    -0.543 OA 
BRANCH   5   6
HETATM    6  C   UNL     1      -9.463  15.631  66.004  1.00  0.00    -0.355 C  
BRANCH   6   7
HETATM    7  C   UNL     1     -10.731  15.052  66.658  1.00  0.00    -0.312 C  
BRANCH   7   8
HETATM    8  N   UNL     1     -10.641  14.851  68.114  1.00  0.00    -0.241 NA 
HETATM    9  C   UNL     1     -11.775  14.110  68.701  1.00  0.00    -0.350 C  
HETATM   10  C   UNL     1     -11.830  12.585  68.402  1.00  0.00    -0.304 C  
HETATM   11  N   UNL     1     -10.554  11.862  68.558  1.00  0.00    -0.216 NA 
HETATM   12  C   UNL     1      -9.405  12.624  68.071  1.00  0.00    -0.209 C  
HETATM   13  C   UNL     1      -9.409  14.118  68.471  1.00  0.00    -0.191 C  
BRANCH  11  14
HETATM   14  C   UNL     1     -10.630  10.429  68.148  1.00  0.00    -0.211 C  
BRANCH  14  15
HETATM   15  C   UNL     1     -10.673   9.403  69.310  1.00  0.00    -0.228 A  
HETATM   16  C   UNL     1     -10.847   8.034  69.058  1.00  0.00    -0.020 A  
HETATM   17  C   UNL     1     -10.468   9.787  70.653  1.00  0.00    -0.358 A  
HETATM   18  C   UNL     1     -10.804   7.092  70.100  1.00  0.00    -0.279 A  
HETATM   19  C   UNL     1     -10.587   7.507  71.409  1.00  0.00    -0.229 A  
HETATM   20  C   UNL     1     -10.422   8.856  71.689  1.00  0.00    -0.408 A  
ENDBRANCH  14  15
BRANCH  14  21
HETATM   21  C   UNL     1      -9.676   9.969  67.021  1.00  0.00    -0.227 A  
HETATM   22  C   UNL     1      -7.765   9.516  64.996  1.00  0.00    -0.114 A  
HETATM   23 CL   UNL     1      -6.575   9.373  63.763  1.00  0.00    -0.093 Cl 
HETATM   24  C   UNL     1      -9.073   9.833  64.655  1.00  0.00    -0.294 A  
HETATM   25  C   UNL     1      -8.364   9.566  67.337  1.00  0.00    -0.125 A  
HETATM   26  C   UNL     1     -10.024  10.030  65.659  1.00  0.00    -0.355 A  
HETATM   27  C   UNL     1      -7.415   9.339  66.330  1.00  0.00    -0.093 A  
ENDBRANCH  14  21
ENDBRANCH  11  14
ENDBRANCH   7   8
ENDBRANCH   6   7
ENDBRANCH   5   6
ENDBRANCH   3   5
TORSDOF 7
ENDMDL
MODEL      100
REMARK 921   NORMALIZED FREE ENERGY PREDICTED BY IDOCK:   -4.90 KCAL/MOL
REMARK 922        TOTAL FREE ENERGY PREDICTED BY IDOCK:   -7.93 KCAL/MOL
REMARK 923 INTER-LIGAND FREE ENERGY PREDICTED BY IDOCK:   -6.83 KCAL/MOL
REMARK 924 INTRA-LIGAND FREE ENERGY PREDICTED BY IDOCK:   -1.10 KCAL/MOL
REMARK 927      BINDING AFFINITY PREDICTED BY RF-SCORE:    0.00 PKD
ROOT
HETATM    1  O   UNL     1      -7.769  17.931  66.057  1.00  0.00    -0.437 OA 
HETATM    2  C   UNL     1      -8.633  17.902  67.108  1.00  0.00    -0.235 C  
HETATM    3  C   UNL     1      -9.957  17.257  66.744  1.00  0.00    -0.301 C  
HETATM    4  O   UNL     1      -8.346  18.342  68.212  1.00  0.00    -0.285 OA 
ENDROOT
BRANCH   3   5
HETATM    5  O   UNL     1      -9.940  16.882  65.356  1.00  0.00    -0.568 OA 
BRANCH   5   6
HETATM    6  C   UNL     1     -10.675  15.662  65.139  1.00  0.00    -0.443 C  
BRANCH   6   7
HETATM    7  C   UNL     1     -11.093  15.087  66.505  1.00  0.00    -0.329 C  
BRANCH   7   8
HETATM    8  N   UNL     1     -12.057  13.976  66.441  1.00  0.00    -0.438 NA 
HETATM    9  C   UNL     1     -11.907  13.104  65.258  1.00  0.00    -0.365 C  
HETATM   10  C   UNL     1     -10.676  12.155  65.254  1.00  0.00    -0.288 C  
HETATM   11  N   UNL     1     -10.429  11.429  66.514  1.00  0.00    -0.240 NA 
HETATM   12  C   UNL     1     -10.669  12.251  67.700  1.00  0.00    -0.220 C  
HETATM   13  C   UNL     1     -11.951  13.114  67.636  1.00  0.00    -0.315 C  
BRANCH  11  14
HETATM   14  C   UNL     1      -9.173  10.625  66.500  1.00  0.00    -0.166 C  
BRANCH  14  15
HETATM   15  C   UNL     1      -9.366   9.085  66.501  1.00  0.00    -0.246 A  
HETATM   16  C   UNL     1     -10.448   8.494  67.170  1.00  0.00    -0.370 A  
HETATM   17  C   UNL     1      -8.511   8.225  65.779  1.00  0.00    -0.164 A  
HETATM   18  C   UNL     1     -10.672   7.108  67.107  1.00  0.00    -0.422 A  
HETATM   19  C   UNL     1      -9.816   6.294  66.373  1.00  0.00    -0.128 A  
HETATM   20  C   UNL     1      -8.731   6.851  65.710  1.00  0.00    -0.120 A  
ENDBRANCH  14  15
BRANCH  14  21
HETATM   21  C   UNL     1      -8.051  11.056  67.473  1.00  0.00    -0.117 A  
HETATM   22  C   UNL     1      -6.296  12.094  69.423  1.00  0.00    -0.116 A  
HETATM   23 CL   UNL     1      -5.320  12.820  70.638  1.00  0.00    -0.142 Cl 
HETATM   24  C   UNL     1      -6.263  12.591  68.127  1.00  0.00    -0.072 A  
HETATM   25  C   UNL     1      -8.006  10.513  68.773  1.00  0.00    -0.127 A  
HETATM   26  C   UNL     1      -7.114  12.055  67.156  1.00  0.00    -0.130 A  
HETATM   27  C   UNL     1      -7.133  11.029  69.740  1.00  0.00    -0.052 A  
ENDBRANCH  14  21
ENDBRANCH  11  14
ENDBRANCH   7   8
ENDBRANCH   6   7
ENDBRANCH   5   6
ENDBRANCH   3   5
TORSDOF 7
ENDMDL
MODEL      101
REMARK 921   NORMALIZED FREE ENERGY PREDICTED BY IDOCK:   -4.89 KCAL/MOL
REMARK 922        TOTAL FREE ENERGY PREDICTED BY IDOCK:   -7.93 KCAL/MOL
REMARK 923 INTER-LIGAND FREE ENERGY PREDICTED BY IDOCK:   -6.99 KCAL/MOL
REMARK 924 INTRA-LIGAND FREE ENERGY PREDICTED BY IDOCK:   -0.94 KCAL/MOL
REMARK 927      BINDING AFFINITY PREDICTED BY RF-SCORE:    0.00 PKD
ROOT
HETATM    1  O   UNL     1      -5.537  17.144  69.321  1.00  0.00    -0.162 OA 
HETATM    2  C   UNL     1      -5.354  16.168  68.391  1.00  0.00    -0.103 C  
HETATM    3  C   UNL     1      -5.181  16.733  66.993  1.00  0.00    -0.119 C  
HETATM    4  O   UNL     1      -5.324  14.980  68.676  1.00  0.00    -0.086 OA 
ENDROOT
BRANCH   3   5
HETATM    5  O   UNL     1      -5.296  18.165  67.041  1.00  0.00    -0.130 OA 
BRANCH   5   6
HETATM    6  C   UNL     1      -6.281  18.638  66.102  1.00  0.00    -0.189 C  
BRANCH   6   7
HETATM    7  C   UNL     1      -7.590  17.859  66.324  1.00  0.00    -0.280 C  
BRANCH   7   8
HETATM    8  N   UNL     1      -8.560  18.517  67.215  1.00  0.00    -0.259 NA 
HETATM    9  C   UNL     1      -9.907  18.689  66.634  1.00  0.00    -0.354 C  
HETATM   10  C   UNL     1     -10.767  17.401  66.499  1.00  0.00    -0.086 C  
HETATM   11  N   UNL     1     -10.781  16.520  67.682  1.00  0.00    -0.329 NA 
HETATM   12  C   UNL     1      -9.474  16.417  68.329  1.00  0.00    -0.217 C  
HETATM   13  C   UNL     1      -8.720  17.760  68.473  1.00  0.00    -0.283 C  
BRANCH  11  14
HETATM   14  C   UNL     1     -11.523  15.244  67.463  1.00  0.00    -0.265 C  
BRANCH  14  15
HETATM   15  C   UNL     1     -11.869  14.443  68.747  1.00  0.00    -0.360 A  
HETATM   16  C   UNL     1     -12.345  15.092  69.896  1.00  0.00    -0.314 A  
HETATM   17  C   UNL     1     -11.788  13.035  68.793  1.00  0.00    -0.355 A  
HETATM   18  C   UNL     1     -12.737  14.365  71.031  1.00  0.00    -0.416 A  
HETATM   19  C   UNL     1     -12.657  12.977  71.035  1.00  0.00    -0.386 A  
HETATM   20  C   UNL     1     -12.179  12.309  69.916  1.00  0.00    -0.234 A  
ENDBRANCH  14  15
BRANCH  14  21
HETATM   21  C   UNL     1     -11.006  14.315  66.339  1.00  0.00    -0.311 A  
HETATM   22  C   UNL     1     -10.319  12.327  64.458  1.00  0.00    -0.311 A  
HETATM   23 CL   UNL     1      -9.963  11.027  63.392  1.00  0.00    -0.389 Cl 
HETATM   24  C   UNL     1      -9.474  12.590  65.528  1.00  0.00     0.044 A  
HETATM   25  C   UNL     1     -11.804  14.085  65.200  1.00  0.00    -0.370 A  
HETATM   26  C   UNL     1      -9.803  13.594  66.442  1.00  0.00    -0.302 A  
HETATM   27  C   UNL     1     -11.461  13.099  64.266  1.00  0.00    -0.428 A  
ENDBRANCH  14  21
ENDBRANCH  11  14
ENDBRANCH   7   8
ENDBRANCH   6   7
ENDBRANCH   5   6
ENDBRANCH   3   5
TORSDOF 7
ENDMDL
MODEL      102
REMARK 921   NORMALIZED FREE ENERGY PREDICTED BY IDOCK:   -4.89 KCAL/MOL
REMARK 922        TOTAL FREE ENERGY PREDICTED BY IDOCK:   -7.92 KCAL/MOL
REMARK 923 INTER-LIGAND FREE ENERGY PREDICTED BY IDOCK:   -6.83 KCAL/MOL
REMARK 924 INTRA-LIGAND FREE ENERGY PREDICTED BY IDOCK:   -1.09 KCAL/MOL
REMARK 927      BINDING AFFINITY PREDICTED BY RF-SCORE:    0.00 PKD
ROOT
HETATM    1  O   UNL     1     -12.028  14.343  68.706  1.00  0.00    -0.319 OA 
HETATM    2  C   UNL     1     -11.990  13.084  69.221  1.00  0.00    -0.278 C  
HETATM    3  C   UNL     1     -11.749  12.034  68.151  1.00  0.00    -0.333 C  
HETATM    4  O   UNL     1     -12.126  12.852  70.413  1.00  0.00    -0.361 OA 
ENDROOT
BRANCH   3   5
HETATM    5  O   UNL     1     -11.662  12.674  66.866  1.00  0.00    -0.355 OA 
BRANCH   5   6
HETATM    6  C   UNL     1     -10.740  11.981  66.004  1.00  0.00    -0.279 C  
BRANCH   6   7
HETATM    7  C   UNL     1      -9.637  11.343  66.869  1.00  0.00    -0.185 C  
BRANCH   7   8
HETATM    8  N   UNL     1      -8.902  10.243  66.223  1.00  0.00    -0.144 NA 
HETATM    9  C   UNL     1      -7.774   9.713  67.015  1.00  0.00    -0.095 C  
HETATM   10  C   UNL     1      -8.148   8.855  68.257  1.00  0.00    -0.109 C  
HETATM   11  N   UNL     1      -9.196   7.841  68.036  1.00  0.00    -0.138 NA 
HETATM   12  C   UNL     1     -10.274   8.317  67.171  1.00  0.00    -0.295 C  
HETATM   13  C   UNL     1      -9.800   9.107  65.929  1.00  0.00    -0.235 C  
BRANCH  11  14
HETATM   14  C   UNL     1      -9.602   7.126  69.281  1.00  0.00    -0.155 C  
BRANCH  14  15
HETATM   15  C   UNL     1      -9.568   5.577  69.203  1.00  0.00    -0.189 A  
HETATM   16  C   UNL     1      -9.718   4.912  67.977  1.00  0.00    -0.202 A  
HETATM   17  C   UNL     1      -9.316   4.777  70.339  1.00  0.00    -0.216 A  
HETATM   18  C   UNL     1      -9.606   3.514  67.889  1.00  0.00    -0.177 A  
HETATM   19  C   UNL     1      -9.343   2.761  69.028  1.00  0.00    -0.211 A  
HETATM   20  C   UNL     1      -9.201   3.391  70.257  1.00  0.00    -0.226 A  
ENDBRANCH  14  15
BRANCH  14  21
HETATM   21  C   UNL     1     -10.878   7.629  69.996  1.00  0.00    -0.250 A  
HETATM   22  C   UNL     1     -12.981   8.513  71.655  1.00  0.00    -0.343 A  
HETATM   23 CL   UNL     1     -14.189   9.011  72.773  1.00  0.00    -0.301 Cl 
HETATM   24  C   UNL     1     -12.956   7.198  71.212  1.00  0.00    -0.378 A  
HETATM   25  C   UNL     1     -10.973   8.977  70.392  1.00  0.00    -0.283 A  
HETATM   26  C   UNL     1     -11.928   6.770  70.367  1.00  0.00    -0.343 A  
HETATM   27  C   UNL     1     -12.019   9.416  71.215  1.00  0.00    -0.430 A  
ENDBRANCH  14  21
ENDBRANCH  11  14
ENDBRANCH   7   8
ENDBRANCH   6   7
ENDBRANCH   5   6
ENDBRANCH   3   5
TORSDOF 7
ENDMDL
MODEL      103
REMARK 921   NORMALIZED FREE ENERGY PREDICTED BY IDOCK:   -4.85 KCAL/MOL
REMARK 922        TOTAL FREE ENERGY PREDICTED BY IDOCK:   -7.87 KCAL/MOL
REMARK 923 INTER-LIGAND FREE ENERGY PREDICTED BY IDOCK:   -6.91 KCAL/MOL
REMARK 924 INTRA-LIGAND FREE ENERGY PREDICTED BY IDOCK:   -0.96 KCAL/MOL
REMARK 927      BINDING AFFINITY PREDICTED BY RF-SCORE:    0.00 PKD
ROOT
HETATM    1  O   UNL     1     -11.378   9.946  70.883  1.00  0.00    -0.316 OA 
HETATM    2  C   UNL     1     -12.407   9.681  71.733  1.00  0.00    -0.392 C  
HETATM    3  C   UNL     1     -13.269  10.904  71.987  1.00  0.00    -0.351 C  
HETATM    4  O   UNL     1     -12.599   8.575  72.215  1.00  0.00    -0.359 OA 
ENDROOT
BRANCH   3   5
HETATM    5  O   UNL     1     -12.727  12.027  71.272  1.00  0.00    -0.375 OA 
BRANCH   5   6
HETATM    6  C   UNL     1     -13.240  13.269  71.790  1.00  0.00    -0.405 C  
BRANCH   6   7
HETATM    7  C   UNL     1     -12.120  14.325  71.745  1.00  0.00    -0.139 C  
BRANCH   7   8
HETATM    8  N   UNL     1     -12.308  15.385  70.741  1.00  0.00    -0.364 NA 
HETATM    9  C   UNL     1     -11.097  16.182  70.459  1.00  0.00    -0.322 C  
HETATM   10  C   UNL     1      -9.984  15.474  69.635  1.00  0.00    -0.284 C  
HETATM   11  N   UNL     1     -10.447  14.730  68.449  1.00  0.00    -0.238 NA 
HETATM   12  C   UNL     1     -11.701  14.014  68.683  1.00  0.00    -0.354 C  
HETATM   13  C   UNL     1     -12.769  14.821  69.456  1.00  0.00     0.133 C  
BRANCH  11  14
HETATM   14  C   UNL     1      -9.361  13.974  67.761  1.00  0.00    -0.205 C  
BRANCH  14  15
HETATM   15  C   UNL     1      -8.029  14.745  67.567  1.00  0.00    -0.207 A  
HETATM   16  C   UNL     1      -7.981  15.922  66.804  1.00  0.00    -0.287 A  
HETATM   17  C   UNL     1      -6.833  14.342  68.199  1.00  0.00    -0.126 A  
HETATM   18  C   UNL     1      -6.796  16.668  66.693  1.00  0.00    -0.219 A  
HETATM   19  C   UNL     1      -5.641  16.247  67.342  1.00  0.00    -0.158 A  
HETATM   20  C   UNL     1      -5.656  15.080  68.094  1.00  0.00    -0.131 A  
ENDBRANCH  14  15
BRANCH  14  21
HETATM   21  C   UNL     1      -9.751  13.187  66.488  1.00  0.00    -0.268 A  
HETATM   22  C   UNL     1     -10.074  11.849  64.025  1.00  0.00    -0.334 A  
HETATM   23 CL   UNL     1     -10.157  11.094  62.483  1.00  0.00     0.007 Cl 
HETATM   24  C   UNL     1     -10.612  13.116  64.200  1.00  0.00    -0.384 A  
HETATM   25  C   UNL     1      -9.287  11.868  66.311  1.00  0.00    -0.234 A  
HETATM   26  C   UNL     1     -10.475  13.765  65.430  1.00  0.00    -0.342 A  
HETATM   27  C   UNL     1      -9.449  11.204  65.088  1.00  0.00    -0.257 A  
ENDBRANCH  14  21
ENDBRANCH  11  14
ENDBRANCH   7   8
ENDBRANCH   6   7
ENDBRANCH   5   6
ENDBRANCH   3   5
TORSDOF 7
ENDMDL
MODEL      104
REMARK 921   NORMALIZED FREE ENERGY PREDICTED BY IDOCK:   -4.84 KCAL/MOL
REMARK 922        TOTAL FREE ENERGY PREDICTED BY IDOCK:   -7.85 KCAL/MOL
REMARK 923 INTER-LIGAND FREE ENERGY PREDICTED BY IDOCK:   -7.10 KCAL/MOL
REMARK 924 INTRA-LIGAND FREE ENERGY PREDICTED BY IDOCK:   -0.75 KCAL/MOL
REMARK 927      BINDING AFFINITY PREDICTED BY RF-SCORE:    0.00 PKD
ROOT
HETATM    1  O   UNL     1     -11.123   9.601  71.025  1.00  0.00    -0.314 OA 
HETATM    2  C   UNL     1     -12.188   9.094  71.704  1.00  0.00    -0.361 C  
HETATM    3  C   UNL     1     -13.297  10.116  71.875  1.00  0.00    -0.402 C  
HETATM    4  O   UNL     1     -12.227   7.942  72.109  1.00  0.00    -0.309 OA 
ENDROOT
BRANCH   3   5
HETATM    5  O   UNL     1     -12.890  11.365  71.291  1.00  0.00    -0.403 OA 
BRANCH   5   6
HETATM    6  C   UNL     1     -13.468  12.480  71.995  1.00  0.00    -0.387 C  
BRANCH   6   7
HETATM    7  C   UNL     1     -12.480  13.661  71.949  1.00  0.00    -0.052 C  
BRANCH   7   8
HETATM    8  N   UNL     1     -13.075  14.951  71.564  1.00  0.00    -0.330 NA 
HETATM    9  C   UNL     1     -12.284  16.133  71.963  1.00  0.00    -0.453 C  
HETATM   10  C   UNL     1     -10.978  16.390  71.159  1.00  0.00     0.297 C  
HETATM   11  N   UNL     1     -11.101  16.274  69.694  1.00  0.00    -0.336 NA 
HETATM   12  C   UNL     1     -11.964  15.167  69.282  1.00  0.00    -0.292 C  
HETATM   13  C   UNL     1     -13.268  15.028  70.101  1.00  0.00     0.130 C  
BRANCH  11  14
HETATM   14  C   UNL     1      -9.802  16.414  68.975  1.00  0.00    -0.266 C  
BRANCH  14  15
HETATM   15  C   UNL     1      -9.678  17.654  68.052  1.00  0.00    -0.301 A  
HETATM   16  C   UNL     1     -10.759  18.531  67.872  1.00  0.00    -0.337 A  
HETATM   17  C   UNL     1      -8.465  17.992  67.414  1.00  0.00    -0.240 A  
HETATM   18  C   UNL     1     -10.627  19.699  67.103  1.00  0.00    -0.611 A  
HETATM   19  C   UNL     1      -9.412  20.006  66.501  1.00  0.00    -0.518 A  
HETATM   20  C   UNL     1      -8.329  19.152  66.652  1.00  0.00    -0.309 A  
ENDBRANCH  14  15
BRANCH  14  21
HETATM   21  C   UNL     1      -9.233  15.145  68.297  1.00  0.00    -0.188 A  
HETATM   22  C   UNL     1      -8.483  12.619  67.290  1.00  0.00    -0.193 A  
HETATM   23 CL   UNL     1      -8.100  11.024  66.774  1.00  0.00    -0.144 Cl 
HETATM   24  C   UNL     1      -7.732  13.214  68.294  1.00  0.00    -0.141 A  
HETATM   25  C   UNL     1      -9.928  14.556  67.222  1.00  0.00    -0.236 A  
HETATM   26  C   UNL     1      -8.090  14.478  68.772  1.00  0.00    -0.146 A  
HETATM   27  C   UNL     1      -9.553  13.301  66.722  1.00  0.00    -0.258 A  
ENDBRANCH  14  21
ENDBRANCH  11  14
ENDBRANCH   7   8
ENDBRANCH   6   7
ENDBRANCH   5   6
ENDBRANCH   3   5
TORSDOF 7
ENDMDL
MODEL      105
REMARK 921   NORMALIZED FREE ENERGY PREDICTED BY IDOCK:   -4.82 KCAL/MOL
REMARK 922        TOTAL FREE ENERGY PREDICTED BY IDOCK:   -7.83 KCAL/MOL
REMARK 923 INTER-LIGAND FREE ENERGY PREDICTED BY IDOCK:   -7.69 KCAL/MOL
REMARK 924 INTRA-LIGAND FREE ENERGY PREDICTED BY IDOCK:   -0.14 KCAL/MOL
REMARK 927      BINDING AFFINITY PREDICTED BY RF-SCORE:    0.00 PKD
ROOT
HETATM    1  O   UNL     1      -7.980   4.612  67.138  1.00  0.00    -0.100 OA 
HETATM    2  C   UNL     1      -7.930   3.657  68.106  1.00  0.00    -0.071 C  
HETATM    3  C   UNL     1      -8.933   3.913  69.216  1.00  0.00    -0.116 C  
HETATM    4  O   UNL     1      -7.163   2.707  68.059  1.00  0.00    -0.048 OA 
ENDROOT
BRANCH   3   5
HETATM    5  O   UNL     1      -9.644   5.133  68.945  1.00  0.00    -0.125 OA 
BRANCH   5   6
HETATM    6  C   UNL     1     -10.536   5.465  70.026  1.00  0.00    -0.303 C  
BRANCH   6   7
HETATM    7  C   UNL     1     -10.876   6.965  69.943  1.00  0.00    -0.257 C  
BRANCH   7   8
HETATM    8  N   UNL     1      -9.849   7.864  70.495  1.00  0.00    -0.185 NA 
HETATM    9  C   UNL     1      -9.194   8.731  69.495  1.00  0.00    -0.149 C  
HETATM   10  C   UNL     1     -10.049   9.902  68.934  1.00  0.00    -0.184 C  
HETATM   11  N   UNL     1     -10.796  10.681  69.939  1.00  0.00    -0.264 NA 
HETATM   12  C   UNL     1     -11.369   9.846  70.994  1.00  0.00    -0.386 C  
HETATM   13  C   UNL     1     -10.422   8.748  71.531  1.00  0.00    -0.303 C  
BRANCH  11  14
HETATM   14  C   UNL     1     -11.690  11.716  69.343  1.00  0.00    -0.340 C  
BRANCH  14  15
HETATM   15  C   UNL     1     -11.191  12.347  68.016  1.00  0.00    -0.317 A  
HETATM   16  C   UNL     1      -9.986  13.064  67.966  1.00  0.00    -0.233 A  
HETATM   17  C   UNL     1     -11.883  12.169  66.798  1.00  0.00    -0.304 A  
HETATM   18  C   UNL     1      -9.490  13.567  66.752  1.00  0.00    -0.272 A  
HETATM   19  C   UNL     1     -10.193  13.360  65.570  1.00  0.00    -0.300 A  
HETATM   20  C   UNL     1     -11.393  12.663  65.591  1.00  0.00    -0.357 A  
ENDBRANCH  14  15
BRANCH  14  21
HETATM   21  C   UNL     1     -12.259  12.789  70.301  1.00  0.00    -0.351 A  
HETATM   22  C   UNL     1     -12.939  14.695  72.267  1.00  0.00    -0.355 A  
HETATM   23 CL   UNL     1     -13.249  15.810  73.538  1.00  0.00    -0.629 Cl 
HETATM   24  C   UNL     1     -13.468  13.413  72.333  1.00  0.00    -0.685 A  
HETATM   25  C   UNL     1     -11.802  14.119  70.212  1.00  0.00    -0.373 A  
HETATM   26  C   UNL     1     -13.153  12.480  71.342  1.00  0.00    -0.303 A  
HETATM   27  C   UNL     1     -12.142  15.065  71.189  1.00  0.00    -0.375 A  
ENDBRANCH  14  21
ENDBRANCH  11  14
ENDBRANCH   7   8
ENDBRANCH   6   7
ENDBRANCH   5   6
ENDBRANCH   3   5
TORSDOF 7
ENDMDL
MODEL      106
REMARK 921   NORMALIZED FREE ENERGY PREDICTED BY IDOCK:   -4.80 KCAL/MOL
REMARK 922        TOTAL FREE ENERGY PREDICTED BY IDOCK:   -7.80 KCAL/MOL
REMARK 923 INTER-LIGAND FREE ENERGY PREDICTED BY IDOCK:   -6.98 KCAL/MOL
REMARK 924 INTRA-LIGAND FREE ENERGY PREDICTED BY IDOCK:   -0.81 KCAL/MOL
REMARK 927      BINDING AFFINITY PREDICTED BY RF-SCORE:    0.00 PKD
ROOT
HETATM    1  O   UNL     1      -8.204  11.319  62.330  1.00  0.00    -0.185 OA 
HETATM    2  C   UNL     1      -9.266  10.989  63.115  1.00  0.00    -0.302 C  
HETATM    3  C   UNL     1      -9.093   9.630  63.770  1.00  0.00    -0.178 C  
HETATM    4  O   UNL     1     -10.230  11.724  63.267  1.00  0.00    -0.412 OA 
ENDROOT
BRANCH   3   5
HETATM    5  O   UNL     1      -7.850   9.049  63.342  1.00  0.00    -0.125 OA 
BRANCH   5   6
HETATM    6  C   UNL     1      -7.175   8.403  64.438  1.00  0.00    -0.087 C  
BRANCH   6   7
HETATM    7  C   UNL     1      -7.510   9.156  65.739  1.00  0.00    -0.090 C  
BRANCH   7   8
HETATM    8  N   UNL     1      -7.409   8.349  66.966  1.00  0.00    -0.083 NA 
HETATM    9  C   UNL     1      -6.858   9.072  68.130  1.00  0.00    -0.069 C  
HETATM   10  C   UNL     1      -7.792  10.125  68.791  1.00  0.00    -0.098 C  
HETATM   11  N   UNL     1      -9.182   9.689  69.016  1.00  0.00    -0.150 NA 
HETATM   12  C   UNL     1      -9.711   8.885  67.914  1.00  0.00    -0.160 C  
HETATM   13  C   UNL     1      -8.731   7.823  67.364  1.00  0.00    -0.128 C  
BRANCH  11  14
HETATM   14  C   UNL     1     -10.066  10.769  69.542  1.00  0.00    -0.084 C  
BRANCH  14  15
HETATM   15  C   UNL     1     -11.183  10.305  70.514  1.00  0.00    -0.408 A  
HETATM   16  C   UNL     1     -12.298  11.116  70.773  1.00  0.00    -0.504 A  
HETATM   17  C   UNL     1     -11.162   9.030  71.121  1.00  0.00    -0.375 A  
HETATM   18  C   UNL     1     -13.350  10.666  71.588  1.00  0.00    -0.407 A  
HETATM   19  C   UNL     1     -13.301   9.398  72.157  1.00  0.00    -0.545 A  
HETATM   20  C   UNL     1     -12.205   8.578  71.927  1.00  0.00    -0.411 A  
ENDBRANCH  14  15
BRANCH  14  21
HETATM   21  C   UNL     1     -10.599  11.801  68.520  1.00  0.00    -0.242 A  
HETATM   22  C   UNL     1     -11.238  13.573  66.420  1.00  0.00    -0.307 A  
HETATM   23 CL   UNL     1     -11.504  14.629  65.089  1.00  0.00    -0.362 Cl 
HETATM   24  C   UNL     1     -10.601  14.049  67.558  1.00  0.00    -0.260 A  
HETATM   25  C   UNL     1     -11.318  11.361  67.391  1.00  0.00    -0.359 A  
HETATM   26  C   UNL     1     -10.311  13.175  68.608  1.00  0.00    -0.207 A  
HETATM   27  C   UNL     1     -11.636  12.242  66.349  1.00  0.00    -0.445 A  
ENDBRANCH  14  21
ENDBRANCH  11  14
ENDBRANCH   7   8
ENDBRANCH   6   7
ENDBRANCH   5   6
ENDBRANCH   3   5
TORSDOF 7
ENDMDL
MODEL      107
REMARK 921   NORMALIZED FREE ENERGY PREDICTED BY IDOCK:   -4.78 KCAL/MOL
REMARK 922        TOTAL FREE ENERGY PREDICTED BY IDOCK:   -7.77 KCAL/MOL
REMARK 923 INTER-LIGAND FREE ENERGY PREDICTED BY IDOCK:   -6.93 KCAL/MOL
REMARK 924 INTRA-LIGAND FREE ENERGY PREDICTED BY IDOCK:   -0.84 KCAL/MOL
REMARK 927      BINDING AFFINITY PREDICTED BY RF-SCORE:    0.00 PKD
ROOT
HETATM    1  O   UNL     1     -11.611  16.180  72.376  1.00  0.00    -0.443 OA 
HETATM    2  C   UNL     1     -12.940  15.892  72.353  1.00  0.00    -0.433 C  
HETATM    3  C   UNL     1     -13.382  15.334  71.012  1.00  0.00    -0.474 C  
HETATM    4  O   UNL     1     -13.672  16.062  73.317  1.00  0.00    -0.561 OA 
ENDROOT
BRANCH   3   5
HETATM    5  O   UNL     1     -12.258  15.297  70.117  1.00  0.00    -0.329 OA 
BRANCH   5   6
HETATM    6  C   UNL     1     -12.142  14.010  69.481  1.00  0.00    -0.347 C  
BRANCH   6   7
HETATM    7  C   UNL     1     -10.816  13.961  68.700  1.00  0.00    -0.262 C  
BRANCH   7   8
HETATM    8  N   UNL     1     -10.934  13.502  67.307  1.00  0.00    -0.276 NA 
HETATM    9  C   UNL     1      -9.643  13.287  66.622  1.00  0.00    -0.262 C  
HETATM   10  C   UNL     1      -8.832  12.035  67.061  1.00  0.00    -0.197 C  
HETATM   11  N   UNL     1      -9.608  10.788  67.187  1.00  0.00    -0.160 NA 
HETATM   12  C   UNL     1     -10.931  10.999  67.773  1.00  0.00    -0.269 C  
HETATM   13  C   UNL     1     -11.686  12.233  67.229  1.00  0.00    -0.324 C  
BRANCH  11  14
HETATM   14  C   UNL     1      -8.812   9.645  67.722  1.00  0.00    -0.125 C  
BRANCH  14  15
HETATM   15  C   UNL     1      -8.375   8.587  66.675  1.00  0.00    -0.112 A  
HETATM   16  C   UNL     1      -8.716   8.726  65.321  1.00  0.00    -0.216 A  
HETATM   17  C   UNL     1      -7.564   7.484  67.021  1.00  0.00    -0.103 A  
HETATM   18  C   UNL     1      -8.254   7.815  64.358  1.00  0.00    -0.041 A  
HETATM   19  C   UNL     1      -7.445   6.749  64.734  1.00  0.00    -0.096 A  
HETATM   20  C   UNL     1      -7.100   6.580  66.068  1.00  0.00    -0.063 A  
ENDBRANCH  14  15
BRANCH  14  21
HETATM   21  C   UNL     1      -9.325   8.978  69.020  1.00  0.00    -0.140 A  
HETATM   22  C   UNL     1     -10.592   8.023  71.353  1.00  0.00    -0.216 A  
HETATM   23 CL   UNL     1     -11.447   7.546  72.766  1.00  0.00    -0.368 Cl 
HETATM   24  C   UNL     1      -9.553   8.938  71.455  1.00  0.00    -0.359 A  
HETATM   25  C   UNL     1     -10.325   7.988  68.950  1.00  0.00    -0.222 A  
HETATM   26  C   UNL     1      -8.909   9.388  70.300  1.00  0.00    -0.269 A  
HETATM   27  C   UNL     1     -10.952   7.513  70.110  1.00  0.00    -0.267 A  
ENDBRANCH  14  21
ENDBRANCH  11  14
ENDBRANCH   7   8
ENDBRANCH   6   7
ENDBRANCH   5   6
ENDBRANCH   3   5
TORSDOF 7
ENDMDL
MODEL      108
REMARK 921   NORMALIZED FREE ENERGY PREDICTED BY IDOCK:   -4.78 KCAL/MOL
REMARK 922        TOTAL FREE ENERGY PREDICTED BY IDOCK:   -7.76 KCAL/MOL
REMARK 923 INTER-LIGAND FREE ENERGY PREDICTED BY IDOCK:   -7.15 KCAL/MOL
REMARK 924 INTRA-LIGAND FREE ENERGY PREDICTED BY IDOCK:   -0.62 KCAL/MOL
REMARK 927      BINDING AFFINITY PREDICTED BY RF-SCORE:    0.00 PKD
ROOT
HETATM    1  O   UNL     1     -11.575   3.518  73.614  1.00  0.00    -0.157 OA 
HETATM    2  C   UNL     1     -10.278   3.928  73.643  1.00  0.00    -0.149 C  
HETATM    3  C   UNL     1     -10.097   5.300  73.018  1.00  0.00    -0.176 C  
HETATM    4  O   UNL     1      -9.382   3.256  74.131  1.00  0.00    -0.091 OA 
ENDROOT
BRANCH   3   5
HETATM    5  O   UNL     1     -11.364   5.774  72.533  1.00  0.00    -0.282 OA 
BRANCH   5   6
HETATM    6  C   UNL     1     -11.223   6.406  71.247  1.00  0.00    -0.292 C  
BRANCH   6   7
HETATM    7  C   UNL     1     -12.214   7.582  71.162  1.00  0.00    -0.301 C  
BRANCH   7   8
HETATM    8  N   UNL     1     -11.788   8.804  71.862  1.00  0.00    -0.341 NA 
HETATM    9  C   UNL     1     -10.334   9.058  71.819  1.00  0.00    -0.337 C  
HETATM   10  C   UNL     1      -9.758   9.531  70.454  1.00  0.00    -0.271 C  
HETATM   11  N   UNL     1     -10.527  10.588  69.772  1.00  0.00    -0.232 NA 
HETATM   12  C   UNL     1     -11.973  10.405  69.890  1.00  0.00    -0.215 C  
HETATM   13  C   UNL     1     -12.457   9.996  71.301  1.00  0.00    -0.392 C  
BRANCH  11  14
HETATM   14  C   UNL     1     -10.002  10.924  68.417  1.00  0.00    -0.178 C  
BRANCH  14  15
HETATM   15  C   UNL     1     -10.787  12.021  67.649  1.00  0.00    -0.273 A  
HETATM   16  C   UNL     1     -11.257  11.794  66.347  1.00  0.00    -0.382 A  
HETATM   17  C   UNL     1     -11.121  13.256  68.246  1.00  0.00    -0.294 A  
HETATM   18  C   UNL     1     -12.037  12.753  65.680  1.00  0.00    -0.514 A  
HETATM   19  C   UNL     1     -12.358  13.953  66.305  1.00  0.00    -0.489 A  
HETATM   20  C   UNL     1     -11.897  14.208  67.589  1.00  0.00    -0.427 A  
ENDBRANCH  14  15
BRANCH  14  21
HETATM   21  C   UNL     1      -9.634   9.739  67.492  1.00  0.00    -0.178 A  
HETATM   22  C   UNL     1      -8.844   7.381  66.161  1.00  0.00    -0.160 A  
HETATM   23 CL   UNL     1      -8.304   5.905  65.464  1.00  0.00    -0.140 Cl 
HETATM   24  C   UNL     1      -7.999   8.483  66.178  1.00  0.00    -0.102 A  
HETATM   25  C   UNL     1     -10.505   8.637  67.389  1.00  0.00    -0.351 A  
HETATM   26  C   UNL     1      -8.405   9.659  66.815  1.00  0.00    -0.117 A  
HETATM   27  C   UNL     1     -10.112   7.466  66.726  1.00  0.00    -0.305 A  
ENDBRANCH  14  21
ENDBRANCH  11  14
ENDBRANCH   7   8
ENDBRANCH   6   7
ENDBRANCH   5   6
ENDBRANCH   3   5
TORSDOF 7
ENDMDL
MODEL      109
REMARK 921   NORMALIZED FREE ENERGY PREDICTED BY IDOCK:   -4.77 KCAL/MOL
REMARK 922        TOTAL FREE ENERGY PREDICTED BY IDOCK:   -7.75 KCAL/MOL
REMARK 923 INTER-LIGAND FREE ENERGY PREDICTED BY IDOCK:   -6.52 KCAL/MOL
REMARK 924 INTRA-LIGAND FREE ENERGY PREDICTED BY IDOCK:   -1.24 KCAL/MOL
REMARK 927      BINDING AFFINITY PREDICTED BY RF-SCORE:    0.00 PKD
ROOT
HETATM    1  O   UNL     1      -8.084  11.083  62.355  1.00  0.00    -0.198 OA 
HETATM    2  C   UNL     1      -9.249  10.693  62.940  1.00  0.00    -0.305 C  
HETATM    3  C   UNL     1      -9.094   9.401  63.720  1.00  0.00    -0.026 C  
HETATM    4  O   UNL     1     -10.285  11.334  62.842  1.00  0.00    -0.265 OA 
ENDROOT
BRANCH   3   5
HETATM    5  O   UNL     1      -7.743   8.925  63.592  1.00  0.00    -0.117 OA 
BRANCH   5   6
HETATM    6  C   UNL     1      -7.199   8.556  64.873  1.00  0.00    -0.084 C  
BRANCH   6   7
HETATM    7  C   UNL     1      -7.589   9.630  65.904  1.00  0.00    -0.103 C  
BRANCH   7   8
HETATM    8  N   UNL     1      -7.881   9.118  67.253  1.00  0.00    -0.099 NA 
HETATM    9  C   UNL     1      -7.424   9.991  68.352  1.00  0.00    -0.082 C  
HETATM   10  C   UNL     1      -8.235  11.299  68.575  1.00  0.00    -0.150 C  
HETATM   11  N   UNL     1      -9.702  11.147  68.560  1.00  0.00    -0.190 NA 
HETATM   12  C   UNL     1     -10.166  10.207  67.540  1.00  0.00    -0.211 C  
HETATM   13  C   UNL     1      -9.332   8.908  67.435  1.00  0.00    -0.136 C  
BRANCH  11  14
HETATM   14  C   UNL     1     -10.435  12.442  68.660  1.00  0.00    -0.204 C  
BRANCH  14  15
HETATM   15  C   UNL     1     -11.538  12.504  69.749  1.00  0.00    -0.291 A  
HETATM   16  C   UNL     1     -12.060  11.332  70.315  1.00  0.00    -0.459 A  
HETATM   17  C   UNL     1     -12.011  13.731  70.264  1.00  0.00    -0.397 A  
HETATM   18  C   UNL     1     -13.000  11.384  71.358  1.00  0.00    -0.468 A  
HETATM   19  C   UNL     1     -13.431  12.612  71.849  1.00  0.00    -0.424 A  
HETATM   20  C   UNL     1     -12.940  13.788  71.301  1.00  0.00    -0.409 A  
ENDBRANCH  14  15
BRANCH  14  21
HETATM   21  C   UNL     1     -10.910  13.085  67.335  1.00  0.00    -0.269 A  
HETATM   22  C   UNL     1     -11.806  14.615  65.141  1.00  0.00    -0.351 A  
HETATM   23 CL   UNL     1     -12.382  15.646  63.892  1.00  0.00     0.068 Cl 
HETATM   24  C   UNL     1     -12.699  13.810  65.834  1.00  0.00    -0.452 A  
HETATM   25  C   UNL     1     -10.009  13.846  66.564  1.00  0.00    -0.288 A  
HETATM   26  C   UNL     1     -12.247  13.031  66.903  1.00  0.00    -0.233 A  
HETATM   27  C   UNL     1     -10.455  14.605  65.474  1.00  0.00    -0.374 A  
ENDBRANCH  14  21
ENDBRANCH  11  14
ENDBRANCH   7   8
ENDBRANCH   6   7
ENDBRANCH   5   6
ENDBRANCH   3   5
TORSDOF 7
ENDMDL
MODEL      110
REMARK 921   NORMALIZED FREE ENERGY PREDICTED BY IDOCK:   -4.76 KCAL/MOL
REMARK 922        TOTAL FREE ENERGY PREDICTED BY IDOCK:   -7.75 KCAL/MOL
REMARK 923 INTER-LIGAND FREE ENERGY PREDICTED BY IDOCK:   -7.19 KCAL/MOL
REMARK 924 INTRA-LIGAND FREE ENERGY PREDICTED BY IDOCK:   -0.56 KCAL/MOL
REMARK 927      BINDING AFFINITY PREDICTED BY RF-SCORE:    0.00 PKD
ROOT
HETATM    1  O   UNL     1     -10.587   4.560  65.879  1.00  0.00    -0.277 OA 
HETATM    2  C   UNL     1      -9.473   4.026  66.452  1.00  0.00    -0.191 C  
HETATM    3  C   UNL     1      -9.232   4.567  67.849  1.00  0.00    -0.131 C  
HETATM    4  O   UNL     1      -8.772   3.199  65.889  1.00  0.00    -0.117 OA 
ENDROOT
BRANCH   3   5
HETATM    5  O   UNL     1     -10.246   5.535  68.168  1.00  0.00    -0.166 OA 
BRANCH   5   6
HETATM    6  C   UNL     1     -10.149   5.954  69.542  1.00  0.00    -0.203 C  
BRANCH   6   7
HETATM    7  C   UNL     1     -10.231   7.491  69.597  1.00  0.00    -0.205 C  
BRANCH   7   8
HETATM    8  N   UNL     1      -9.160   8.194  68.872  1.00  0.00    -0.147 NA 
HETATM    9  C   UNL     1      -9.507   8.575  67.487  1.00  0.00    -0.149 C  
HETATM   10  C   UNL     1     -10.513   9.751  67.329  1.00  0.00    -0.261 C  
HETATM   11  N   UNL     1     -10.254  10.927  68.179  1.00  0.00    -0.170 NA 
HETATM   12  C   UNL     1      -9.812  10.568  69.527  1.00  0.00    -0.142 C  
HETATM   13  C   UNL     1      -8.766   9.430  69.579  1.00  0.00    -0.161 C  
BRANCH  11  14
HETATM   14  C   UNL     1     -11.308  11.977  68.077  1.00  0.00    -0.296 C  
BRANCH  14  15
HETATM   15  C   UNL     1     -11.453  12.645  66.685  1.00  0.00    -0.409 A  
HETATM   16  C   UNL     1     -12.610  13.363  66.345  1.00  0.00    -0.160 A  
HETATM   17  C   UNL     1     -10.411  12.622  65.733  1.00  0.00    -0.298 A  
HETATM   18  C   UNL     1     -12.713  14.038  65.118  1.00  0.00    -0.419 A  
HETATM   19  C   UNL     1     -11.659  14.004  64.211  1.00  0.00    -0.348 A  
HETATM   20  C   UNL     1     -10.507  13.293  64.516  1.00  0.00    -0.434 A  
ENDBRANCH  14  15
BRANCH  14  21
HETATM   21  C   UNL     1     -11.372  13.023  69.216  1.00  0.00    -0.310 A  
HETATM   22  C   UNL     1     -11.866  15.031  71.134  1.00  0.00    -0.333 A  
HETATM   23 CL   UNL     1     -12.271  16.296  72.226  1.00  0.00    -0.545 Cl 
HETATM   24  C   UNL     1     -11.046  15.300  70.046  1.00  0.00    -0.303 A  
HETATM   25  C   UNL     1     -12.131  12.753  70.371  1.00  0.00    -0.382 A  
HETATM   26  C   UNL     1     -10.781  14.294  69.113  1.00  0.00    -0.239 A  
HETATM   27  C   UNL     1     -12.375  13.751  71.324  1.00  0.00    -0.394 A  
ENDBRANCH  14  21
ENDBRANCH  11  14
ENDBRANCH   7   8
ENDBRANCH   6   7
ENDBRANCH   5   6
ENDBRANCH   3   5
TORSDOF 7
ENDMDL
MODEL      111
REMARK 921   NORMALIZED FREE ENERGY PREDICTED BY IDOCK:   -4.75 KCAL/MOL
REMARK 922        TOTAL FREE ENERGY PREDICTED BY IDOCK:   -7.73 KCAL/MOL
REMARK 923 INTER-LIGAND FREE ENERGY PREDICTED BY IDOCK:   -6.71 KCAL/MOL
REMARK 924 INTRA-LIGAND FREE ENERGY PREDICTED BY IDOCK:   -1.02 KCAL/MOL
REMARK 927      BINDING AFFINITY PREDICTED BY RF-SCORE:    0.00 PKD
ROOT
HETATM    1  O   UNL     1      -9.760  10.809  62.533  1.00  0.00    -0.240 OA 
HETATM    2  C   UNL     1      -9.465  10.310  63.764  1.00  0.00    -0.300 C  
HETATM    3  C   UNL     1     -10.364  10.883  64.845  1.00  0.00    -0.304 C  
HETATM    4  O   UNL     1      -8.579   9.489  63.950  1.00  0.00    -0.186 OA 
ENDROOT
BRANCH   3   5
HETATM    5  O   UNL     1     -11.269  11.833  64.259  1.00  0.00    -0.334 OA 
BRANCH   5   6
HETATM    6  C   UNL     1     -11.389  13.010  65.081  1.00  0.00    -0.291 C  
BRANCH   6   7
HETATM    7  C   UNL     1     -10.145  13.113  65.982  1.00  0.00    -0.286 C  
BRANCH   7   8
HETATM    8  N   UNL     1     -10.425  13.430  67.392  1.00  0.00    -0.243 NA 
HETATM    9  C   UNL     1     -11.705  12.892  67.897  1.00  0.00    -0.357 C  
HETATM   10  C   UNL     1     -11.759  11.357  68.136  1.00  0.00    -0.284 C  
HETATM   11  N   UNL     1     -10.598  10.782  68.842  1.00  0.00    -0.202 NA 
HETATM   12  C   UNL     1      -9.329  11.375  68.423  1.00  0.00    -0.194 C  
HETATM   13  C   UNL     1      -9.357  12.914  68.272  1.00  0.00    -0.194 C  
BRANCH  11  14
HETATM   14  C   UNL     1     -10.642   9.294  68.943  1.00  0.00    -0.199 C  
BRANCH  14  15
HETATM   15  C   UNL     1     -10.595   8.721  70.384  1.00  0.00    -0.251 A  
HETATM   16  C   UNL     1      -9.462   8.893  71.193  1.00  0.00    -0.335 A  
HETATM   17  C   UNL     1     -11.706   8.070  70.964  1.00  0.00    -0.295 A  
HETATM   18  C   UNL     1      -9.447   8.447  72.525  1.00  0.00    -0.360 A  
HETATM   19  C   UNL     1     -10.565   7.822  73.067  1.00  0.00    -0.441 A  
HETATM   20  C   UNL     1     -11.696   7.629  72.286  1.00  0.00    -0.371 A  
ENDBRANCH  14  15
BRANCH  14  21
HETATM   21  C   UNL     1      -9.722   8.498  67.987  1.00  0.00    -0.180 A  
HETATM   22  C   UNL     1      -8.155   6.706  66.473  1.00  0.00    -0.111 A  
HETATM   23 CL   UNL     1      -7.221   5.523  65.647  1.00  0.00    -0.067 Cl 
HETATM   24  C   UNL     1      -7.558   7.498  67.445  1.00  0.00    -0.109 A  
HETATM   25  C   UNL     1     -10.288   7.744  66.939  1.00  0.00    -0.396 A  
HETATM   26  C   UNL     1      -8.332   8.404  68.174  1.00  0.00    -0.128 A  
HETATM   27  C   UNL     1      -9.508   6.856  66.187  1.00  0.00    -0.054 A  
ENDBRANCH  14  21
ENDBRANCH  11  14
ENDBRANCH   7   8
ENDBRANCH   6   7
ENDBRANCH   5   6
ENDBRANCH   3   5
TORSDOF 7
ENDMDL
MODEL      112
REMARK 921   NORMALIZED FREE ENERGY PREDICTED BY IDOCK:   -4.74 KCAL/MOL
REMARK 922        TOTAL FREE ENERGY PREDICTED BY IDOCK:   -7.71 KCAL/MOL
REMARK 923 INTER-LIGAND FREE ENERGY PREDICTED BY IDOCK:   -6.53 KCAL/MOL
REMARK 924 INTRA-LIGAND FREE ENERGY PREDICTED BY IDOCK:   -1.18 KCAL/MOL
REMARK 927      BINDING AFFINITY PREDICTED BY RF-SCORE:    0.00 PKD
ROOT
HETATM    1  O   UNL     1      -8.954  19.463  65.890  1.00  0.00    -0.422 OA 
HETATM    2  C   UNL     1      -9.602  19.071  67.021  1.00  0.00    -0.318 C  
HETATM    3  C   UNL     1      -8.642  18.774  68.158  1.00  0.00    -0.309 C  
HETATM    4  O   UNL     1     -10.819  18.986  67.090  1.00  0.00    -0.462 OA 
ENDROOT
BRANCH   3   5
HETATM    5  O   UNL     1      -7.291  18.960  67.702  1.00  0.00    -0.219 OA 
BRANCH   5   6
HETATM    6  C   UNL     1      -6.362  18.221  68.518  1.00  0.00    -0.213 C  
BRANCH   6   7
HETATM    7  C   UNL     1      -7.030  16.906  68.960  1.00  0.00    -0.224 C  
BRANCH   7   8
HETATM    8  N   UNL     1      -6.294  15.684  68.596  1.00  0.00    -0.101 NA 
HETATM    9  C   UNL     1      -6.504  14.547  69.514  1.00  0.00    -0.134 C  
HETATM   10  C   UNL     1      -7.889  13.845  69.434  1.00  0.00     0.376 C  
HETATM   11  N   UNL     1      -8.378  13.557  68.073  1.00  0.00    -0.156 NA 
HETATM   12  C   UNL     1      -8.089  14.634  67.126  1.00  0.00    -0.185 C  
HETATM   13  C   UNL     1      -6.666  15.227  67.241  1.00  0.00    -0.024 C  
BRANCH  11  14
HETATM   14  C   UNL     1      -9.758  12.992  68.045  1.00  0.00    -0.224 C  
BRANCH  14  15
HETATM   15  C   UNL     1      -9.976  11.717  68.902  1.00  0.00    -0.051 A  
HETATM   16  C   UNL     1     -11.158  11.533  69.635  1.00  0.00    -0.211 A  
HETATM   17  C   UNL     1      -9.035  10.664  68.926  1.00  0.00    -0.172 A  
HETATM   18  C   UNL     1     -11.394  10.345  70.346  1.00  0.00    -0.417 A  
HETATM   19  C   UNL     1     -10.451   9.324  70.335  1.00  0.00    -0.296 A  
HETATM   20  C   UNL     1      -9.267   9.483  69.627  1.00  0.00    -0.212 A  
ENDBRANCH  14  15
BRANCH  14  21
HETATM   21  C   UNL     1     -10.439  12.867  66.661  1.00  0.00    -0.272 A  
HETATM   22  C   UNL     1     -11.928  12.350  64.322  1.00  0.00    -0.410 A  
HETATM   23 CL   UNL     1     -12.887  11.928  62.959  1.00  0.00    -0.300 Cl 
HETATM   24  C   UNL     1     -10.679  11.768  64.491  1.00  0.00    -0.369 A  
HETATM   25  C   UNL     1     -11.670  13.510  66.428  1.00  0.00    -0.405 A  
HETATM   26  C   UNL     1      -9.931  12.048  65.638  1.00  0.00    -0.270 A  
HETATM   27  C   UNL     1     -12.409  13.253  65.264  1.00  0.00    -0.525 A  
ENDBRANCH  14  21
ENDBRANCH  11  14
ENDBRANCH   7   8
ENDBRANCH   6   7
ENDBRANCH   5   6
ENDBRANCH   3   5
TORSDOF 7
ENDMDL
MODEL      113
REMARK 921   NORMALIZED FREE ENERGY PREDICTED BY IDOCK:   -4.73 KCAL/MOL
REMARK 922        TOTAL FREE ENERGY PREDICTED BY IDOCK:   -7.70 KCAL/MOL
REMARK 923 INTER-LIGAND FREE ENERGY PREDICTED BY IDOCK:   -7.10 KCAL/MOL
REMARK 924 INTRA-LIGAND FREE ENERGY PREDICTED BY IDOCK:   -0.60 KCAL/MOL
REMARK 927      BINDING AFFINITY PREDICTED BY RF-SCORE:    0.00 PKD
ROOT
HETATM    1  O   UNL     1     -11.797  15.332  64.354  1.00  0.00    -0.407 OA 
HETATM    2  C   UNL     1     -12.245  14.069  64.116  1.00  0.00    -0.396 C  
HETATM    3  C   UNL     1     -12.387  13.261  65.393  1.00  0.00    -0.479 C  
HETATM    4  O   UNL     1     -12.505  13.660  62.995  1.00  0.00    -0.719 OA 
ENDROOT
BRANCH   3   5
HETATM    5  O   UNL     1     -11.969  14.061  66.512  1.00  0.00    -0.401 OA 
BRANCH   5   6
HETATM    6  C   UNL     1     -10.885  13.433  67.223  1.00  0.00    -0.269 C  
BRANCH   6   7
HETATM    7  C   UNL     1     -11.433  12.831  68.530  1.00  0.00    -0.309 C  
BRANCH   7   8
HETATM    8  N   UNL     1     -12.093  11.524  68.382  1.00  0.00    -0.560 NA 
HETATM    9  C   UNL     1     -11.265  10.492  67.725  1.00  0.00    -0.273 C  
HETATM   10  C   UNL     1     -10.096   9.908  68.568  1.00  0.00    -0.168 C  
HETATM   11  N   UNL     1     -10.433   9.548  69.958  1.00  0.00    -0.228 NA 
HETATM   12  C   UNL     1     -11.334  10.511  70.592  1.00  0.00    -0.275 C  
HETATM   13  C   UNL     1     -12.501  10.986  69.696  1.00  0.00    -0.140 C  
BRANCH  11  14
HETATM   14  C   UNL     1      -9.256   9.105  70.759  1.00  0.00    -0.262 C  
BRANCH  14  15
HETATM   15  C   UNL     1      -7.921   8.990  69.977  1.00  0.00    -0.113 A  
HETATM   16  C   UNL     1      -6.899   9.936  70.148  1.00  0.00    -0.125 A  
HETATM   17  C   UNL     1      -7.649   7.901  69.120  1.00  0.00    -0.098 A  
HETATM   18  C   UNL     1      -5.659   9.792  69.505  1.00  0.00    -0.034 A  
HETATM   19  C   UNL     1      -5.423   8.698  68.679  1.00  0.00    -0.037 A  
HETATM   20  C   UNL     1      -6.419   7.752  68.482  1.00  0.00    -0.052 A  
ENDBRANCH  14  15
BRANCH  14  21
HETATM   21  C   UNL     1      -9.463   7.898  71.705  1.00  0.00    -0.205 A  
HETATM   22  C   UNL     1     -10.253   5.785  73.398  1.00  0.00    -0.209 A  
HETATM   23 CL   UNL     1     -10.858   4.553  74.433  1.00  0.00    -0.215 Cl 
HETATM   24  C   UNL     1      -9.779   6.970  73.945  1.00  0.00    -0.331 A  
HETATM   25  C   UNL     1      -9.869   6.657  71.177  1.00  0.00    -0.195 A  
HETATM   26  C   UNL     1      -9.362   8.004  73.104  1.00  0.00    -0.346 A  
HETATM   27  C   UNL     1     -10.260   5.607  72.019  1.00  0.00    -0.252 A  
ENDBRANCH  14  21
ENDBRANCH  11  14
ENDBRANCH   7   8
ENDBRANCH   6   7
ENDBRANCH   5   6
ENDBRANCH   3   5
TORSDOF 7
ENDMDL
MODEL      114
REMARK 921   NORMALIZED FREE ENERGY PREDICTED BY IDOCK:   -4.70 KCAL/MOL
REMARK 922        TOTAL FREE ENERGY PREDICTED BY IDOCK:   -7.66 KCAL/MOL
REMARK 923 INTER-LIGAND FREE ENERGY PREDICTED BY IDOCK:   -7.63 KCAL/MOL
REMARK 924 INTRA-LIGAND FREE ENERGY PREDICTED BY IDOCK:   -0.03 KCAL/MOL
REMARK 927      BINDING AFFINITY PREDICTED BY RF-SCORE:    0.00 PKD
ROOT
HETATM    1  O   UNL     1      -7.029  19.023  67.565  1.00  0.00    -0.208 OA 
HETATM    2  C   UNL     1      -7.646  20.188  67.229  1.00  0.00    -0.298 C  
HETATM    3  C   UNL     1      -9.146  20.129  67.457  1.00  0.00    -0.356 C  
HETATM    4  O   UNL     1      -7.039  21.160  66.804  1.00  0.00    -0.270 OA 
ENDROOT
BRANCH   3   5
HETATM    5  O   UNL     1      -9.503  18.824  67.941  1.00  0.00    -0.291 OA 
BRANCH   5   6
HETATM    6  C   UNL     1     -10.714  18.354  67.319  1.00  0.00    -0.353 C  
BRANCH   6   7
HETATM    7  C   UNL     1     -10.698  16.814  67.306  1.00  0.00    -0.213 C  
BRANCH   7   8
HETATM    8  N   UNL     1     -10.334  16.209  66.015  1.00  0.00    -0.341 NA 
HETATM    9  C   UNL     1      -9.236  15.223  66.088  1.00  0.00    -0.310 C  
HETATM   10  C   UNL     1      -9.584  13.853  66.735  1.00  0.00    -0.283 C  
HETATM   11  N   UNL     1     -10.850  13.242  66.287  1.00  0.00    -0.283 NA 
HETATM   12  C   UNL     1     -11.923  14.221  66.113  1.00  0.00    -0.407 C  
HETATM   13  C   UNL     1     -11.494  15.527  65.405  1.00  0.00    -0.046 C  
BRANCH  11  14
HETATM   14  C   UNL     1     -11.197  11.990  67.020  1.00  0.00    -0.320 C  
BRANCH  14  15
HETATM   15  C   UNL     1     -11.714  12.186  68.470  1.00  0.00    -0.382 A  
HETATM   16  C   UNL     1     -12.015  11.084  69.284  1.00  0.00    -0.410 A  
HETATM   17  C   UNL     1     -11.837  13.467  69.052  1.00  0.00    -0.378 A  
HETATM   18  C   UNL     1     -12.405  11.255  70.623  1.00  0.00    -0.477 A  
HETATM   19  C   UNL     1     -12.502  12.531  71.166  1.00  0.00    -0.322 A  
HETATM   20  C   UNL     1     -12.221  13.641  70.380  1.00  0.00    -0.434 A  
ENDBRANCH  14  15
BRANCH  14  21
HETATM   21  C   UNL     1     -10.187  10.821  66.933  1.00  0.00    -0.274 A  
HETATM   22  C   UNL     1      -8.093   8.965  66.576  1.00  0.00    -0.107 A  
HETATM   23 CL   UNL     1      -6.760   7.923  66.274  1.00  0.00    -0.053 Cl 
HETATM   24  C   UNL     1      -9.185   8.951  65.718  1.00  0.00    -0.283 A  
HETATM   25  C   UNL     1      -9.109  10.760  67.837  1.00  0.00    -0.150 A  
HETATM   26  C   UNL     1     -10.234   9.853  65.914  1.00  0.00    -0.264 A  
HETATM   27  C   UNL     1      -8.070   9.837  67.660  1.00  0.00    -0.113 A  
ENDBRANCH  14  21
ENDBRANCH  11  14
ENDBRANCH   7   8
ENDBRANCH   6   7
ENDBRANCH   5   6
ENDBRANCH   3   5
TORSDOF 7
ENDMDL
MODEL      115
REMARK 921   NORMALIZED FREE ENERGY PREDICTED BY IDOCK:   -4.63 KCAL/MOL
REMARK 922        TOTAL FREE ENERGY PREDICTED BY IDOCK:   -7.56 KCAL/MOL
REMARK 923 INTER-LIGAND FREE ENERGY PREDICTED BY IDOCK:   -7.26 KCAL/MOL
REMARK 924 INTRA-LIGAND FREE ENERGY PREDICTED BY IDOCK:   -0.30 KCAL/MOL
REMARK 927      BINDING AFFINITY PREDICTED BY RF-SCORE:    0.00 PKD
ROOT
HETATM    1  O   UNL     1      -8.204  20.887  67.221  1.00  0.00    -0.271 OA 
HETATM    2  C   UNL     1      -9.303  20.093  67.111  1.00  0.00    -0.393 C  
HETATM    3  C   UNL     1      -9.076  18.929  66.163  1.00  0.00    -0.163 C  
HETATM    4  O   UNL     1     -10.339  20.307  67.723  1.00  0.00    -0.361 OA 
ENDROOT
BRANCH   3   5
HETATM    5  O   UNL     1      -7.751  19.013  65.612  1.00  0.00    -0.465 OA 
BRANCH   5   6
HETATM    6  C   UNL     1      -6.969  17.855  65.962  1.00  0.00    -0.311 C  
BRANCH   6   7
HETATM    7  C   UNL     1      -7.922  16.735  66.419  1.00  0.00    -0.321 C  
BRANCH   7   8
HETATM    8  N   UNL     1      -7.715  16.272  67.801  1.00  0.00    -0.139 NA 
HETATM    9  C   UNL     1      -8.958  16.092  68.578  1.00  0.00    -0.204 C  
HETATM   10  C   UNL     1      -9.835  14.865  68.201  1.00  0.00    -0.218 C  
HETATM   11  N   UNL     1      -9.106  13.596  68.020  1.00  0.00    -0.186 NA 
HETATM   12  C   UNL     1      -7.824  13.770  67.338  1.00  0.00    -0.153 C  
HETATM   13  C   UNL     1      -6.996  14.981  67.824  1.00  0.00    -0.174 C  
BRANCH  11  14
HETATM   14  C   UNL     1      -9.971  12.477  67.545  1.00  0.00    -0.201 C  
BRANCH  14  15
HETATM   15  C   UNL     1     -10.550  11.562  68.657  1.00  0.00    -0.236 A  
HETATM   16  C   UNL     1      -9.842  10.440  69.110  1.00  0.00    -0.237 A  
HETATM   17  C   UNL     1     -11.770  11.856  69.304  1.00  0.00    -0.389 A  
HETATM   18  C   UNL     1     -10.324   9.656  70.172  1.00  0.00    -0.315 A  
HETATM   19  C   UNL     1     -11.523   9.984  70.795  1.00  0.00    -0.438 A  
HETATM   20  C   UNL     1     -12.250  11.084  70.360  1.00  0.00    -0.461 A  
ENDBRANCH  14  15
BRANCH  14  21
HETATM   21  C   UNL     1      -9.455  11.650  66.344  1.00  0.00    -0.232 A  
HETATM   22  C   UNL     1      -8.717   9.816  64.331  1.00  0.00    -0.206 A  
HETATM   23 CL   UNL     1      -8.313   8.600  63.185  1.00  0.00    -0.173 Cl 
HETATM   24  C   UNL     1      -7.817  10.139  65.337  1.00  0.00    -0.142 A  
HETATM   25  C   UNL     1     -10.318  11.368  65.267  1.00  0.00    -0.336 A  
HETATM   26  C   UNL     1      -8.174  11.069  66.317  1.00  0.00    -0.164 A  
HETATM   27  C   UNL     1      -9.949  10.458  64.266  1.00  0.00    -0.368 A  
ENDBRANCH  14  21
ENDBRANCH  11  14
ENDBRANCH   7   8
ENDBRANCH   6   7
ENDBRANCH   5   6
ENDBRANCH   3   5
TORSDOF 7
ENDMDL
MODEL      116
REMARK 921   NORMALIZED FREE ENERGY PREDICTED BY IDOCK:   -4.61 KCAL/MOL
REMARK 922        TOTAL FREE ENERGY PREDICTED BY IDOCK:   -7.53 KCAL/MOL
REMARK 923 INTER-LIGAND FREE ENERGY PREDICTED BY IDOCK:   -6.73 KCAL/MOL
REMARK 924 INTRA-LIGAND FREE ENERGY PREDICTED BY IDOCK:   -0.80 KCAL/MOL
REMARK 927      BINDING AFFINITY PREDICTED BY RF-SCORE:    0.00 PKD
ROOT
HETATM    1  O   UNL     1     -12.000  16.426  72.591  1.00  0.00    -0.538 OA 
HETATM    2  C   UNL     1     -13.042  15.709  72.091  1.00  0.00    -0.458 C  
HETATM    3  C   UNL     1     -12.894  15.444  70.603  1.00  0.00    -0.430 C  
HETATM    4  O   UNL     1     -13.973  15.324  72.782  1.00  0.00    -0.477 OA 
ENDROOT
BRANCH   3   5
HETATM    5  O   UNL     1     -11.689  16.066  70.126  1.00  0.00    -0.332 OA 
BRANCH   5   6
HETATM    6  C   UNL     1     -10.843  15.112  69.457  1.00  0.00    -0.263 C  
BRANCH   6   7
HETATM    7  C   UNL     1     -11.143  15.157  67.947  1.00  0.00    -0.321 C  
BRANCH   7   8
HETATM    8  N   UNL     1     -11.990  14.060  67.451  1.00  0.00    -0.409 NA 
HETATM    9  C   UNL     1     -11.661  13.603  66.086  1.00  0.00    -0.364 C  
HETATM   10  C   UNL     1     -10.350  12.782  65.932  1.00  0.00    -0.283 C  
HETATM   11  N   UNL     1     -10.142  11.722  66.937  1.00  0.00    -0.205 NA 
HETATM   12  C   UNL     1     -10.556  12.125  68.280  1.00  0.00    -0.217 C  
HETATM   13  C   UNL     1     -11.903  12.882  68.339  1.00  0.00    -0.318 C  
BRANCH  11  14
HETATM   14  C   UNL     1      -8.820  11.043  66.818  1.00  0.00    -0.156 C  
BRANCH  14  15
HETATM   15  C   UNL     1      -8.874   9.507  66.607  1.00  0.00    -0.150 A  
HETATM   16  C   UNL     1      -9.978   8.757  67.041  1.00  0.00    -0.307 A  
HETATM   17  C   UNL     1      -7.860   8.812  65.913  1.00  0.00    -0.102 A  
HETATM   18  C   UNL     1     -10.069   7.380  66.779  1.00  0.00    -0.305 A  
HETATM   19  C   UNL     1      -9.056   6.732  66.080  1.00  0.00    -0.138 A  
HETATM   20  C   UNL     1      -7.948   7.447  65.648  1.00  0.00    -0.118 A  
ENDBRANCH  14  15
BRANCH  14  21
HETATM   21  C   UNL     1      -7.734  11.434  67.848  1.00  0.00    -0.114 A  
HETATM   22  C   UNL     1      -6.074  12.292  69.961  1.00  0.00    -0.130 A  
HETATM   23 CL   UNL     1      -5.169  12.881  71.299  1.00  0.00    -0.173 Cl 
HETATM   24  C   UNL     1      -6.209  13.078  68.824  1.00  0.00    -0.079 A  
HETATM   25  C   UNL     1      -7.514  10.619  68.976  1.00  0.00    -0.117 A  
HETATM   26  C   UNL     1      -7.010  12.637  67.767  1.00  0.00    -0.125 A  
HETATM   27  C   UNL     1      -6.687  11.046  70.024  1.00  0.00    -0.097 A  
ENDBRANCH  14  21
ENDBRANCH  11  14
ENDBRANCH   7   8
ENDBRANCH   6   7
ENDBRANCH   5   6
ENDBRANCH   3   5
TORSDOF 7
ENDMDL
MODEL      117
REMARK 921   NORMALIZED FREE ENERGY PREDICTED BY IDOCK:   -4.59 KCAL/MOL
REMARK 922        TOTAL FREE ENERGY PREDICTED BY IDOCK:   -7.50 KCAL/MOL
REMARK 923 INTER-LIGAND FREE ENERGY PREDICTED BY IDOCK:   -7.31 KCAL/MOL
REMARK 924 INTRA-LIGAND FREE ENERGY PREDICTED BY IDOCK:   -0.19 KCAL/MOL
REMARK 927      BINDING AFFINITY PREDICTED BY RF-SCORE:    0.00 PKD
ROOT
HETATM    1  O   UNL     1     -13.066  12.863  64.988  1.00  0.00    -0.794 OA 
HETATM    2  C   UNL     1     -12.194  13.419  64.103  1.00  0.00    -0.398 C  
HETATM    3  C   UNL     1     -10.777  13.463  64.646  1.00  0.00    -0.411 C  
HETATM    4  O   UNL     1     -12.535  13.819  63.000  1.00  0.00    -0.712 OA 
ENDROOT
BRANCH   3   5
HETATM    5  O   UNL     1     -10.760  12.926  65.980  1.00  0.00    -0.271 OA 
BRANCH   5   6
HETATM    6  C   UNL     1      -9.419  12.876  66.502  1.00  0.00    -0.251 C  
BRANCH   6   7
HETATM    7  C   UNL     1      -8.808  11.503  66.165  1.00  0.00    -0.167 C  
BRANCH   7   8
HETATM    8  N   UNL     1      -7.732  11.065  67.070  1.00  0.00    -0.127 NA 
HETATM    9  C   UNL     1      -7.992  11.326  68.501  1.00  0.00    -0.145 C  
HETATM   10  C   UNL     1      -9.058  10.422  69.182  1.00  0.00    -0.187 C  
HETATM   11  N   UNL     1      -8.948   8.980  68.892  1.00  0.00    -0.139 NA 
HETATM   12  C   UNL     1      -8.592   8.707  67.499  1.00  0.00    -0.135 C  
HETATM   13  C   UNL     1      -7.480   9.617  66.929  1.00  0.00    -0.091 C  
BRANCH  11  14
HETATM   14  C   UNL     1     -10.059   8.171  69.471  1.00  0.00    -0.193 C  
BRANCH  14  15
HETATM   15  C   UNL     1     -11.158   8.978  70.212  1.00  0.00    -0.263 A  
HETATM   16  C   UNL     1     -11.569   8.620  71.504  1.00  0.00    -0.368 A  
HETATM   17  C   UNL     1     -11.736  10.138  69.653  1.00  0.00    -0.165 A  
HETATM   18  C   UNL     1     -12.503   9.395  72.210  1.00  0.00    -0.338 A  
HETATM   19  C   UNL     1     -13.041  10.540  71.633  1.00  0.00    -0.551 A  
HETATM   20  C   UNL     1     -12.661  10.912  70.351  1.00  0.00    -0.376 A  
ENDBRANCH  14  15
BRANCH  14  21
HETATM   21  C   UNL     1      -9.665   6.897  70.257  1.00  0.00    -0.176 A  
HETATM   22  C   UNL     1      -8.665   4.511  71.381  1.00  0.00    -0.117 A  
HETATM   23 CL   UNL     1      -7.991   3.036  71.950  1.00  0.00    -0.057 Cl 
HETATM   24  C   UNL     1      -9.849   4.492  70.655  1.00  0.00    -0.292 A  
HETATM   25  C   UNL     1      -8.513   6.903  71.066  1.00  0.00    -0.131 A  
HETATM   26  C   UNL     1     -10.356   5.680  70.123  1.00  0.00    -0.341 A  
HETATM   27  C   UNL     1      -8.017   5.718  71.625  1.00  0.00    -0.117 A  
ENDBRANCH  14  21
ENDBRANCH  11  14
ENDBRANCH   7   8
ENDBRANCH   6   7
ENDBRANCH   5   6
ENDBRANCH   3   5
TORSDOF 7
ENDMDL
MODEL      118
REMARK 921   NORMALIZED FREE ENERGY PREDICTED BY IDOCK:   -4.59 KCAL/MOL
REMARK 922        TOTAL FREE ENERGY PREDICTED BY IDOCK:   -7.50 KCAL/MOL
REMARK 923 INTER-LIGAND FREE ENERGY PREDICTED BY IDOCK:   -6.93 KCAL/MOL
REMARK 924 INTRA-LIGAND FREE ENERGY PREDICTED BY IDOCK:   -0.56 KCAL/MOL
REMARK 927      BINDING AFFINITY PREDICTED BY RF-SCORE:    0.00 PKD
ROOT
HETATM    1  O   UNL     1      -8.895   8.847  64.325  1.00  0.00    -0.127 OA 
HETATM    2  C   UNL     1      -7.670   8.787  63.735  1.00  0.00    -0.133 C  
HETATM    3  C   UNL     1      -6.673   9.729  64.384  1.00  0.00    -0.119 C  
HETATM    4  O   UNL     1      -7.424   8.043  62.797  1.00  0.00    -0.100 OA 
ENDROOT
BRANCH   3   5
HETATM    5  O   UNL     1      -7.323  10.458  65.438  1.00  0.00    -0.143 OA 
BRANCH   5   6
HETATM    6  C   UNL     1      -6.501  10.506  66.620  1.00  0.00    -0.086 C  
BRANCH   6   7
HETATM    7  C   UNL     1      -6.403  11.967  67.095  1.00  0.00    -0.149 C  
BRANCH   7   8
HETATM    8  N   UNL     1      -6.928  12.216  68.448  1.00  0.00    -0.071 NA 
HETATM    9  C   UNL     1      -7.202  13.636  68.746  1.00  0.00    -0.100 C  
HETATM   10  C   UNL     1      -8.446  14.257  68.051  1.00  0.00    -0.164 C  
HETATM   11  N   UNL     1      -9.670  13.436  68.086  1.00  0.00    -0.222 NA 
HETATM   12  C   UNL     1      -9.405  12.011  67.891  1.00  0.00    -0.190 C  
HETATM   13  C   UNL     1      -8.184  11.471  68.672  1.00  0.00    -0.124 C  
BRANCH  11  14
HETATM   14  C   UNL     1     -10.800  14.020  67.307  1.00  0.00    -0.284 C  
BRANCH  14  15
HETATM   15  C   UNL     1     -11.127  13.307  65.968  1.00  0.00    -0.298 A  
HETATM   16  C   UNL     1     -12.452  13.009  65.614  1.00  0.00    -0.452 A  
HETATM   17  C   UNL     1     -10.125  12.994  65.025  1.00  0.00    -0.234 A  
HETATM   18  C   UNL     1     -12.759  12.437  64.368  1.00  0.00    -0.434 A  
HETATM   19  C   UNL     1     -11.746  12.155  63.458  1.00  0.00    -0.579 A  
HETATM   20  C   UNL     1     -10.426  12.430  63.786  1.00  0.00    -0.475 A  
ENDBRANCH  14  15
BRANCH  14  21
HETATM   21  C   UNL     1     -10.824  15.559  67.149  1.00  0.00    -0.316 A  
HETATM   22  C   UNL     1     -10.446  18.339  66.856  1.00  0.00    -0.373 A  
HETATM   23 CL   UNL     1     -10.084  20.013  66.704  1.00  0.00    -0.578 Cl 
HETATM   24  C   UNL     1     -10.724  17.806  68.107  1.00  0.00    -0.293 A  
HETATM   25  C   UNL     1     -10.623  16.134  65.879  1.00  0.00    -0.322 A  
HETATM   26  C   UNL     1     -10.939  16.433  68.245  1.00  0.00    -0.355 A  
HETATM   27  C   UNL     1     -10.436  17.516  65.734  1.00  0.00    -0.212 A  
ENDBRANCH  14  21
ENDBRANCH  11  14
ENDBRANCH   7   8
ENDBRANCH   6   7
ENDBRANCH   5   6
ENDBRANCH   3   5
TORSDOF 7
ENDMDL
MODEL      119
REMARK 921   NORMALIZED FREE ENERGY PREDICTED BY IDOCK:   -4.58 KCAL/MOL
REMARK 922        TOTAL FREE ENERGY PREDICTED BY IDOCK:   -7.49 KCAL/MOL
REMARK 923 INTER-LIGAND FREE ENERGY PREDICTED BY IDOCK:   -6.35 KCAL/MOL
REMARK 924 INTRA-LIGAND FREE ENERGY PREDICTED BY IDOCK:   -1.14 KCAL/MOL
REMARK 927      BINDING AFFINITY PREDICTED BY RF-SCORE:    0.00 PKD
ROOT
HETATM    1  O   UNL     1     -12.379  14.065  68.990  1.00  0.00    -0.307 OA 
HETATM    2  C   UNL     1     -11.467  14.822  68.322  1.00  0.00    -0.317 C  
HETATM    3  C   UNL     1     -11.279  14.360  66.888  1.00  0.00    -0.334 C  
HETATM    4  O   UNL     1     -10.887  15.767  68.836  1.00  0.00    -0.232 OA 
ENDROOT
BRANCH   3   5
HETATM    5  O   UNL     1     -12.107  13.210  66.645  1.00  0.00    -0.391 OA 
BRANCH   5   6
HETATM    6  C   UNL     1     -11.428  12.249  65.815  1.00  0.00    -0.367 C  
BRANCH   6   7
HETATM    7  C   UNL     1      -9.982  12.093  66.319  1.00  0.00    -0.229 C  
BRANCH   7   8
HETATM    8  N   UNL     1      -9.210  11.023  65.667  1.00  0.00    -0.205 NA 
HETATM    9  C   UNL     1      -7.904  10.739  66.296  1.00  0.00    -0.156 C  
HETATM   10  C   UNL     1      -7.945  10.000  67.663  1.00  0.00    -0.105 C  
HETATM   11  N   UNL     1      -8.858   8.843  67.733  1.00  0.00    -0.135 NA 
HETATM   12  C   UNL     1     -10.119   9.072  67.028  1.00  0.00    -0.250 C  
HETATM   13  C   UNL     1      -9.971   9.757  65.650  1.00  0.00    -0.282 C  
BRANCH  11  14
HETATM   14  C   UNL     1      -8.951   8.241  69.094  1.00  0.00    -0.147 C  
BRANCH  14  15
HETATM   15  C   UNL     1      -8.379   6.805  69.230  1.00  0.00    -0.125 A  
HETATM   16  C   UNL     1      -8.382   5.920  68.141  1.00  0.00    -0.115 A  
HETATM   17  C   UNL     1      -7.771   6.353  70.422  1.00  0.00    -0.098 A  
HETATM   18  C   UNL     1      -7.792   4.649  68.236  1.00  0.00    -0.081 A  
HETATM   19  C   UNL     1      -7.191   4.244  69.422  1.00  0.00    -0.051 A  
HETATM   20  C   UNL     1      -7.181   5.094  70.519  1.00  0.00    -0.061 A  
ENDBRANCH  14  15
BRANCH  14  21
HETATM   21  C   UNL     1     -10.301   8.385  69.836  1.00  0.00    -0.210 A  
HETATM   22  C   UNL     1     -12.531   8.640  71.544  1.00  0.00    -0.323 A  
HETATM   23 CL   UNL     1     -13.809   8.765  72.687  1.00  0.00    -0.410 Cl 
HETATM   24  C   UNL     1     -12.213   7.403  71.001  1.00  0.00    -0.315 A  
HETATM   25  C   UNL     1     -10.694   9.643  70.334  1.00  0.00    -0.356 A  
HETATM   26  C   UNL     1     -11.124   7.285  70.133  1.00  0.00    -0.281 A  
HETATM   27  C   UNL     1     -11.803   9.769  71.181  1.00  0.00    -0.466 A  
ENDBRANCH  14  21
ENDBRANCH  11  14
ENDBRANCH   7   8
ENDBRANCH   6   7
ENDBRANCH   5   6
ENDBRANCH   3   5
TORSDOF 7
ENDMDL
MODEL      120
REMARK 921   NORMALIZED FREE ENERGY PREDICTED BY IDOCK:   -4.58 KCAL/MOL
REMARK 922        TOTAL FREE ENERGY PREDICTED BY IDOCK:   -7.49 KCAL/MOL
REMARK 923 INTER-LIGAND FREE ENERGY PREDICTED BY IDOCK:   -6.26 KCAL/MOL
REMARK 924 INTRA-LIGAND FREE ENERGY PREDICTED BY IDOCK:   -1.24 KCAL/MOL
REMARK 927      BINDING AFFINITY PREDICTED BY RF-SCORE:    0.00 PKD
ROOT
HETATM    1  O   UNL     1     -12.612  10.398  71.738  1.00  0.00    -0.408 OA 
HETATM    2  C   UNL     1     -13.166   9.219  72.132  1.00  0.00    -0.461 C  
HETATM    3  C   UNL     1     -12.116   8.158  72.409  1.00  0.00    -0.348 C  
HETATM    4  O   UNL     1     -14.371   9.061  72.253  1.00  0.00    -0.409 OA 
ENDROOT
BRANCH   3   5
HETATM    5  O   UNL     1     -10.811   8.696  72.139  1.00  0.00    -0.332 OA 
BRANCH   5   6
HETATM    6  C   UNL     1      -9.788   7.940  72.815  1.00  0.00    -0.270 C  
BRANCH   6   7
HETATM    7  C   UNL     1      -8.799   7.399  71.766  1.00  0.00    -0.115 C  
BRANCH   7   8
HETATM    8  N   UNL     1      -8.767   5.932  71.642  1.00  0.00    -0.135 NA 
HETATM    9  C   UNL     1     -10.067   5.319  71.303  1.00  0.00    -0.213 C  
HETATM   10  C   UNL     1     -10.564   5.522  69.843  1.00  0.00    -0.317 C  
HETATM   11  N   UNL     1      -9.554   5.300  68.792  1.00  0.00    -0.128 NA 
HETATM   12  C   UNL     1      -8.234   5.815  69.154  1.00  0.00    -0.101 C  
HETATM   13  C   UNL     1      -7.801   5.510  70.607  1.00  0.00    -0.095 C  
BRANCH  11  14
HETATM   14  C   UNL     1     -10.045   5.621  67.420  1.00  0.00    -0.173 C  
BRANCH  14  15
HETATM   15  C   UNL     1      -9.853   4.502  66.363  1.00  0.00    -0.245 A  
HETATM   16  C   UNL     1     -10.562   4.523  65.152  1.00  0.00    -0.132 A  
HETATM   17  C   UNL     1      -8.915   3.461  66.539  1.00  0.00    -0.158 A  
HETATM   18  C   UNL     1     -10.331   3.557  64.159  1.00  0.00    -0.220 A  
HETATM   19  C   UNL     1      -9.389   2.555  64.362  1.00  0.00    -0.135 A  
HETATM   20  C   UNL     1      -8.681   2.503  65.555  1.00  0.00    -0.119 A  
ENDBRANCH  14  15
BRANCH  14  21
HETATM   21  C   UNL     1      -9.674   7.010  66.848  1.00  0.00    -0.228 A  
HETATM   22  C   UNL     1      -9.303   9.471  65.520  1.00  0.00    -0.255 A  
HETATM   23 CL   UNL     1      -9.156  10.923  64.612  1.00  0.00    -0.209 Cl 
HETATM   24  C   UNL     1      -8.451   8.407  65.256  1.00  0.00    -0.189 A  
HETATM   25  C   UNL     1     -10.471   8.129  67.157  1.00  0.00    -0.396 A  
HETATM   26  C   UNL     1      -8.620   7.198  65.936  1.00  0.00    -0.157 A  
HETATM   27  C   UNL     1     -10.285   9.352  66.497  1.00  0.00    -0.308 A  
ENDBRANCH  14  21
ENDBRANCH  11  14
ENDBRANCH   7   8
ENDBRANCH   6   7
ENDBRANCH   5   6
ENDBRANCH   3   5
TORSDOF 7
ENDMDL
MODEL      121
REMARK 921   NORMALIZED FREE ENERGY PREDICTED BY IDOCK:   -4.57 KCAL/MOL
REMARK 922        TOTAL FREE ENERGY PREDICTED BY IDOCK:   -7.48 KCAL/MOL
REMARK 923 INTER-LIGAND FREE ENERGY PREDICTED BY IDOCK:   -6.55 KCAL/MOL
REMARK 924 INTRA-LIGAND FREE ENERGY PREDICTED BY IDOCK:   -0.93 KCAL/MOL
REMARK 927      BINDING AFFINITY PREDICTED BY RF-SCORE:    0.00 PKD
ROOT
HETATM    1  O   UNL     1     -10.805  12.673  63.589  1.00  0.00    -0.426 OA 
HETATM    2  C   UNL     1     -12.066  12.495  64.068  1.00  0.00    -0.473 C  
HETATM    3  C   UNL     1     -12.137  12.668  65.574  1.00  0.00    -0.458 C  
HETATM    4  O   UNL     1     -13.018  12.237  63.346  1.00  0.00    -0.753 OA 
ENDROOT
BRANCH   3   5
HETATM    5  O   UNL     1     -10.822  12.943  66.085  1.00  0.00    -0.274 OA 
BRANCH   5   6
HETATM    6  C   UNL     1     -10.447  11.985  67.093  1.00  0.00    -0.220 C  
BRANCH   6   7
HETATM    7  C   UNL     1      -8.991  11.549  66.845  1.00  0.00    -0.179 C  
BRANCH   7   8
HETATM    8  N   UNL     1      -8.768  10.818  65.587  1.00  0.00    -0.187 NA 
HETATM    9  C   UNL     1      -7.523  10.026  65.552  1.00  0.00    -0.137 C  
HETATM   10  C   UNL     1      -7.506   8.731  66.413  1.00  0.00    -0.087 C  
HETATM   11  N   UNL     1      -8.707   7.882  66.307  1.00  0.00    -0.147 NA 
HETATM   12  C   UNL     1      -9.946   8.657  66.240  1.00  0.00    -0.217 C  
HETATM   13  C   UNL     1      -9.885   9.891  65.310  1.00  0.00    -0.303 C  
BRANCH  11  14
HETATM   14  C   UNL     1      -8.695   6.717  67.237  1.00  0.00    -0.118 C  
BRANCH  14  15
HETATM   15  C   UNL     1      -8.955   5.335  66.581  1.00  0.00    -0.117 A  
HETATM   16  C   UNL     1      -9.259   5.230  65.216  1.00  0.00    -0.054 A  
HETATM   17  C   UNL     1      -8.829   4.129  67.305  1.00  0.00    -0.126 A  
HETATM   18  C   UNL     1      -9.414   3.976  64.600  1.00  0.00    -0.169 A  
HETATM   19  C   UNL     1      -9.268   2.810  65.343  1.00  0.00    -0.124 A  
HETATM   20  C   UNL     1      -8.978   2.884  66.698  1.00  0.00    -0.168 A  
ENDBRANCH  14  15
BRANCH  14  21
HETATM   21  C   UNL     1      -9.475   6.868  68.565  1.00  0.00    -0.133 A  
HETATM   22  C   UNL     1     -10.705   6.787  71.102  1.00  0.00    -0.229 A  
HETATM   23 CL   UNL     1     -11.409   6.611  72.661  1.00  0.00    -0.281 Cl 
HETATM   24  C   UNL     1     -11.401   6.355  69.981  1.00  0.00    -0.496 A  
HETATM   25  C   UNL     1      -8.823   7.378  69.705  1.00  0.00    -0.141 A  
HETATM   26  C   UNL     1     -10.799   6.422  68.722  1.00  0.00    -0.378 A  
HETATM   27  C   UNL     1      -9.435   7.338  70.965  1.00  0.00    -0.158 A  
ENDBRANCH  14  21
ENDBRANCH  11  14
ENDBRANCH   7   8
ENDBRANCH   6   7
ENDBRANCH   5   6
ENDBRANCH   3   5
TORSDOF 7
ENDMDL
MODEL      122
REMARK 921   NORMALIZED FREE ENERGY PREDICTED BY IDOCK:   -4.52 KCAL/MOL
REMARK 922        TOTAL FREE ENERGY PREDICTED BY IDOCK:   -7.40 KCAL/MOL
REMARK 923 INTER-LIGAND FREE ENERGY PREDICTED BY IDOCK:   -6.44 KCAL/MOL
REMARK 924 INTRA-LIGAND FREE ENERGY PREDICTED BY IDOCK:   -0.96 KCAL/MOL
REMARK 927      BINDING AFFINITY PREDICTED BY RF-SCORE:    0.00 PKD
ROOT
HETATM    1  O   UNL     1     -10.109  18.266  66.841  1.00  0.00    -0.328 OA 
HETATM    2  C   UNL     1      -9.295  17.297  66.339  1.00  0.00    -0.258 C  
HETATM    3  C   UNL     1      -9.873  15.907  66.532  1.00  0.00    -0.261 C  
HETATM    4  O   UNL     1      -8.232  17.545  65.791  1.00  0.00    -0.545 OA 
ENDROOT
BRANCH   3   5
HETATM    5  O   UNL     1     -11.124  16.003  67.234  1.00  0.00    -0.257 OA 
BRANCH   5   6
HETATM    6  C   UNL     1     -11.132  15.157  68.399  1.00  0.00    -0.282 C  
BRANCH   6   7
HETATM    7  C   UNL     1     -10.426  13.833  68.054  1.00  0.00    -0.244 C  
BRANCH   7   8
HETATM    8  N   UNL     1     -11.326  12.731  67.674  1.00  0.00    -0.290 NA 
HETATM    9  C   UNL     1     -10.643  11.548  67.114  1.00  0.00    -0.237 C  
HETATM   10  C   UNL     1      -9.847  10.672  68.122  1.00  0.00    -0.155 C  
HETATM   11  N   UNL     1     -10.544  10.364  69.384  1.00  0.00    -0.224 NA 
HETATM   12  C   UNL     1     -11.309  11.498  69.903  1.00  0.00    -0.186 C  
HETATM   13  C   UNL     1     -12.117  12.271  68.835  1.00  0.00    -0.126 C  
BRANCH  11  14
HETATM   14  C   UNL     1      -9.699   9.622  70.364  1.00  0.00    -0.245 C  
BRANCH  14  15
HETATM   15  C   UNL     1      -8.304   9.183  69.845  1.00  0.00    -0.146 A  
HETATM   16  C   UNL     1      -7.162   9.958  70.097  1.00  0.00    -0.159 A  
HETATM   17  C   UNL     1      -8.112   7.960  69.165  1.00  0.00    -0.124 A  
HETATM   18  C   UNL     1      -5.887   9.524  69.701  1.00  0.00    -0.033 A  
HETATM   19  C   UNL     1      -5.735   8.307  69.045  1.00  0.00    -0.035 A  
HETATM   20  C   UNL     1      -6.848   7.524  68.773  1.00  0.00    -0.065 A  
ENDBRANCH  14  15
BRANCH  14  21
HETATM   21  C   UNL     1     -10.384   8.494  71.171  1.00  0.00    -0.273 A  
HETATM   22  C   UNL     1     -11.306   6.196  72.523  1.00  0.00    -0.286 A  
HETATM   23 CL   UNL     1     -11.775   4.725  73.278  1.00  0.00    -0.320 Cl 
HETATM   24  C   UNL     1     -11.847   6.538  71.291  1.00  0.00    -0.385 A  
HETATM   25  C   UNL     1      -9.911   8.169  72.458  1.00  0.00    -0.372 A  
HETATM   26  C   UNL     1     -11.408   7.693  70.637  1.00  0.00    -0.288 A  
HETATM   27  C   UNL     1     -10.371   7.028  73.129  1.00  0.00    -0.314 A  
ENDBRANCH  14  21
ENDBRANCH  11  14
ENDBRANCH   7   8
ENDBRANCH   6   7
ENDBRANCH   5   6
ENDBRANCH   3   5
TORSDOF 7
ENDMDL
MODEL      123
REMARK 921   NORMALIZED FREE ENERGY PREDICTED BY IDOCK:   -4.51 KCAL/MOL
REMARK 922        TOTAL FREE ENERGY PREDICTED BY IDOCK:   -7.39 KCAL/MOL
REMARK 923 INTER-LIGAND FREE ENERGY PREDICTED BY IDOCK:   -6.59 KCAL/MOL
REMARK 924 INTRA-LIGAND FREE ENERGY PREDICTED BY IDOCK:   -0.80 KCAL/MOL
REMARK 927      BINDING AFFINITY PREDICTED BY RF-SCORE:    0.00 PKD
ROOT
HETATM    1  O   UNL     1     -10.681  16.936  67.721  1.00  0.00    -0.339 OA 
HETATM    2  C   UNL     1     -10.272  17.003  66.425  1.00  0.00    -0.326 C  
HETATM    3  C   UNL     1     -10.720  15.797  65.620  1.00  0.00    -0.348 C  
HETATM    4  O   UNL     1      -9.627  17.942  65.982  1.00  0.00    -0.502 OA 
ENDROOT
BRANCH   3   5
HETATM    5  O   UNL     1     -11.435  14.891  66.477  1.00  0.00    -0.345 OA 
BRANCH   5   6
HETATM    6  C   UNL     1     -11.644  13.621  65.829  1.00  0.00    -0.333 C  
BRANCH   6   7
HETATM    7  C   UNL     1     -11.085  12.507  66.733  1.00  0.00    -0.279 C  
BRANCH   7   8
HETATM    8  N   UNL     1     -10.855  12.901  68.133  1.00  0.00    -0.227 NA 
HETATM    9  C   UNL     1     -11.590  12.092  69.125  1.00  0.00    -0.312 C  
HETATM   10  C   UNL     1     -11.071  10.644  69.353  1.00  0.00    -0.260 C  
HETATM   11  N   UNL     1      -9.610  10.508  69.499  1.00  0.00    -0.154 NA 
HETATM   12  C   UNL     1      -8.865  11.378  68.589  1.00  0.00    -0.125 C  
HETATM   13  C   UNL     1      -9.421  12.817  68.476  1.00  0.00    -0.092 C  
BRANCH  11  14
HETATM   14  C   UNL     1      -9.152   9.092  69.597  1.00  0.00    -0.160 C  
BRANCH  14  15
HETATM   15  C   UNL     1      -8.783   8.415  68.250  1.00  0.00    -0.143 A  
HETATM   16  C   UNL     1      -7.542   7.784  68.075  1.00  0.00    -0.120 A  
HETATM   17  C   UNL     1      -9.697   8.341  67.176  1.00  0.00    -0.255 A  
HETATM   18  C   UNL     1      -7.236   7.099  66.888  1.00  0.00    -0.087 A  
HETATM   19  C   UNL     1      -8.167   7.036  65.857  1.00  0.00    -0.133 A  
HETATM   20  C   UNL     1      -9.399   7.660  65.998  1.00  0.00    -0.076 A  
ENDBRANCH  14  15
BRANCH  14  21
HETATM   21  C   UNL     1      -9.979   8.146  70.498  1.00  0.00    -0.195 A  
HETATM   22  C   UNL     1     -11.124   6.218  72.210  1.00  0.00    -0.271 A  
HETATM   23 CL   UNL     1     -11.706   4.973  73.244  1.00  0.00    -0.285 Cl 
HETATM   24  C   UNL     1     -11.246   6.081  70.834  1.00  0.00    -0.335 A  
HETATM   25  C   UNL     1      -9.942   8.304  71.898  1.00  0.00    -0.299 A  
HETATM   26  C   UNL     1     -10.702   7.052  69.989  1.00  0.00    -0.267 A  
HETATM   27  C   UNL     1     -10.512   7.346  72.747  1.00  0.00    -0.323 A  
ENDBRANCH  14  21
ENDBRANCH  11  14
ENDBRANCH   7   8
ENDBRANCH   6   7
ENDBRANCH   5   6
ENDBRANCH   3   5
TORSDOF 7
ENDMDL
MODEL      124
REMARK 921   NORMALIZED FREE ENERGY PREDICTED BY IDOCK:   -4.46 KCAL/MOL
REMARK 922        TOTAL FREE ENERGY PREDICTED BY IDOCK:   -7.32 KCAL/MOL
REMARK 923 INTER-LIGAND FREE ENERGY PREDICTED BY IDOCK:   -6.42 KCAL/MOL
REMARK 924 INTRA-LIGAND FREE ENERGY PREDICTED BY IDOCK:   -0.89 KCAL/MOL
REMARK 927      BINDING AFFINITY PREDICTED BY RF-SCORE:    0.00 PKD
ROOT
HETATM    1  O   UNL     1     -10.544  10.733  64.984  1.00  0.00    -0.268 OA 
HETATM    2  C   UNL     1      -9.568  11.210  65.803  1.00  0.00    -0.221 C  
HETATM    3  C   UNL     1      -8.281  10.414  65.684  1.00  0.00    -0.158 C  
HETATM    4  O   UNL     1      -9.730  12.176  66.533  1.00  0.00    -0.212 OA 
ENDROOT
BRANCH   3   5
HETATM    5  O   UNL     1      -8.470   9.340  64.748  1.00  0.00    -0.154 OA 
BRANCH   5   6
HETATM    6  C   UNL     1      -7.998   8.091  65.289  1.00  0.00    -0.124 C  
BRANCH   6   7
HETATM    7  C   UNL     1      -9.137   7.439  66.094  1.00  0.00    -0.126 C  
BRANCH   7   8
HETATM    8  N   UNL     1      -8.942   6.013  66.400  1.00  0.00    -0.141 NA 
HETATM    9  C   UNL     1      -7.873   5.738  67.381  1.00  0.00    -0.102 C  
HETATM   10  C   UNL     1      -8.184   6.106  68.859  1.00  0.00    -0.112 C  
HETATM   11  N   UNL     1      -9.510   5.689  69.352  1.00  0.00    -0.127 NA 
HETATM   12  C   UNL     1     -10.567   5.862  68.356  1.00  0.00    -0.250 C  
HETATM   13  C   UNL     1     -10.184   5.410  66.927  1.00  0.00    -0.240 C  
BRANCH  11  14
HETATM   14  C   UNL     1      -9.808   6.167  70.734  1.00  0.00    -0.186 C  
BRANCH  14  15
HETATM   15  C   UNL     1     -10.081   5.055  71.781  1.00  0.00    -0.262 A  
HETATM   16  C   UNL     1     -10.599   5.366  73.047  1.00  0.00    -0.274 A  
HETATM   17  C   UNL     1      -9.889   3.687  71.486  1.00  0.00    -0.227 A  
HETATM   18  C   UNL     1     -10.925   4.357  73.967  1.00  0.00    -0.268 A  
HETATM   19  C   UNL     1     -10.735   3.020  73.636  1.00  0.00    -0.295 A  
HETATM   20  C   UNL     1     -10.213   2.682  72.394  1.00  0.00    -0.215 A  
ENDBRANCH  14  15
BRANCH  14  21
HETATM   21  C   UNL     1     -10.813   7.334  70.873  1.00  0.00    -0.262 A  
HETATM   22  C   UNL     1     -12.506   9.494  71.525  1.00  0.00    -0.376 A  
HETATM   23 CL   UNL     1     -13.505  10.791  72.052  1.00  0.00    -0.409 Cl 
HETATM   24  C   UNL     1     -13.005   8.199  71.525  1.00  0.00    -0.316 A  
HETATM   25  C   UNL     1     -10.354   8.664  70.801  1.00  0.00    -0.249 A  
HETATM   26  C   UNL     1     -12.172   7.134  71.174  1.00  0.00    -0.405 A  
HETATM   27  C   UNL     1     -11.197   9.737  71.123  1.00  0.00    -0.444 A  
ENDBRANCH  14  21
ENDBRANCH  11  14
ENDBRANCH   7   8
ENDBRANCH   6   7
ENDBRANCH   5   6
ENDBRANCH   3   5
TORSDOF 7
ENDMDL
MODEL      125
REMARK 921   NORMALIZED FREE ENERGY PREDICTED BY IDOCK:   -4.44 KCAL/MOL
REMARK 922        TOTAL FREE ENERGY PREDICTED BY IDOCK:   -7.29 KCAL/MOL
REMARK 923 INTER-LIGAND FREE ENERGY PREDICTED BY IDOCK:   -7.11 KCAL/MOL
REMARK 924 INTRA-LIGAND FREE ENERGY PREDICTED BY IDOCK:   -0.18 KCAL/MOL
REMARK 927      BINDING AFFINITY PREDICTED BY RF-SCORE:    0.00 PKD
ROOT
HETATM    1  O   UNL     1      -9.822  12.219  62.879  1.00  0.00    -0.196 OA 
HETATM    2  C   UNL     1     -10.883  12.284  63.729  1.00  0.00    -0.442 C  
HETATM    3  C   UNL     1     -10.937  11.095  64.671  1.00  0.00    -0.168 C  
HETATM    4  O   UNL     1     -11.681  13.209  63.721  1.00  0.00    -0.437 OA 
ENDROOT
BRANCH   3   5
HETATM    5  O   UNL     1      -9.851  10.201  64.373  1.00  0.00    -0.322 OA 
BRANCH   5   6
HETATM    6  C   UNL     1      -9.298   9.638  65.578  1.00  0.00    -0.248 C  
BRANCH   6   7
HETATM    7  C   UNL     1      -7.975  10.358  65.898  1.00  0.00    -0.151 C  
BRANCH   7   8
HETATM    8  N   UNL     1      -7.670  10.484  67.333  1.00  0.00    -0.101 NA 
HETATM    9  C   UNL     1      -6.905  11.695  67.692  1.00  0.00    -0.094 C  
HETATM   10  C   UNL     1      -7.685  13.040  67.647  1.00  0.00    -0.161 C  
HETATM   11  N   UNL     1      -9.021  13.021  68.272  1.00  0.00    -0.194 NA 
HETATM   12  C   UNL     1      -9.754  11.783  68.008  1.00  0.00    -0.185 C  
HETATM   13  C   UNL     1      -8.909  10.494  68.138  1.00  0.00    -0.134 C  
BRANCH  11  14
HETATM   14  C   UNL     1      -9.775  14.296  68.100  1.00  0.00    -0.226 C  
BRANCH  14  15
HETATM   15  C   UNL     1      -8.912  15.544  67.775  1.00  0.00    -0.173 A  
HETATM   16  C   UNL     1      -7.891  15.961  68.642  1.00  0.00    -0.164 A  
HETATM   17  C   UNL     1      -9.067  16.266  66.572  1.00  0.00    -0.302 A  
HETATM   18  C   UNL     1      -7.055  17.041  68.312  1.00  0.00    -0.190 A  
HETATM   19  C   UNL     1      -7.229  17.719  67.111  1.00  0.00    -0.204 A  
HETATM   20  C   UNL     1      -8.238  17.335  66.240  1.00  0.00    -0.302 A  
ENDBRANCH  14  15
BRANCH  14  21
HETATM   21  C   UNL     1     -10.861  14.618  69.154  1.00  0.00    -0.269 A  
HETATM   22  C   UNL     1     -12.572  15.041  71.357  1.00  0.00    -0.335 A  
HETATM   23 CL   UNL     1     -13.532  15.220  72.771  1.00  0.00    -0.574 Cl 
HETATM   24  C   UNL     1     -12.773  13.948  70.524  1.00  0.00    -0.318 A  
HETATM   25  C   UNL     1     -10.731  15.762  69.966  1.00  0.00    -0.347 A  
HETATM   26  C   UNL     1     -11.942  13.757  69.417  1.00  0.00    -0.397 A  
HETATM   27  C   UNL     1     -11.583  15.971  71.059  1.00  0.00    -0.472 A  
ENDBRANCH  14  21
ENDBRANCH  11  14
ENDBRANCH   7   8
ENDBRANCH   6   7
ENDBRANCH   5   6
ENDBRANCH   3   5
TORSDOF 7
ENDMDL
MODEL      126
REMARK 921   NORMALIZED FREE ENERGY PREDICTED BY IDOCK:   -4.44 KCAL/MOL
REMARK 922        TOTAL FREE ENERGY PREDICTED BY IDOCK:   -7.29 KCAL/MOL
REMARK 923 INTER-LIGAND FREE ENERGY PREDICTED BY IDOCK:   -6.36 KCAL/MOL
REMARK 924 INTRA-LIGAND FREE ENERGY PREDICTED BY IDOCK:   -0.93 KCAL/MOL
REMARK 927      BINDING AFFINITY PREDICTED BY RF-SCORE:    0.00 PKD
ROOT
HETATM    1  O   UNL     1     -11.483   3.650  73.471  1.00  0.00    -0.212 OA 
HETATM    2  C   UNL     1     -10.350   3.793  72.730  1.00  0.00    -0.162 C  
HETATM    3  C   UNL     1      -9.634   5.098  73.026  1.00  0.00    -0.142 C  
HETATM    4  O   UNL     1      -9.970   2.949  71.933  1.00  0.00    -0.170 OA 
ENDROOT
BRANCH   3   5
HETATM    5  O   UNL     1     -10.384   5.845  73.998  1.00  0.00    -0.247 OA 
BRANCH   5   6
HETATM    6  C   UNL     1     -10.102   7.254  73.900  1.00  0.00    -0.265 C  
BRANCH   6   7
HETATM    7  C   UNL     1     -10.037   7.644  72.412  1.00  0.00    -0.211 C  
BRANCH   7   8
HETATM    8  N   UNL     1     -11.321   8.058  71.823  1.00  0.00    -0.258 NA 
HETATM    9  C   UNL     1     -11.410   9.497  71.500  1.00  0.00    -0.385 C  
HETATM   10  C   UNL     1     -10.587   9.978  70.272  1.00  0.00    -0.295 C  
HETATM   11  N   UNL     1     -10.688   9.132  69.068  1.00  0.00    -0.194 NA 
HETATM   12  C   UNL     1     -10.702   7.703  69.378  1.00  0.00    -0.184 C  
HETATM   13  C   UNL     1     -11.597   7.313  70.578  1.00  0.00    -0.258 C  
BRANCH  11  14
HETATM   14  C   UNL     1      -9.792   9.569  67.959  1.00  0.00    -0.155 C  
BRANCH  14  15
HETATM   15  C   UNL     1      -8.457  10.227  68.397  1.00  0.00    -0.124 A  
HETATM   16  C   UNL     1      -8.253  11.608  68.257  1.00  0.00    -0.156 A  
HETATM   17  C   UNL     1      -7.427   9.485  69.015  1.00  0.00    -0.074 A  
HETATM   18  C   UNL     1      -7.079  12.219  68.728  1.00  0.00    -0.107 A  
HETATM   19  C   UNL     1      -6.092  11.458  69.344  1.00  0.00    -0.078 A  
HETATM   20  C   UNL     1      -6.263  10.088  69.486  1.00  0.00    -0.046 A  
ENDBRANCH  14  15
BRANCH  14  21
HETATM   21  C   UNL     1     -10.447  10.342  66.789  1.00  0.00    -0.287 A  
HETATM   22  C   UNL     1     -11.290  11.988  64.659  1.00  0.00    -0.318 A  
HETATM   23 CL   UNL     1     -11.701  13.074  63.391  1.00  0.00    -0.541 Cl 
HETATM   24  C   UNL     1     -11.766  12.219  65.943  1.00  0.00    -0.451 A  
HETATM   25  C   UNL     1     -10.044  10.080  65.465  1.00  0.00    -0.325 A  
HETATM   26  C   UNL     1     -11.369  11.384  66.991  1.00  0.00    -0.309 A  
HETATM   27  C   UNL     1     -10.464  10.897  64.408  1.00  0.00    -0.403 A  
ENDBRANCH  14  21
ENDBRANCH  11  14
ENDBRANCH   7   8
ENDBRANCH   6   7
ENDBRANCH   5   6
ENDBRANCH   3   5
TORSDOF 7
ENDMDL
MODEL      127
REMARK 921   NORMALIZED FREE ENERGY PREDICTED BY IDOCK:   -4.42 KCAL/MOL
REMARK 922        TOTAL FREE ENERGY PREDICTED BY IDOCK:   -7.27 KCAL/MOL
REMARK 923 INTER-LIGAND FREE ENERGY PREDICTED BY IDOCK:   -6.59 KCAL/MOL
REMARK 924 INTRA-LIGAND FREE ENERGY PREDICTED BY IDOCK:   -0.68 KCAL/MOL
REMARK 927      BINDING AFFINITY PREDICTED BY RF-SCORE:    0.00 PKD
ROOT
HETATM    1  O   UNL     1      -5.875   7.236  63.910  1.00  0.00    -0.039 OA 
HETATM    2  C   UNL     1      -7.021   6.604  63.535  1.00  0.00    -0.052 C  
HETATM    3  C   UNL     1      -7.826   6.123  64.729  1.00  0.00    -0.109 C  
HETATM    4  O   UNL     1      -7.346   6.461  62.366  1.00  0.00    -0.049 OA 
ENDROOT
BRANCH   3   5
HETATM    5  O   UNL     1      -7.123   6.448  65.940  1.00  0.00    -0.063 OA 
BRANCH   5   6
HETATM    6  C   UNL     1      -7.978   6.301  67.091  1.00  0.00    -0.109 C  
BRANCH   6   7
HETATM    7  C   UNL     1      -7.720   7.476  68.051  1.00  0.00    -0.116 C  
BRANCH   7   8
HETATM    8  N   UNL     1      -8.014   8.807  67.494  1.00  0.00    -0.102 NA 
HETATM    9  C   UNL     1      -9.336   8.922  66.848  1.00  0.00    -0.168 C  
HETATM   10  C   UNL     1     -10.567   8.948  67.798  1.00  0.00    -0.202 C  
HETATM   11  N   UNL     1     -10.444   9.833  68.971  1.00  0.00    -0.205 NA 
HETATM   12  C   UNL     1      -9.108   9.806  69.566  1.00  0.00    -0.216 C  
HETATM   13  C   UNL     1      -7.949   9.845  68.544  1.00  0.00    -0.086 C  
BRANCH  11  14
HETATM   14  C   UNL     1     -11.598   9.734  69.912  1.00  0.00    -0.079 C  
BRANCH  14  15
HETATM   15  C   UNL     1     -12.071  11.076  70.532  1.00  0.00    -0.470 A  
HETATM   16  C   UNL     1     -11.725  12.303  69.947  1.00  0.00    -0.346 A  
HETATM   17  C   UNL     1     -12.920  11.119  71.659  1.00  0.00    -0.548 A  
HETATM   18  C   UNL     1     -12.218  13.516  70.457  1.00  0.00    -0.433 A  
HETATM   19  C   UNL     1     -13.064  13.518  71.561  1.00  0.00    -0.427 A  
HETATM   20  C   UNL     1     -13.414  12.319  72.166  1.00  0.00    -0.431 A  
ENDBRANCH  14  15
BRANCH  14  21
HETATM   21  C   UNL     1     -11.548   8.608  70.971  1.00  0.00    -0.325 A  
HETATM   22  C   UNL     1     -11.071   6.470  72.749  1.00  0.00    -0.245 A  
HETATM   23 CL   UNL     1     -10.674   5.135  73.757  1.00  0.00    -0.330 Cl 
HETATM   24  C   UNL     1     -11.851   6.269  71.618  1.00  0.00    -0.315 A  
HETATM   25  C   UNL     1     -10.830   8.804  72.167  1.00  0.00    -0.400 A  
HETATM   26  C   UNL     1     -12.109   7.337  70.754  1.00  0.00    -0.284 A  
HETATM   27  C   UNL     1     -10.595   7.742  73.050  1.00  0.00    -0.441 A  
ENDBRANCH  14  21
ENDBRANCH  11  14
ENDBRANCH   7   8
ENDBRANCH   6   7
ENDBRANCH   5   6
ENDBRANCH   3   5
TORSDOF 7
ENDMDL
MODEL      128
REMARK 921   NORMALIZED FREE ENERGY PREDICTED BY IDOCK:   -4.42 KCAL/MOL
REMARK 922        TOTAL FREE ENERGY PREDICTED BY IDOCK:   -7.26 KCAL/MOL
REMARK 923 INTER-LIGAND FREE ENERGY PREDICTED BY IDOCK:   -6.83 KCAL/MOL
REMARK 924 INTRA-LIGAND FREE ENERGY PREDICTED BY IDOCK:   -0.43 KCAL/MOL
REMARK 927      BINDING AFFINITY PREDICTED BY RF-SCORE:    0.00 PKD
ROOT
HETATM    1  O   UNL     1     -10.836   5.110  66.490  1.00  0.00    -0.258 OA 
HETATM    2  C   UNL     1      -9.784   4.525  67.126  1.00  0.00    -0.197 C  
HETATM    3  C   UNL     1      -8.982   5.522  67.942  1.00  0.00    -0.108 C  
HETATM    4  O   UNL     1      -9.541   3.331  67.041  1.00  0.00    -0.173 OA 
ENDROOT
BRANCH   3   5
HETATM    5  O   UNL     1      -9.549   6.834  67.784  1.00  0.00    -0.125 OA 
BRANCH   5   6
HETATM    6  C   UNL     1      -8.662   7.697  67.046  1.00  0.00    -0.126 C  
BRANCH   6   7
HETATM    7  C   UNL     1      -9.506   8.706  66.246  1.00  0.00    -0.241 C  
BRANCH   7   8
HETATM    8  N   UNL     1      -8.735   9.593  65.359  1.00  0.00    -0.148 NA 
HETATM    9  C   UNL     1      -9.542  10.285  64.334  1.00  0.00    -0.316 C  
HETATM   10  C   UNL     1     -10.458  11.436  64.840  1.00  0.00    -0.305 C  
HETATM   11  N   UNL     1      -9.829  12.380  65.783  1.00  0.00    -0.255 NA 
HETATM   12  C   UNL     1      -8.947  11.720  66.744  1.00  0.00    -0.196 C  
HETATM   13  C   UNL     1      -8.030  10.633  66.136  1.00  0.00    -0.151 C  
BRANCH  11  14
HETATM   14  C   UNL     1     -10.777  13.394  66.329  1.00  0.00    -0.287 C  
BRANCH  14  15
HETATM   15  C   UNL     1     -10.271  14.860  66.312  1.00  0.00    -0.306 A  
HETATM   16  C   UNL     1     -10.934  15.844  65.563  1.00  0.00    -0.248 A  
HETATM   17  C   UNL     1      -9.175  15.281  67.096  1.00  0.00    -0.223 A  
HETATM   18  C   UNL     1     -10.528  17.188  65.609  1.00  0.00    -0.208 A  
HETATM   19  C   UNL     1      -9.452  17.568  66.404  1.00  0.00    -0.276 A  
HETATM   20  C   UNL     1      -8.771  16.614  67.147  1.00  0.00    -0.215 A  
ENDBRANCH  14  15
BRANCH  14  21
HETATM   21  C   UNL     1     -11.478  13.052  67.666  1.00  0.00    -0.369 A  
HETATM   22  C   UNL     1     -12.374  12.484  70.279  1.00  0.00    -0.190 A  
HETATM   23 CL   UNL     1     -12.790  12.130  71.909  1.00  0.00    -0.388 Cl 
HETATM   24  C   UNL     1     -12.109  11.445  69.397  1.00  0.00    -0.358 A  
HETATM   25  C   UNL     1     -11.832  14.087  68.553  1.00  0.00    -0.399 A  
HETATM   26  C   UNL     1     -11.693  11.730  68.094  1.00  0.00    -0.377 A  
HETATM   27  C   UNL     1     -12.278  13.803  69.851  1.00  0.00    -0.383 A  
ENDBRANCH  14  21
ENDBRANCH  11  14
ENDBRANCH   7   8
ENDBRANCH   6   7
ENDBRANCH   5   6
ENDBRANCH   3   5
TORSDOF 7
ENDMDL
MODEL      129
REMARK 921   NORMALIZED FREE ENERGY PREDICTED BY IDOCK:   -4.41 KCAL/MOL
REMARK 922        TOTAL FREE ENERGY PREDICTED BY IDOCK:   -7.25 KCAL/MOL
REMARK 923 INTER-LIGAND FREE ENERGY PREDICTED BY IDOCK:   -6.45 KCAL/MOL
REMARK 924 INTRA-LIGAND FREE ENERGY PREDICTED BY IDOCK:   -0.79 KCAL/MOL
REMARK 927      BINDING AFFINITY PREDICTED BY RF-SCORE:    0.00 PKD
ROOT
HETATM    1  O   UNL     1      -7.609   8.290  62.971  1.00  0.00    -0.109 OA 
HETATM    2  C   UNL     1      -6.631   7.419  63.340  1.00  0.00    -0.053 C  
HETATM    3  C   UNL     1      -6.724   7.042  64.808  1.00  0.00    -0.046 C  
HETATM    4  O   UNL     1      -5.792   6.996  62.559  1.00  0.00    -0.039 OA 
ENDROOT
BRANCH   3   5
HETATM    5  O   UNL     1      -7.818   7.750  65.414  1.00  0.00    -0.099 OA 
BRANCH   5   6
HETATM    6  C   UNL     1      -8.137   7.203  66.707  1.00  0.00    -0.113 C  
BRANCH   6   7
HETATM    7  C   UNL     1      -8.627   8.342  67.620  1.00  0.00    -0.130 C  
BRANCH   7   8
HETATM    8  N   UNL     1      -9.920   8.095  68.280  1.00  0.00    -0.180 NA 
HETATM    9  C   UNL     1      -9.997   8.577  69.674  1.00  0.00    -0.192 C  
HETATM   10  C   UNL     1     -10.090  10.117  69.865  1.00  0.00    -0.222 C  
HETATM   11  N   UNL     1     -11.050  10.810  68.985  1.00  0.00    -0.233 NA 
HETATM   12  C   UNL     1     -11.057  10.277  67.623  1.00  0.00    -0.251 C  
HETATM   13  C   UNL     1     -11.024   8.734  67.535  1.00  0.00     0.147 C  
BRANCH  11  14
HETATM   14  C   UNL     1     -11.018  12.294  69.124  1.00  0.00    -0.162 C  
BRANCH  14  15
HETATM   15  C   UNL     1     -11.929  12.881  70.235  1.00  0.00    -0.359 A  
HETATM   16  C   UNL     1     -12.714  12.044  71.042  1.00  0.00    -0.337 A  
HETATM   17  C   UNL     1     -11.955  14.262  70.527  1.00  0.00    -0.402 A  
HETATM   18  C   UNL     1     -13.476  12.563  72.101  1.00  0.00    -0.523 A  
HETATM   19  C   UNL     1     -13.466  13.927  72.368  1.00  0.00    -0.661 A  
HETATM   20  C   UNL     1     -12.707  14.780  71.579  1.00  0.00    -0.401 A  
ENDBRANCH  14  15
BRANCH  14  21
HETATM   21  C   UNL     1     -11.108  13.124  67.821  1.00  0.00    -0.287 A  
HETATM   22  C   UNL     1     -11.330  14.971  65.700  1.00  0.00    -0.297 A  
HETATM   23 CL   UNL     1     -11.510  16.187  64.498  1.00  0.00    -0.358 Cl 
HETATM   24  C   UNL     1     -12.419  14.184  66.050  1.00  0.00    -0.454 A  
HETATM   25  C   UNL     1      -9.996  13.875  67.392  1.00  0.00    -0.240 A  
HETATM   26  C   UNL     1     -12.298  13.251  67.083  1.00  0.00    -0.163 A  
HETATM   27  C   UNL     1     -10.107  14.791  66.338  1.00  0.00    -0.291 A  
ENDBRANCH  14  21
ENDBRANCH  11  14
ENDBRANCH   7   8
ENDBRANCH   6   7
ENDBRANCH   5   6
ENDBRANCH   3   5
TORSDOF 7
ENDMDL
MODEL      130
REMARK 921   NORMALIZED FREE ENERGY PREDICTED BY IDOCK:   -4.40 KCAL/MOL
REMARK 922        TOTAL FREE ENERGY PREDICTED BY IDOCK:   -7.23 KCAL/MOL
REMARK 923 INTER-LIGAND FREE ENERGY PREDICTED BY IDOCK:   -6.88 KCAL/MOL
REMARK 924 INTRA-LIGAND FREE ENERGY PREDICTED BY IDOCK:   -0.35 KCAL/MOL
REMARK 927      BINDING AFFINITY PREDICTED BY RF-SCORE:    0.00 PKD
ROOT
HETATM    1  O   UNL     1     -10.667   4.619  65.829  1.00  0.00    -0.310 OA 
HETATM    2  C   UNL     1      -9.767   3.982  66.626  1.00  0.00    -0.192 C  
HETATM    3  C   UNL     1      -9.726   4.566  68.026  1.00  0.00    -0.134 C  
HETATM    4  O   UNL     1      -9.089   3.042  66.239  1.00  0.00    -0.145 OA 
ENDROOT
BRANCH   3   5
HETATM    5  O   UNL     1     -10.642   5.672  68.109  1.00  0.00    -0.216 OA 
BRANCH   5   6
HETATM    6  C   UNL     1     -10.796   6.118  69.469  1.00  0.00    -0.361 C  
BRANCH   6   7
HETATM    7  C   UNL     1     -10.568   7.640  69.519  1.00  0.00    -0.227 C  
BRANCH   7   8
HETATM    8  N   UNL     1      -9.268   8.090  68.993  1.00  0.00    -0.148 NA 
HETATM    9  C   UNL     1      -9.257   8.361  67.541  1.00  0.00    -0.140 C  
HETATM   10  C   UNL     1      -9.994   9.649  67.076  1.00  0.00    -0.206 C  
HETATM   11  N   UNL     1      -9.717  10.861  67.869  1.00  0.00    -0.163 NA 
HETATM   12  C   UNL     1      -9.626  10.592  69.304  1.00  0.00    -0.144 C  
HETATM   13  C   UNL     1      -8.821   9.324  69.671  1.00  0.00    -0.155 C  
BRANCH  11  14
HETATM   14  C   UNL     1     -10.534  12.039  67.458  1.00  0.00    -0.212 C  
BRANCH  14  15
HETATM   15  C   UNL     1     -11.000  12.046  65.978  1.00  0.00    -0.346 A  
HETATM   16  C   UNL     1     -12.251  12.568  65.617  1.00  0.00    -0.403 A  
HETATM   17  C   UNL     1     -10.166  11.598  64.931  1.00  0.00    -0.315 A  
HETATM   18  C   UNL     1     -12.643  12.651  64.271  1.00  0.00    -0.453 A  
HETATM   19  C   UNL     1     -11.789  12.213  63.266  1.00  0.00    -0.466 A  
HETATM   20  C   UNL     1     -10.549  11.682  63.594  1.00  0.00    -0.493 A  
ENDBRANCH  14  15
BRANCH  14  21
HETATM   21  C   UNL     1     -10.029  13.433  67.899  1.00  0.00    -0.236 A  
HETATM   22  C   UNL     1      -9.420  16.129  68.462  1.00  0.00    -0.216 A  
HETATM   23 CL   UNL     1      -9.132  17.807  68.705  1.00  0.00    -0.283 Cl 
HETATM   24  C   UNL     1      -8.676  15.434  67.518  1.00  0.00    -0.186 A  
HETATM   25  C   UNL     1     -10.713  14.136  68.911  1.00  0.00    -0.270 A  
HETATM   26  C   UNL     1      -8.962  14.090  67.262  1.00  0.00    -0.223 A  
HETATM   27  C   UNL     1     -10.408  15.476  69.190  1.00  0.00    -0.237 A  
ENDBRANCH  14  21
ENDBRANCH  11  14
ENDBRANCH   7   8
ENDBRANCH   6   7
ENDBRANCH   5   6
ENDBRANCH   3   5
TORSDOF 7
ENDMDL
MODEL      131
REMARK 921   NORMALIZED FREE ENERGY PREDICTED BY IDOCK:   -4.39 KCAL/MOL
REMARK 922        TOTAL FREE ENERGY PREDICTED BY IDOCK:   -7.23 KCAL/MOL
REMARK 923 INTER-LIGAND FREE ENERGY PREDICTED BY IDOCK:   -6.64 KCAL/MOL
REMARK 924 INTRA-LIGAND FREE ENERGY PREDICTED BY IDOCK:   -0.58 KCAL/MOL
REMARK 927      BINDING AFFINITY PREDICTED BY RF-SCORE:    0.00 PKD
ROOT
HETATM    1  O   UNL     1      -9.300  17.818  67.011  1.00  0.00    -0.247 OA 
HETATM    2  C   UNL     1      -9.585  17.687  68.335  1.00  0.00    -0.310 C  
HETATM    3  C   UNL     1      -8.786  16.573  68.986  1.00  0.00    -0.223 C  
HETATM    4  O   UNL     1     -10.388  18.404  68.913  1.00  0.00    -0.332 OA 
ENDROOT
BRANCH   3   5
HETATM    5  O   UNL     1      -7.963  15.935  67.995  1.00  0.00    -0.133 OA 
BRANCH   5   6
HETATM    6  C   UNL     1      -6.800  15.333  68.596  1.00  0.00    -0.109 C  
BRANCH   6   7
HETATM    7  C   UNL     1      -6.167  14.360  67.584  1.00  0.00    -0.079 C  
BRANCH   7   8
HETATM    8  N   UNL     1      -5.665  13.104  68.164  1.00  0.00    -0.086 NA 
HETATM    9  C   UNL     1      -6.476  12.578  69.280  1.00  0.00    -0.104 C  
HETATM   10  C   UNL     1      -7.850  11.958  68.900  1.00  0.00     0.015 C  
HETATM   11  N   UNL     1      -7.836  11.042  67.744  1.00  0.00    -0.108 NA 
HETATM   12  C   UNL     1      -6.959  11.500  66.667  1.00  0.00    -0.069 C  
HETATM   13  C   UNL     1      -5.590  12.042  67.139  1.00  0.00    -0.132 C  
BRANCH  11  14
HETATM   14  C   UNL     1      -9.193  10.567  67.346  1.00  0.00    -0.142 C  
BRANCH  14  15
HETATM   15  C   UNL     1      -9.808  11.266  66.105  1.00  0.00    -0.262 A  
HETATM   16  C   UNL     1      -9.991  12.657  66.075  1.00  0.00    -0.267 A  
HETATM   17  C   UNL     1     -10.143  10.550  64.935  1.00  0.00    -0.403 A  
HETATM   18  C   UNL     1     -10.471  13.302  64.924  1.00  0.00    -0.387 A  
HETATM   19  C   UNL     1     -10.777  12.566  63.785  1.00  0.00    -0.483 A  
HETATM   20  C   UNL     1     -10.617  11.187  63.789  1.00  0.00    -0.422 A  
ENDBRANCH  14  15
BRANCH  14  21
HETATM   21  C   UNL     1     -10.237  10.397  68.475  1.00  0.00    -0.191 A  
HETATM   22  C   UNL     1     -12.003  10.460  70.674  1.00  0.00    -0.351 A  
HETATM   23 CL   UNL     1     -13.008  10.603  72.062  1.00  0.00    -0.541 Cl 
HETATM   24  C   UNL     1     -10.836   9.711  70.744  1.00  0.00    -0.400 A  
HETATM   25  C   UNL     1     -11.466  11.081  68.400  1.00  0.00    -0.378 A  
HETATM   26  C   UNL     1      -9.977   9.658  69.644  1.00  0.00    -0.239 A  
HETATM   27  C   UNL     1     -12.343  11.111  69.493  1.00  0.00    -0.262 A  
ENDBRANCH  14  21
ENDBRANCH  11  14
ENDBRANCH   7   8
ENDBRANCH   6   7
ENDBRANCH   5   6
ENDBRANCH   3   5
TORSDOF 7
ENDMDL
MODEL      132
REMARK 921   NORMALIZED FREE ENERGY PREDICTED BY IDOCK:   -4.39 KCAL/MOL
REMARK 922        TOTAL FREE ENERGY PREDICTED BY IDOCK:   -7.21 KCAL/MOL
REMARK 923 INTER-LIGAND FREE ENERGY PREDICTED BY IDOCK:   -7.53 KCAL/MOL
REMARK 924 INTRA-LIGAND FREE ENERGY PREDICTED BY IDOCK:    0.32 KCAL/MOL
REMARK 927      BINDING AFFINITY PREDICTED BY RF-SCORE:    0.00 PKD
ROOT
HETATM    1  O   UNL     1      -7.473  10.660  62.451  1.00  0.00    -0.146 OA 
HETATM    2  C   UNL     1      -6.665   9.976  63.307  1.00  0.00    -0.133 C  
HETATM    3  C   UNL     1      -7.449   9.299  64.416  1.00  0.00    -0.106 C  
HETATM    4  O   UNL     1      -5.452   9.921  63.171  1.00  0.00    -0.088 OA 
ENDROOT
BRANCH   3   5
HETATM    5  O   UNL     1      -8.846   9.603  64.268  1.00  0.00    -0.204 OA 
BRANCH   5   6
HETATM    6  C   UNL     1      -9.276  10.562  65.252  1.00  0.00    -0.200 C  
BRANCH   6   7
HETATM    7  C   UNL     1     -10.808  10.696  65.177  1.00  0.00     0.110 C  
BRANCH   7   8
HETATM    8  N   UNL     1     -11.299  11.615  64.137  1.00  0.00    -0.343 NA 
HETATM    9  C   UNL     1     -12.564  12.300  64.474  1.00  0.00    -0.327 C  
HETATM   10  C   UNL     1     -12.475  13.419  65.550  1.00  0.00    -0.483 C  
HETATM   11  N   UNL     1     -11.356  14.366  65.390  1.00  0.00    -0.328 NA 
HETATM   12  C   UNL     1     -10.119  13.716  64.960  1.00  0.00    -0.267 C  
HETATM   13  C   UNL     1     -10.300  12.663  63.843  1.00  0.00    -0.377 C  
BRANCH  11  14
HETATM   14  C   UNL     1     -11.244  15.347  66.509  1.00  0.00    -0.162 C  
BRANCH  14  15
HETATM   15  C   UNL     1     -10.001  16.274  66.462  1.00  0.00    -0.290 A  
HETATM   16  C   UNL     1     -10.142  17.664  66.335  1.00  0.00    -0.356 A  
HETATM   17  C   UNL     1      -8.690  15.774  66.616  1.00  0.00    -0.323 A  
HETATM   18  C   UNL     1      -9.024  18.514  66.375  1.00  0.00    -0.276 A  
HETATM   19  C   UNL     1      -7.749  17.986  66.542  1.00  0.00    -0.283 A  
HETATM   20  C   UNL     1      -7.579  16.613  66.659  1.00  0.00    -0.314 A  
ENDBRANCH  14  15
BRANCH  14  21
HETATM   21  C   UNL     1     -11.500  14.815  67.939  1.00  0.00    -0.361 A  
HETATM   22  C   UNL     1     -12.354  13.746  70.406  1.00  0.00    -0.353 A  
HETATM   23 CL   UNL     1     -13.000  13.095  71.860  1.00  0.00    -0.434 Cl 
HETATM   24  C   UNL     1     -12.348  15.121  70.212  1.00  0.00    -0.398 A  
HETATM   25  C   UNL     1     -11.439  13.430  68.191  1.00  0.00    -0.339 A  
HETATM   26  C   UNL     1     -11.898  15.649  68.999  1.00  0.00    -0.379 A  
HETATM   27  C   UNL     1     -11.862  12.900  69.417  1.00  0.00    -0.371 A  
ENDBRANCH  14  21
ENDBRANCH  11  14
ENDBRANCH   7   8
ENDBRANCH   6   7
ENDBRANCH   5   6
ENDBRANCH   3   5
TORSDOF 7
ENDMDL
MODEL      133
REMARK 921   NORMALIZED FREE ENERGY PREDICTED BY IDOCK:   -4.37 KCAL/MOL
REMARK 922        TOTAL FREE ENERGY PREDICTED BY IDOCK:   -7.19 KCAL/MOL
REMARK 923 INTER-LIGAND FREE ENERGY PREDICTED BY IDOCK:   -6.14 KCAL/MOL
REMARK 924 INTRA-LIGAND FREE ENERGY PREDICTED BY IDOCK:   -1.05 KCAL/MOL
REMARK 927      BINDING AFFINITY PREDICTED BY RF-SCORE:    0.00 PKD
ROOT
HETATM    1  O   UNL     1     -10.887   5.053  65.904  1.00  0.00    -0.253 OA 
HETATM    2  C   UNL     1     -10.465   5.763  66.985  1.00  0.00    -0.280 C  
HETATM    3  C   UNL     1      -9.035   6.249  66.829  1.00  0.00    -0.125 C  
HETATM    4  O   UNL     1     -11.178   5.981  67.953  1.00  0.00    -0.245 OA 
ENDROOT
BRANCH   3   5
HETATM    5  O   UNL     1      -8.507   5.784  65.575  1.00  0.00    -0.141 OA 
BRANCH   5   6
HETATM    6  C   UNL     1      -7.857   6.851  64.859  1.00  0.00    -0.122 C  
BRANCH   6   7
HETATM    7  C   UNL     1      -8.291   8.195  65.472  1.00  0.00    -0.153 C  
BRANCH   7   8
HETATM    8  N   UNL     1      -8.133   9.360  64.586  1.00  0.00    -0.125 NA 
HETATM    9  C   UNL     1      -9.335  10.212  64.475  1.00  0.00    -0.289 C  
HETATM   10  C   UNL     1      -9.676  11.086  65.714  1.00  0.00    -0.224 C  
HETATM   11  N   UNL     1      -8.539  11.808  66.315  1.00  0.00    -0.118 NA 
HETATM   12  C   UNL     1      -7.312  11.012  66.343  1.00  0.00    -0.128 C  
HETATM   13  C   UNL     1      -7.026  10.225  65.043  1.00  0.00    -0.112 C  
BRANCH  11  14
HETATM   14  C   UNL     1      -8.894  12.537  67.567  1.00  0.00    -0.184 C  
BRANCH  14  15
HETATM   15  C   UNL     1      -9.976  11.861  68.450  1.00  0.00    -0.203 A  
HETATM   16  C   UNL     1      -9.665  10.755  69.255  1.00  0.00    -0.142 A  
HETATM   17  C   UNL     1     -11.291  12.368  68.537  1.00  0.00    -0.336 A  
HETATM   18  C   UNL     1     -10.620  10.192  70.117  1.00  0.00    -0.337 A  
HETATM   19  C   UNL     1     -11.902  10.726  70.186  1.00  0.00    -0.427 A  
HETATM   20  C   UNL     1     -12.241  11.814  69.394  1.00  0.00    -0.219 A  
ENDBRANCH  14  15
BRANCH  14  21
HETATM   21  C   UNL     1      -9.129  14.061  67.451  1.00  0.00    -0.209 A  
HETATM   22  C   UNL     1      -9.936  16.764  67.410  1.00  0.00    -0.267 A  
HETATM   23 CL   UNL     1     -10.553  18.368  67.414  1.00  0.00    -0.444 Cl 
HETATM   24  C   UNL     1     -10.015  16.000  66.253  1.00  0.00    -0.329 A  
HETATM   25  C   UNL     1      -8.982  14.880  68.587  1.00  0.00    -0.184 A  
HETATM   26  C   UNL     1      -9.588  14.670  66.269  1.00  0.00    -0.333 A  
HETATM   27  C   UNL     1      -9.382  16.223  68.566  1.00  0.00    -0.213 A  
ENDBRANCH  14  21
ENDBRANCH  11  14
ENDBRANCH   7   8
ENDBRANCH   6   7
ENDBRANCH   5   6
ENDBRANCH   3   5
TORSDOF 7
ENDMDL
MODEL      134
REMARK 921   NORMALIZED FREE ENERGY PREDICTED BY IDOCK:   -4.36 KCAL/MOL
REMARK 922        TOTAL FREE ENERGY PREDICTED BY IDOCK:   -7.18 KCAL/MOL
REMARK 923 INTER-LIGAND FREE ENERGY PREDICTED BY IDOCK:   -6.32 KCAL/MOL
REMARK 924 INTRA-LIGAND FREE ENERGY PREDICTED BY IDOCK:   -0.85 KCAL/MOL
REMARK 927      BINDING AFFINITY PREDICTED BY RF-SCORE:    0.00 PKD
ROOT
HETATM    1  O   UNL     1     -11.589  16.189  66.401  1.00  0.00     0.402 OA 
HETATM    2  C   UNL     1     -11.202  15.945  65.119  1.00  0.00    -0.224 C  
HETATM    3  C   UNL     1     -10.662  14.538  64.941  1.00  0.00    -0.429 C  
HETATM    4  O   UNL     1     -11.298  16.777  64.230  1.00  0.00    -1.170 OA 
ENDROOT
BRANCH   3   5
HETATM    5  O   UNL     1     -10.680  13.856  66.207  1.00  0.00    -0.282 OA 
BRANCH   5   6
HETATM    6  C   UNL     1      -9.346  13.527  66.638  1.00  0.00    -0.245 C  
BRANCH   6   7
HETATM    7  C   UNL     1      -9.232  11.997  66.771  1.00  0.00    -0.201 C  
BRANCH   7   8
HETATM    8  N   UNL     1     -10.454  11.253  66.426  1.00  0.00    -0.249 NA 
HETATM    9  C   UNL     1     -10.239  10.116  65.507  1.00  0.00    -0.218 C  
HETATM   10  C   UNL     1      -9.539   8.866  66.111  1.00  0.00    -0.265 C  
HETATM   11  N   UNL     1     -10.043   8.429  67.426  1.00  0.00    -0.214 NA 
HETATM   12  C   UNL     1     -10.355   9.548  68.316  1.00  0.00    -0.207 C  
HETATM   13  C   UNL     1     -11.107  10.717  67.638  1.00  0.00    -0.319 C  
BRANCH  11  14
HETATM   14  C   UNL     1      -9.264   7.302  68.016  1.00  0.00    -0.131 C  
BRANCH  14  15
HETATM   15  C   UNL     1      -9.286   5.979  67.206  1.00  0.00    -0.115 A  
HETATM   16  C   UNL     1     -10.431   5.586  66.497  1.00  0.00    -0.331 A  
HETATM   17  C   UNL     1      -8.145   5.155  67.090  1.00  0.00    -0.104 A  
HETATM   18  C   UNL     1     -10.429   4.431  65.697  1.00  0.00    -0.224 A  
HETATM   19  C   UNL     1      -9.282   3.652  65.596  1.00  0.00    -0.156 A  
HETATM   20  C   UNL     1      -8.138   4.011  66.295  1.00  0.00    -0.098 A  
ENDBRANCH  14  15
BRANCH  14  21
HETATM   21  C   UNL     1      -9.441   7.042  69.531  1.00  0.00    -0.147 A  
HETATM   22  C   UNL     1      -9.948   6.947  72.304  1.00  0.00    -0.161 A  
HETATM   23 CL   UNL     1     -10.289   7.021  73.988  1.00  0.00    -0.384 Cl 
HETATM   24  C   UNL     1      -8.684   7.287  71.843  1.00  0.00    -0.124 A  
HETATM   25  C   UNL     1     -10.690   6.620  70.027  1.00  0.00    -0.287 A  
HETATM   26  C   UNL     1      -8.427   7.305  70.470  1.00  0.00    -0.138 A  
HETATM   27  C   UNL     1     -10.941   6.573  71.405  1.00  0.00    -0.303 A  
ENDBRANCH  14  21
ENDBRANCH  11  14
ENDBRANCH   7   8
ENDBRANCH   6   7
ENDBRANCH   5   6
ENDBRANCH   3   5
TORSDOF 7
ENDMDL
MODEL      135
REMARK 921   NORMALIZED FREE ENERGY PREDICTED BY IDOCK:   -4.36 KCAL/MOL
REMARK 922        TOTAL FREE ENERGY PREDICTED BY IDOCK:   -7.17 KCAL/MOL
REMARK 923 INTER-LIGAND FREE ENERGY PREDICTED BY IDOCK:   -6.50 KCAL/MOL
REMARK 924 INTRA-LIGAND FREE ENERGY PREDICTED BY IDOCK:   -0.67 KCAL/MOL
REMARK 927      BINDING AFFINITY PREDICTED BY RF-SCORE:    0.00 PKD
ROOT
HETATM    1  O   UNL     1      -7.836  10.994  62.339  1.00  0.00    -0.150 OA 
HETATM    2  C   UNL     1      -6.949  10.208  63.006  1.00  0.00    -0.133 C  
HETATM    3  C   UNL     1      -7.634   9.291  64.004  1.00  0.00    -0.113 C  
HETATM    4  O   UNL     1      -5.745  10.246  62.801  1.00  0.00    -0.110 OA 
ENDROOT
BRANCH   3   5
HETATM    5  O   UNL     1      -9.049   9.540  63.987  1.00  0.00    -0.228 OA 
BRANCH   5   6
HETATM    6  C   UNL     1      -9.568   9.680  65.323  1.00  0.00    -0.277 C  
BRANCH   6   7
HETATM    7  C   UNL     1      -8.745   8.785  66.269  1.00  0.00    -0.147 C  
BRANCH   7   8
HETATM    8  N   UNL     1      -9.337   7.466  66.545  1.00  0.00    -0.175 NA 
HETATM    9  C   UNL     1      -8.643   6.691  67.593  1.00  0.00    -0.120 C  
HETATM   10  C   UNL     1      -8.837   7.184  69.055  1.00  0.00    -0.131 C  
HETATM   11  N   UNL     1     -10.222   7.516  69.435  1.00  0.00    -0.199 NA 
HETATM   12  C   UNL     1     -10.956   8.197  68.369  1.00  0.00     0.225 C  
HETATM   13  C   UNL     1     -10.749   7.596  66.960  1.00  0.00    -0.270 C  
BRANCH  11  14
HETATM   14  C   UNL     1     -10.340   8.095  70.805  1.00  0.00    -0.196 C  
BRANCH  14  15
HETATM   15  C   UNL     1     -10.351   7.066  71.967  1.00  0.00    -0.220 A  
HETATM   16  C   UNL     1      -9.792   7.379  73.215  1.00  0.00    -0.322 A  
HETATM   17  C   UNL     1     -10.981   5.808  71.844  1.00  0.00    -0.318 A  
HETATM   18  C   UNL     1      -9.873   6.482  74.293  1.00  0.00    -0.337 A  
HETATM   19  C   UNL     1     -10.513   5.258  74.138  1.00  0.00    -0.319 A  
HETATM   20  C   UNL     1     -11.066   4.917  72.911  1.00  0.00    -0.329 A  
ENDBRANCH  14  15
BRANCH  14  21
HETATM   21  C   UNL     1     -11.406   9.196  71.014  1.00  0.00    -0.377 A  
HETATM   22  C   UNL     1     -13.084  11.363  71.682  1.00  0.00    -0.393 A  
HETATM   23 CL   UNL     1     -14.025  12.707  72.196  1.00  0.00    -0.259 Cl 
HETATM   24  C   UNL     1     -13.327  10.107  72.222  1.00  0.00    -0.337 A  
HETATM   25  C   UNL     1     -11.232  10.460  70.418  1.00  0.00    -0.399 A  
HETATM   26  C   UNL     1     -12.512   9.029  71.867  1.00  0.00    -0.454 A  
HETATM   27  C   UNL     1     -12.067  11.536  70.749  1.00  0.00    -0.410 A  
ENDBRANCH  14  21
ENDBRANCH  11  14
ENDBRANCH   7   8
ENDBRANCH   6   7
ENDBRANCH   5   6
ENDBRANCH   3   5
TORSDOF 7
ENDMDL
MODEL      136
REMARK 921   NORMALIZED FREE ENERGY PREDICTED BY IDOCK:   -4.35 KCAL/MOL
REMARK 922        TOTAL FREE ENERGY PREDICTED BY IDOCK:   -7.16 KCAL/MOL
REMARK 923 INTER-LIGAND FREE ENERGY PREDICTED BY IDOCK:   -6.25 KCAL/MOL
REMARK 924 INTRA-LIGAND FREE ENERGY PREDICTED BY IDOCK:   -0.91 KCAL/MOL
REMARK 927      BINDING AFFINITY PREDICTED BY RF-SCORE:    0.00 PKD
ROOT
HETATM    1  O   UNL     1     -10.964  11.448  63.912  1.00  0.00    -0.373 OA 
HETATM    2  C   UNL     1     -12.110  12.180  63.963  1.00  0.00    -0.443 C  
HETATM    3  C   UNL     1     -12.009  13.334  64.943  1.00  0.00    -0.378 C  
HETATM    4  O   UNL     1     -13.090  11.923  63.280  1.00  0.00    -0.674 OA 
ENDROOT
BRANCH   3   5
HETATM    5  O   UNL     1     -10.719  13.309  65.578  1.00  0.00    -0.280 OA 
BRANCH   5   6
HETATM    6  C   UNL     1     -10.806  12.760  66.907  1.00  0.00    -0.253 C  
BRANCH   6   7
HETATM    7  C   UNL     1      -9.463  12.986  67.625  1.00  0.00    -0.201 C  
BRANCH   7   8
HETATM    8  N   UNL     1      -8.364  12.118  67.171  1.00  0.00    -0.178 NA 
HETATM    9  C   UNL     1      -7.257  11.977  68.139  1.00  0.00    -0.090 C  
HETATM   10  C   UNL     1      -7.547  11.107  69.394  1.00  0.00    -0.008 C  
HETATM   11  N   UNL     1      -8.225   9.823  69.134  1.00  0.00    -0.121 NA 
HETATM   12  C   UNL     1      -9.259   9.925  68.105  1.00  0.00    -0.128 C  
HETATM   13  C   UNL     1      -8.855  10.759  66.867  1.00  0.00    -0.140 C  
BRANCH  11  14
HETATM   14  C   UNL     1      -8.586   9.080  70.376  1.00  0.00    -0.193 C  
BRANCH  14  15
HETATM   15  C   UNL     1      -7.615   7.940  70.780  1.00  0.00    -0.078 A  
HETATM   16  C   UNL     1      -7.344   7.665  72.129  1.00  0.00    -0.075 A  
HETATM   17  C   UNL     1      -7.021   7.090  69.821  1.00  0.00    -0.059 A  
HETATM   18  C   UNL     1      -6.529   6.583  72.501  1.00  0.00    -0.059 A  
HETATM   19  C   UNL     1      -5.973   5.759  71.528  1.00  0.00    -0.026 A  
HETATM   20  C   UNL     1      -6.216   6.013  70.185  1.00  0.00    -0.031 A  
ENDBRANCH  14  15
BRANCH  14  21
HETATM   21  C   UNL     1     -10.063   8.647  70.531  1.00  0.00    -0.228 A  
HETATM   22  C   UNL     1     -12.651   7.754  71.211  1.00  0.00    -0.264 A  
HETATM   23 CL   UNL     1     -14.175   7.158  71.738  1.00  0.00    -0.523 Cl 
HETATM   24  C   UNL     1     -11.799   6.924  70.496  1.00  0.00    -0.385 A  
HETATM   25  C   UNL     1     -10.977   9.498  71.184  1.00  0.00    -0.438 A  
HETATM   26  C   UNL     1     -10.528   7.380  70.136  1.00  0.00    -0.228 A  
HETATM   27  C   UNL     1     -12.263   9.054  71.520  1.00  0.00    -0.403 A  
ENDBRANCH  14  21
ENDBRANCH  11  14
ENDBRANCH   7   8
ENDBRANCH   6   7
ENDBRANCH   5   6
ENDBRANCH   3   5
TORSDOF 7
ENDMDL
MODEL      137
REMARK 921   NORMALIZED FREE ENERGY PREDICTED BY IDOCK:   -4.35 KCAL/MOL
REMARK 922        TOTAL FREE ENERGY PREDICTED BY IDOCK:   -7.16 KCAL/MOL
REMARK 923 INTER-LIGAND FREE ENERGY PREDICTED BY IDOCK:   -5.94 KCAL/MOL
REMARK 924 INTRA-LIGAND FREE ENERGY PREDICTED BY IDOCK:   -1.22 KCAL/MOL
REMARK 927      BINDING AFFINITY PREDICTED BY RF-SCORE:    0.00 PKD
ROOT
HETATM    1  O   UNL     1      -6.069  14.481  68.643  1.00  0.00    -0.078 OA 
HETATM    2  C   UNL     1      -6.551  13.358  69.243  1.00  0.00    -0.097 C  
HETATM    3  C   UNL     1      -7.628  12.684  68.413  1.00  0.00    -0.132 C  
HETATM    4  O   UNL     1      -6.139  12.954  70.320  1.00  0.00    -0.146 OA 
ENDROOT
BRANCH   3   5
HETATM    5  O   UNL     1      -7.865  13.453  67.222  1.00  0.00    -0.157 OA 
BRANCH   5   6
HETATM    6  C   UNL     1      -9.272  13.693  67.031  1.00  0.00    -0.250 C  
BRANCH   6   7
HETATM    7  C   UNL     1     -10.041  13.113  68.233  1.00  0.00    -0.247 C  
BRANCH   7   8
HETATM    8  N   UNL     1     -11.280  12.397  67.888  1.00  0.00    -0.247 NA 
HETATM    9  C   UNL     1     -11.126  11.383  66.825  1.00  0.00    -0.281 C  
HETATM   10  C   UNL     1     -10.376  10.080  67.222  1.00  0.00    -0.237 C  
HETATM   11  N   UNL     1     -10.781   9.480  68.507  1.00  0.00    -0.208 NA 
HETATM   12  C   UNL     1     -11.034  10.479  69.545  1.00  0.00    -0.264 C  
HETATM   13  C   UNL     1     -11.840  11.710  69.070  1.00  0.00    -0.328 C  
BRANCH  11  14
HETATM   14  C   UNL     1      -9.954   8.302  68.899  1.00  0.00    -0.186 C  
BRANCH  14  15
HETATM   15  C   UNL     1      -9.738   7.239  67.789  1.00  0.00    -0.167 A  
HETATM   16  C   UNL     1      -8.451   6.943  67.315  1.00  0.00    -0.121 A  
HETATM   17  C   UNL     1     -10.806   6.480  67.264  1.00  0.00    -0.463 A  
HETATM   18  C   UNL     1      -8.242   5.924  66.370  1.00  0.00    -0.112 A  
HETATM   19  C   UNL     1      -9.317   5.188  65.885  1.00  0.00    -0.167 A  
HETATM   20  C   UNL     1     -10.602   5.467  66.329  1.00  0.00    -0.268 A  
ENDBRANCH  14  15
BRANCH  14  21
HETATM   21  C   UNL     1     -10.273   7.641  70.261  1.00  0.00    -0.205 A  
HETATM   22  C   UNL     1     -10.634   6.105  72.599  1.00  0.00    -0.218 A  
HETATM   23 CL   UNL     1     -10.806   5.063  73.956  1.00  0.00    -0.340 Cl 
HETATM   24  C   UNL     1     -11.649   6.176  71.655  1.00  0.00    -0.317 A  
HETATM   25  C   UNL     1      -9.294   7.618  71.273  1.00  0.00    -0.161 A  
HETATM   26  C   UNL     1     -11.478   6.960  70.511  1.00  0.00    -0.390 A  
HETATM   27  C   UNL     1      -9.475   6.856  72.435  1.00  0.00    -0.153 A  
ENDBRANCH  14  21
ENDBRANCH  11  14
ENDBRANCH   7   8
ENDBRANCH   6   7
ENDBRANCH   5   6
ENDBRANCH   3   5
TORSDOF 7
ENDMDL
MODEL      138
REMARK 921   NORMALIZED FREE ENERGY PREDICTED BY IDOCK:   -4.35 KCAL/MOL
REMARK 922        TOTAL FREE ENERGY PREDICTED BY IDOCK:   -7.16 KCAL/MOL
REMARK 923 INTER-LIGAND FREE ENERGY PREDICTED BY IDOCK:   -6.21 KCAL/MOL
REMARK 924 INTRA-LIGAND FREE ENERGY PREDICTED BY IDOCK:   -0.95 KCAL/MOL
REMARK 927      BINDING AFFINITY PREDICTED BY RF-SCORE:    0.00 PKD
ROOT
HETATM    1  O   UNL     1      -7.820  10.212  63.245  1.00  0.00    -0.149 OA 
HETATM    2  C   UNL     1      -6.481   9.984  63.333  1.00  0.00    -0.136 C  
HETATM    3  C   UNL     1      -6.169   8.657  64.001  1.00  0.00    -0.072 C  
HETATM    4  O   UNL     1      -5.647  10.768  62.906  1.00  0.00    -0.160 OA 
ENDROOT
BRANCH   3   5
HETATM    5  O   UNL     1      -7.397   8.018  64.390  1.00  0.00    -0.080 OA 
BRANCH   5   6
HETATM    6  C   UNL     1      -7.452   7.826  65.816  1.00  0.00    -0.078 C  
BRANCH   6   7
HETATM    7  C   UNL     1      -8.508   8.780  66.404  1.00  0.00    -0.121 C  
BRANCH   7   8
HETATM    8  N   UNL     1      -8.166   9.350  67.717  1.00  0.00    -0.114 NA 
HETATM    9  C   UNL     1      -7.405  10.614  67.656  1.00  0.00    -0.090 C  
HETATM   10  C   UNL     1      -8.200  11.875  67.214  1.00  0.00    -0.170 C  
HETATM   11  N   UNL     1      -9.518  12.051  67.852  1.00  0.00    -0.190 NA 
HETATM   12  C   UNL     1     -10.245  10.792  68.011  1.00  0.00    -0.178 C  
HETATM   13  C   UNL     1      -9.383   9.610  68.513  1.00  0.00    -0.137 C  
BRANCH  11  14
HETATM   14  C   UNL     1     -10.290  13.207  67.311  1.00  0.00    -0.243 C  
BRANCH  14  15
HETATM   15  C   UNL     1     -10.956  12.977  65.928  1.00  0.00    -0.292 A  
HETATM   16  C   UNL     1     -12.203  13.543  65.625  1.00  0.00    -0.500 A  
HETATM   17  C   UNL     1     -10.312  12.255  64.900  1.00  0.00    -0.319 A  
HETATM   18  C   UNL     1     -12.772  13.406  64.348  1.00  0.00    -0.156 A  
HETATM   19  C   UNL     1     -12.101  12.699  63.356  1.00  0.00    -0.614 A  
HETATM   20  C   UNL     1     -10.871  12.120  63.631  1.00  0.00    -0.523 A  
ENDBRANCH  14  15
BRANCH  14  21
HETATM   21  C   UNL     1      -9.620  14.599  67.392  1.00  0.00    -0.215 A  
HETATM   22  C   UNL     1      -8.793  17.293  67.515  1.00  0.00    -0.218 A  
HETATM   23 CL   UNL     1      -8.414  18.970  67.554  1.00  0.00    -0.301 Cl 
HETATM   24  C   UNL     1      -8.710  16.598  66.316  1.00  0.00    -0.359 A  
HETATM   25  C   UNL     1      -9.616  15.303  68.613  1.00  0.00    -0.206 A  
HETATM   26  C   UNL     1      -9.095  15.255  66.265  1.00  0.00    -0.337 A  
HETATM   27  C   UNL     1      -9.203  16.641  68.673  1.00  0.00    -0.248 A  
ENDBRANCH  14  21
ENDBRANCH  11  14
ENDBRANCH   7   8
ENDBRANCH   6   7
ENDBRANCH   5   6
ENDBRANCH   3   5
TORSDOF 7
ENDMDL
MODEL      139
REMARK 921   NORMALIZED FREE ENERGY PREDICTED BY IDOCK:   -4.32 KCAL/MOL
REMARK 922        TOTAL FREE ENERGY PREDICTED BY IDOCK:   -7.12 KCAL/MOL
REMARK 923 INTER-LIGAND FREE ENERGY PREDICTED BY IDOCK:   -6.12 KCAL/MOL
REMARK 924 INTRA-LIGAND FREE ENERGY PREDICTED BY IDOCK:   -1.00 KCAL/MOL
REMARK 927      BINDING AFFINITY PREDICTED BY RF-SCORE:    0.00 PKD
ROOT
HETATM    1  O   UNL     1      -9.729   2.235  71.029  1.00  0.00    -0.144 OA 
HETATM    2  C   UNL     1      -8.785   2.493  71.975  1.00  0.00    -0.069 C  
HETATM    3  C   UNL     1      -9.387   3.080  73.239  1.00  0.00    -0.089 C  
HETATM    4  O   UNL     1      -7.598   2.260  71.806  1.00  0.00    -0.039 OA 
ENDROOT
BRANCH   3   5
HETATM    5  O   UNL     1     -10.805   3.232  73.066  1.00  0.00    -0.156 OA 
BRANCH   5   6
HETATM    6  C   UNL     1     -11.255   4.507  73.564  1.00  0.00    -0.303 C  
BRANCH   6   7
HETATM    7  C   UNL     1     -10.497   5.623  72.822  1.00  0.00    -0.211 C  
BRANCH   7   8
HETATM    8  N   UNL     1     -11.100   6.962  72.934  1.00  0.00    -0.276 NA 
HETATM    9  C   UNL     1     -10.138   8.077  72.828  1.00  0.00    -0.308 C  
HETATM   10  C   UNL     1      -9.562   8.356  71.412  1.00  0.00    -0.194 C  
HETATM   11  N   UNL     1     -10.548   8.368  70.315  1.00  0.00    -0.223 NA 
HETATM   12  C   UNL     1     -11.568   7.330  70.458  1.00  0.00    -0.258 C  
HETATM   13  C   UNL     1     -12.126   7.168  71.891  1.00  0.00    -0.321 C  
BRANCH  11  14
HETATM   14  C   UNL     1      -9.933   8.522  68.965  1.00  0.00    -0.193 C  
BRANCH  14  15
HETATM   15  C   UNL     1     -10.462   9.712  68.122  1.00  0.00    -0.266 A  
HETATM   16  C   UNL     1     -11.363  10.639  68.667  1.00  0.00    -0.345 A  
HETATM   17  C   UNL     1     -10.011   9.954  66.806  1.00  0.00    -0.272 A  
HETATM   18  C   UNL     1     -11.781  11.763  67.935  1.00  0.00    -0.347 A  
HETATM   19  C   UNL     1     -11.305  11.975  66.646  1.00  0.00    -0.399 A  
HETATM   20  C   UNL     1     -10.421  11.069  66.077  1.00  0.00    -0.304 A  
ENDBRANCH  14  15
BRANCH  14  21
HETATM   21  C   UNL     1      -9.788   7.242  68.108  1.00  0.00    -0.165 A  
HETATM   22  C   UNL     1      -9.390   5.167  66.239  1.00  0.00    -0.151 A  
HETATM   23 CL   UNL     1      -9.135   3.997  65.005  1.00  0.00    -0.132 Cl 
HETATM   24  C   UNL     1     -10.668   5.661  66.463  1.00  0.00    -0.296 A  
HETATM   25  C   UNL     1      -8.516   6.665  67.923  1.00  0.00    -0.119 A  
HETATM   26  C   UNL     1     -10.866   6.670  67.410  1.00  0.00    -0.434 A  
HETATM   27  C   UNL     1      -8.320   5.634  66.995  1.00  0.00    -0.107 A  
ENDBRANCH  14  21
ENDBRANCH  11  14
ENDBRANCH   7   8
ENDBRANCH   6   7
ENDBRANCH   5   6
ENDBRANCH   3   5
TORSDOF 7
ENDMDL
MODEL      140
REMARK 921   NORMALIZED FREE ENERGY PREDICTED BY IDOCK:   -4.29 KCAL/MOL
REMARK 922        TOTAL FREE ENERGY PREDICTED BY IDOCK:   -7.07 KCAL/MOL
REMARK 923 INTER-LIGAND FREE ENERGY PREDICTED BY IDOCK:   -6.87 KCAL/MOL
REMARK 924 INTRA-LIGAND FREE ENERGY PREDICTED BY IDOCK:   -0.20 KCAL/MOL
REMARK 927      BINDING AFFINITY PREDICTED BY RF-SCORE:    0.00 PKD
ROOT
HETATM    1  O   UNL     1      -8.487   4.404  66.129  1.00  0.00    -0.112 OA 
HETATM    2  C   UNL     1      -8.752   3.163  66.620  1.00  0.00    -0.128 C  
HETATM    3  C   UNL     1      -9.066   3.189  68.104  1.00  0.00    -0.170 C  
HETATM    4  O   UNL     1      -8.742   2.160  65.922  1.00  0.00    -0.111 OA 
ENDROOT
BRANCH   3   5
HETATM    5  O   UNL     1      -8.961   4.538  68.591  1.00  0.00    -0.102 OA 
BRANCH   5   6
HETATM    6  C   UNL     1     -10.203   4.978  69.172  1.00  0.00    -0.157 C  
BRANCH   6   7
HETATM    7  C   UNL     1     -10.263   6.515  69.105  1.00  0.00    -0.180 C  
BRANCH   7   8
HETATM    8  N   UNL     1      -9.571   7.113  67.951  1.00  0.00    -0.132 NA 
HETATM    9  C   UNL     1     -10.430   7.947  67.087  1.00  0.00    -0.344 C  
HETATM   10  C   UNL     1     -10.851   9.328  67.664  1.00  0.00    -0.119 C  
HETATM   11  N   UNL     1      -9.771  10.110  68.294  1.00  0.00    -0.139 NA 
HETATM   12  C   UNL     1      -8.851   9.282  69.075  1.00  0.00    -0.136 C  
HETATM   13  C   UNL     1      -8.441   7.957  68.391  1.00  0.00    -0.128 C  
BRANCH  11  14
HETATM   14  C   UNL     1     -10.246  11.370  68.936  1.00  0.00    -0.168 C  
BRANCH  14  15
HETATM   15  C   UNL     1     -11.362  11.199  70.000  1.00  0.00    -0.326 A  
HETATM   16  C   UNL     1     -11.595   9.956  70.608  1.00  0.00    -0.413 A  
HETATM   17  C   UNL     1     -12.137  12.289  70.450  1.00  0.00    -0.385 A  
HETATM   18  C   UNL     1     -12.549   9.815  71.630  1.00  0.00    -0.509 A  
HETATM   19  C   UNL     1     -13.284  10.915  72.057  1.00  0.00    -0.456 A  
HETATM   20  C   UNL     1     -13.082  12.155  71.466  1.00  0.00    -0.357 A  
ENDBRANCH  14  15
BRANCH  14  21
HETATM   21  C   UNL     1     -10.534  12.569  68.001  1.00  0.00    -0.227 A  
HETATM   22  C   UNL     1     -10.886  14.518  65.992  1.00  0.00    -0.310 A  
HETATM   23 CL   UNL     1     -11.020  15.632  64.689  1.00  0.00    -0.415 Cl 
HETATM   24  C   UNL     1      -9.821  14.620  66.877  1.00  0.00    -0.252 A  
HETATM   25  C   UNL     1     -11.651  12.535  67.144  1.00  0.00    -0.437 A  
HETATM   26  C   UNL     1      -9.665  13.669  67.888  1.00  0.00    -0.234 A  
HETATM   27  C   UNL     1     -11.826  13.505  66.148  1.00  0.00    -0.426 A  
ENDBRANCH  14  21
ENDBRANCH  11  14
ENDBRANCH   7   8
ENDBRANCH   6   7
ENDBRANCH   5   6
ENDBRANCH   3   5
TORSDOF 7
ENDMDL
MODEL      141
REMARK 921   NORMALIZED FREE ENERGY PREDICTED BY IDOCK:   -4.28 KCAL/MOL
REMARK 922        TOTAL FREE ENERGY PREDICTED BY IDOCK:   -7.07 KCAL/MOL
REMARK 923 INTER-LIGAND FREE ENERGY PREDICTED BY IDOCK:   -6.39 KCAL/MOL
REMARK 924 INTRA-LIGAND FREE ENERGY PREDICTED BY IDOCK:   -0.68 KCAL/MOL
REMARK 927      BINDING AFFINITY PREDICTED BY RF-SCORE:    0.00 PKD
ROOT
HETATM    1  O   UNL     1      -8.447   8.240  64.416  1.00  0.00    -0.120 OA 
HETATM    2  C   UNL     1      -7.406   7.482  63.973  1.00  0.00    -0.095 C  
HETATM    3  C   UNL     1      -6.192   7.593  64.877  1.00  0.00    -0.038 C  
HETATM    4  O   UNL     1      -7.472   6.793  62.967  1.00  0.00    -0.068 OA 
ENDROOT
BRANCH   3   5
HETATM    5  O   UNL     1      -6.475   8.510  65.947  1.00  0.00    -0.052 OA 
BRANCH   5   6
HETATM    6  C   UNL     1      -5.415   9.473  66.100  1.00  0.00    -0.044 C  
BRANCH   6   7
HETATM    7  C   UNL     1      -6.029  10.885  66.122  1.00  0.00    -0.141 C  
BRANCH   7   8
HETATM    8  N   UNL     1      -5.990  11.557  67.431  1.00  0.00    -0.070 NA 
HETATM    9  C   UNL     1      -6.586  12.908  67.443  1.00  0.00    -0.126 C  
HETATM   10  C   UNL     1      -8.137  12.977  67.352  1.00  0.00    -0.180 C  
HETATM   11  N   UNL     1      -8.866  12.040  68.227  1.00  0.00    -0.184 NA 
HETATM   12  C   UNL     1      -8.233  10.724  68.305  1.00  0.00    -0.124 C  
HETATM   13  C   UNL     1      -6.694  10.759  68.456  1.00  0.00    -0.057 C  
BRANCH  11  14
HETATM   14  C   UNL     1     -10.343  12.061  68.019  1.00  0.00    -0.195 C  
BRANCH  14  15
HETATM   15  C   UNL     1     -10.808  12.229  66.548  1.00  0.00    -0.297 A  
HETATM   16  C   UNL     1     -10.448  11.295  65.565  1.00  0.00    -0.323 A  
HETATM   17  C   UNL     1     -11.665  13.280  66.151  1.00  0.00    -0.416 A  
HETATM   18  C   UNL     1     -10.934  11.399  64.251  1.00  0.00    -0.390 A  
HETATM   19  C   UNL     1     -11.786  12.439  63.901  1.00  0.00    -0.551 A  
HETATM   20  C   UNL     1     -12.152  13.384  64.850  1.00  0.00    -0.430 A  
ENDBRANCH  14  15
BRANCH  14  21
HETATM   21  C   UNL     1     -11.176  12.942  68.980  1.00  0.00    -0.320 A  
HETATM   22  C   UNL     1     -12.344  14.569  70.967  1.00  0.00    -0.347 A  
HETATM   23 CL   UNL     1     -12.947  15.536  72.254  1.00  0.00    -0.456 Cl 
HETATM   24  C   UNL     1     -12.575  13.200  70.969  1.00  0.00    -0.397 A  
HETATM   25  C   UNL     1     -11.026  14.342  68.953  1.00  0.00    -0.269 A  
HETATM   26  C   UNL     1     -12.019  12.401  69.967  1.00  0.00    -0.372 A  
HETATM   27  C   UNL     1     -11.607  15.150  69.940  1.00  0.00    -0.329 A  
ENDBRANCH  14  21
ENDBRANCH  11  14
ENDBRANCH   7   8
ENDBRANCH   6   7
ENDBRANCH   5   6
ENDBRANCH   3   5
TORSDOF 7
ENDMDL
MODEL      142
REMARK 921   NORMALIZED FREE ENERGY PREDICTED BY IDOCK:   -4.28 KCAL/MOL
REMARK 922        TOTAL FREE ENERGY PREDICTED BY IDOCK:   -7.07 KCAL/MOL
REMARK 923 INTER-LIGAND FREE ENERGY PREDICTED BY IDOCK:   -6.27 KCAL/MOL
REMARK 924 INTRA-LIGAND FREE ENERGY PREDICTED BY IDOCK:   -0.80 KCAL/MOL
REMARK 927      BINDING AFFINITY PREDICTED BY RF-SCORE:    0.00 PKD
ROOT
HETATM    1  O   UNL     1      -9.393   3.636  67.290  1.00  0.00    -0.176 OA 
HETATM    2  C   UNL     1      -9.749   4.550  66.347  1.00  0.00    -0.208 C  
HETATM    3  C   UNL     1      -8.879   5.794  66.398  1.00  0.00    -0.131 C  
HETATM    4  O   UNL     1     -10.660   4.364  65.555  1.00  0.00    -0.265 OA 
ENDROOT
BRANCH   3   5
HETATM    5  O   UNL     1      -7.930   5.668  67.470  1.00  0.00    -0.101 OA 
BRANCH   5   6
HETATM    6  C   UNL     1      -6.724   6.403  67.184  1.00  0.00    -0.060 C  
BRANCH   6   7
HETATM    7  C   UNL     1      -6.834   7.800  67.821  1.00  0.00    -0.069 C  
BRANCH   7   8
HETATM    8  N   UNL     1      -6.535   8.920  66.914  1.00  0.00    -0.060 NA 
HETATM    9  C   UNL     1      -7.420   9.006  65.735  1.00  0.00    -0.090 C  
HETATM   10  C   UNL     1      -8.874   9.490  66.000  1.00  0.00    -0.156 C  
HETATM   11  N   UNL     1      -9.001  10.670  66.876  1.00  0.00    -0.137 NA 
HETATM   12  C   UNL     1      -8.061  10.649  67.996  1.00  0.00    -0.112 C  
HETATM   13  C   UNL     1      -6.625  10.213  67.623  1.00  0.00    -0.067 C  
BRANCH  11  14
HETATM   14  C   UNL     1     -10.415  11.023  67.195  1.00  0.00    -0.232 C  
BRANCH  14  15
HETATM   15  C   UNL     1     -10.870  12.434  66.735  1.00  0.00    -0.283 A  
HETATM   16  C   UNL     1     -10.156  13.581  67.111  1.00  0.00    -0.245 A  
HETATM   17  C   UNL     1     -11.970  12.618  65.870  1.00  0.00    -0.497 A  
HETATM   18  C   UNL     1     -10.517  14.851  66.631  1.00  0.00    -0.292 A  
HETATM   19  C   UNL     1     -11.598  14.992  65.769  1.00  0.00    -0.171 A  
HETATM   20  C   UNL     1     -12.329  13.875  65.389  1.00  0.00    -0.494 A  
ENDBRANCH  14  15
BRANCH  14  21
HETATM   21  C   UNL     1     -10.914  10.705  68.624  1.00  0.00    -0.291 A  
HETATM   22  C   UNL     1     -12.144   9.922  71.039  1.00  0.00    -0.358 A  
HETATM   23 CL   UNL     1     -13.002   9.409  72.438  1.00  0.00    -0.457 Cl 
HETATM   24  C   UNL     1     -12.325  11.211  70.556  1.00  0.00    -0.454 A  
HETATM   25  C   UNL     1     -10.681   9.431  69.178  1.00  0.00    -0.216 A  
HETATM   26  C   UNL     1     -11.692  11.605  69.374  1.00  0.00    -0.405 A  
HETATM   27  C   UNL     1     -11.291   9.044  70.379  1.00  0.00    -0.242 A  
ENDBRANCH  14  21
ENDBRANCH  11  14
ENDBRANCH   7   8
ENDBRANCH   6   7
ENDBRANCH   5   6
ENDBRANCH   3   5
TORSDOF 7
ENDMDL
MODEL      143
REMARK 921   NORMALIZED FREE ENERGY PREDICTED BY IDOCK:   -4.25 KCAL/MOL
REMARK 922        TOTAL FREE ENERGY PREDICTED BY IDOCK:   -7.03 KCAL/MOL
REMARK 923 INTER-LIGAND FREE ENERGY PREDICTED BY IDOCK:   -6.65 KCAL/MOL
REMARK 924 INTRA-LIGAND FREE ENERGY PREDICTED BY IDOCK:   -0.38 KCAL/MOL
REMARK 927      BINDING AFFINITY PREDICTED BY RF-SCORE:    0.00 PKD
ROOT
HETATM    1  O   UNL     1     -10.982   6.014  67.257  1.00  0.00    -0.313 OA 
HETATM    2  C   UNL     1     -10.731   6.434  68.526  1.00  0.00    -0.288 C  
HETATM    3  C   UNL     1      -9.314   6.954  68.687  1.00  0.00    -0.135 C  
HETATM    4  O   UNL     1     -11.569   6.395  69.414  1.00  0.00    -0.382 OA 
ENDROOT
BRANCH   3   5
HETATM    5  O   UNL     1      -8.613   6.824  67.439  1.00  0.00    -0.120 OA 
BRANCH   5   6
HETATM    6  C   UNL     1      -7.768   7.965  67.197  1.00  0.00    -0.101 C  
BRANCH   6   7
HETATM    7  C   UNL     1      -8.590   9.247  67.426  1.00  0.00    -0.122 C  
BRANCH   7   8
HETATM    8  N   UNL     1      -7.997  10.201  68.377  1.00  0.00    -0.100 NA 
HETATM    9  C   UNL     1      -7.379  11.386  67.750  1.00  0.00    -0.098 C  
HETATM   10  C   UNL     1      -8.357  12.442  67.161  1.00  0.00    -0.181 C  
HETATM   11  N   UNL     1      -9.498  12.802  68.023  1.00  0.00    -0.208 NA 
HETATM   12  C   UNL     1     -10.060  11.651  68.731  1.00  0.00    -0.156 C  
HETATM   13  C   UNL     1      -9.009  10.691  69.335  1.00  0.00    -0.029 C  
BRANCH  11  14
HETATM   14  C   UNL     1     -10.469  13.726  67.369  1.00  0.00    -0.256 C  
BRANCH  14  15
HETATM   15  C   UNL     1     -11.026  13.251  66.001  1.00  0.00    -0.292 A  
HETATM   16  C   UNL     1     -10.306  13.461  64.816  1.00  0.00    -0.397 A  
HETATM   17  C   UNL     1     -12.236  12.530  65.897  1.00  0.00    -0.310 A  
HETATM   18  C   UNL     1     -10.767  12.961  63.587  1.00  0.00    -0.229 A  
HETATM   19  C   UNL     1     -11.957  12.244  63.526  1.00  0.00    -0.625 A  
HETATM   20  C   UNL     1     -12.695  12.029  64.681  1.00  0.00    -0.006 A  
ENDBRANCH  14  15
BRANCH  14  21
HETATM   21  C   UNL     1     -10.098  15.228  67.338  1.00  0.00    -0.232 A  
HETATM   22  C   UNL     1      -9.789  18.019  67.076  1.00  0.00    -0.318 A  
HETATM   23 CL   UNL     1      -9.703  19.719  66.830  1.00  0.00    -0.474 Cl 
HETATM   24  C   UNL     1      -9.123  17.164  66.208  1.00  0.00    -0.260 A  
HETATM   25  C   UNL     1     -10.696  16.114  68.256  1.00  0.00    -0.307 A  
HETATM   26  C   UNL     1      -9.256  15.782  66.358  1.00  0.00    -0.347 A  
HETATM   27  C   UNL     1     -10.540  17.501  68.126  1.00  0.00    -0.366 A  
ENDBRANCH  14  21
ENDBRANCH  11  14
ENDBRANCH   7   8
ENDBRANCH   6   7
ENDBRANCH   5   6
ENDBRANCH   3   5
TORSDOF 7
ENDMDL
MODEL      144
REMARK 921   NORMALIZED FREE ENERGY PREDICTED BY IDOCK:   -4.23 KCAL/MOL
REMARK 922        TOTAL FREE ENERGY PREDICTED BY IDOCK:   -6.99 KCAL/MOL
REMARK 923 INTER-LIGAND FREE ENERGY PREDICTED BY IDOCK:   -6.46 KCAL/MOL
REMARK 924 INTRA-LIGAND FREE ENERGY PREDICTED BY IDOCK:   -0.53 KCAL/MOL
REMARK 927      BINDING AFFINITY PREDICTED BY RF-SCORE:    0.00 PKD
ROOT
HETATM    1  O   UNL     1     -11.816   8.180  70.764  1.00  0.00    -0.260 OA 
HETATM    2  C   UNL     1     -12.994   8.559  71.330  1.00  0.00    -0.159 C  
HETATM    3  C   UNL     1     -13.273  10.038  71.137  1.00  0.00    -0.361 C  
HETATM    4  O   UNL     1     -13.730   7.776  71.912  1.00  0.00    -0.328 OA 
ENDROOT
BRANCH   3   5
HETATM    5  O   UNL     1     -12.178  10.641  70.427  1.00  0.00    -0.294 OA 
BRANCH   5   6
HETATM    6  C   UNL     1     -12.196  12.075  70.566  1.00  0.00    -0.325 C  
BRANCH   6   7
HETATM    7  C   UNL     1     -11.849  12.709  69.207  1.00  0.00    -0.302 C  
BRANCH   7   8
HETATM    8  N   UNL     1     -12.403  14.056  68.992  1.00  0.00    -0.231 NA 
HETATM    9  C   UNL     1     -12.073  15.029  70.052  1.00  0.00    -0.337 C  
HETATM   10  C   UNL     1     -10.605  15.540  70.085  1.00  0.00    -0.320 C  
HETATM   11  N   UNL     1     -10.038  15.927  68.780  1.00  0.00    -0.213 NA 
HETATM   12  C   UNL     1     -10.437  15.027  67.698  1.00  0.00    -0.247 C  
HETATM   13  C   UNL     1     -11.930  14.624  67.713  1.00  0.00    -0.268 C  
BRANCH  11  14
HETATM   14  C   UNL     1      -8.595  16.297  68.845  1.00  0.00    -0.260 C  
BRANCH  14  15
HETATM   15  C   UNL     1      -8.108  17.288  67.755  1.00  0.00    -0.201 A  
HETATM   16  C   UNL     1      -8.545  18.621  67.744  1.00  0.00    -0.294 A  
HETATM   17  C   UNL     1      -7.160  16.916  66.777  1.00  0.00    -0.273 A  
HETATM   18  C   UNL     1      -8.045  19.542  66.809  1.00  0.00    -0.313 A  
HETATM   19  C   UNL     1      -7.101  19.142  65.869  1.00  0.00    -0.301 A  
HETATM   20  C   UNL     1      -6.658  17.827  65.850  1.00  0.00    -0.271 A  
ENDBRANCH  14  15
BRANCH  14  21
HETATM   21  C   UNL     1      -7.583  15.146  69.056  1.00  0.00    -0.162 A  
HETATM   22  C   UNL     1      -6.040  12.867  69.674  1.00  0.00    -0.124 A  
HETATM   23 CL   UNL     1      -5.193  11.446  70.144  1.00  0.00    -0.073 Cl 
HETATM   24  C   UNL     1      -5.840  14.049  70.374  1.00  0.00    -0.159 A  
HETATM   25  C   UNL     1      -7.707  13.960  68.307  1.00  0.00    -0.136 A  
HETATM   26  C   UNL     1      -6.586  15.184  70.047  1.00  0.00    -0.146 A  
HETATM   27  C   UNL     1      -6.939  12.828  68.614  1.00  0.00    -0.101 A  
ENDBRANCH  14  21
ENDBRANCH  11  14
ENDBRANCH   7   8
ENDBRANCH   6   7
ENDBRANCH   5   6
ENDBRANCH   3   5
TORSDOF 7
ENDMDL
MODEL      145
REMARK 921   NORMALIZED FREE ENERGY PREDICTED BY IDOCK:   -4.21 KCAL/MOL
REMARK 922        TOTAL FREE ENERGY PREDICTED BY IDOCK:   -6.96 KCAL/MOL
REMARK 923 INTER-LIGAND FREE ENERGY PREDICTED BY IDOCK:   -6.46 KCAL/MOL
REMARK 924 INTRA-LIGAND FREE ENERGY PREDICTED BY IDOCK:   -0.50 KCAL/MOL
REMARK 927      BINDING AFFINITY PREDICTED BY RF-SCORE:    0.00 PKD
ROOT
HETATM    1  O   UNL     1      -7.185  10.327  63.425  1.00  0.00    -0.136 OA 
HETATM    2  C   UNL     1      -5.935  10.096  63.909  1.00  0.00    -0.140 C  
HETATM    3  C   UNL     1      -5.638   8.614  64.048  1.00  0.00    -0.065 C  
HETATM    4  O   UNL     1      -5.155  10.996  64.183  1.00  0.00    -0.229 OA 
ENDROOT
BRANCH   3   5
HETATM    5  O   UNL     1      -6.795   7.857  63.654  1.00  0.00    -0.071 OA 
BRANCH   5   6
HETATM    6  C   UNL     1      -7.319   7.097  64.759  1.00  0.00    -0.082 C  
BRANCH   6   7
HETATM    7  C   UNL     1      -8.429   7.917  65.442  1.00  0.00    -0.119 C  
BRANCH   7   8
HETATM    8  N   UNL     1      -8.930   7.352  66.705  1.00  0.00    -0.134 NA 
HETATM    9  C   UNL     1      -8.264   7.874  67.916  1.00  0.00    -0.129 C  
HETATM   10  C   UNL     1      -8.621   9.332  68.322  1.00  0.00    -0.125 C  
HETATM   11  N   UNL     1     -10.057   9.668  68.289  1.00  0.00    -0.170 NA 
HETATM   12  C   UNL     1     -10.753   9.074  67.148  1.00  0.00    -0.136 C  
HETATM   13  C   UNL     1     -10.378   7.602  66.860  1.00  0.00    -0.318 C  
BRANCH  11  14
HETATM   14  C   UNL     1     -10.337  11.105  68.571  1.00  0.00    -0.193 C  
BRANCH  14  15
HETATM   15  C   UNL     1     -11.278  11.379  69.774  1.00  0.00    -0.266 A  
HETATM   16  C   UNL     1     -11.753  12.672  70.041  1.00  0.00    -0.289 A  
HETATM   17  C   UNL     1     -11.752  10.339  70.604  1.00  0.00    -0.438 A  
HETATM   18  C   UNL     1     -12.669  12.911  71.078  1.00  0.00    -0.338 A  
HETATM   19  C   UNL     1     -13.123  11.859  71.866  1.00  0.00    -0.474 A  
HETATM   20  C   UNL     1     -12.663  10.570  71.632  1.00  0.00    -0.550 A  
ENDBRANCH  14  15
BRANCH  14  21
HETATM   21  C   UNL     1     -10.689  12.004  67.362  1.00  0.00    -0.266 A  
HETATM   22  C   UNL     1     -11.497  13.292  64.986  1.00  0.00    -0.305 A  
HETATM   23 CL   UNL     1     -12.012  13.955  63.486  1.00  0.00    -0.241 Cl 
HETATM   24  C   UNL     1     -10.175  12.901  65.146  1.00  0.00    -0.288 A  
HETATM   25  C   UNL     1     -12.004  12.485  67.207  1.00  0.00    -0.286 A  
HETATM   26  C   UNL     1      -9.771  12.288  66.335  1.00  0.00    -0.243 A  
HETATM   27  C   UNL     1     -12.404  13.126  66.027  1.00  0.00    -0.426 A  
ENDBRANCH  14  21
ENDBRANCH  11  14
ENDBRANCH   7   8
ENDBRANCH   6   7
ENDBRANCH   5   6
ENDBRANCH   3   5
TORSDOF 7
ENDMDL
MODEL      146
REMARK 921   NORMALIZED FREE ENERGY PREDICTED BY IDOCK:   -4.20 KCAL/MOL
REMARK 922        TOTAL FREE ENERGY PREDICTED BY IDOCK:   -6.95 KCAL/MOL
REMARK 923 INTER-LIGAND FREE ENERGY PREDICTED BY IDOCK:   -5.83 KCAL/MOL
REMARK 924 INTRA-LIGAND FREE ENERGY PREDICTED BY IDOCK:   -1.12 KCAL/MOL
REMARK 927      BINDING AFFINITY PREDICTED BY RF-SCORE:    0.00 PKD
ROOT
HETATM    1  O   UNL     1      -9.397  10.271  67.209  1.00  0.00    -0.148 OA 
HETATM    2  C   UNL     1      -8.674  10.993  66.311  1.00  0.00    -0.176 C  
HETATM    3  C   UNL     1      -7.476  11.670  66.952  1.00  0.00    -0.131 C  
HETATM    4  O   UNL     1      -8.970  11.064  65.127  1.00  0.00    -0.197 OA 
ENDROOT
BRANCH   3   5
HETATM    5  O   UNL     1      -7.461  11.380  68.359  1.00  0.00    -0.096 OA 
BRANCH   5   6
HETATM    6  C   UNL     1      -6.255  11.869  68.977  1.00  0.00    -0.077 C  
BRANCH   6   7
HETATM    7  C   UNL     1      -6.623  12.993  69.962  1.00  0.00     0.200 C  
BRANCH   7   8
HETATM    8  N   UNL     1      -5.762  14.185  69.892  1.00  0.00    -0.105 NA 
HETATM    9  C   UNL     1      -5.211  14.464  68.550  1.00  0.00    -0.100 C  
HETATM   10  C   UNL     1      -6.212  15.013  67.495  1.00  0.00    -0.028 C  
HETATM   11  N   UNL     1      -7.101  16.092  67.964  1.00  0.00    -0.126 NA 
HETATM   12  C   UNL     1      -7.578  15.881  69.331  1.00  0.00    -0.210 C  
HETATM   13  C   UNL     1      -6.496  15.393  70.322  1.00  0.00     0.007 C  
BRANCH  11  14
HETATM   14  C   UNL     1      -8.119  16.504  66.955  1.00  0.00    -0.201 C  
BRANCH  14  15
HETATM   15  C   UNL     1      -8.758  17.899  67.182  1.00  0.00    -0.248 A  
HETATM   16  C   UNL     1      -7.965  19.055  67.249  1.00  0.00    -0.273 A  
HETATM   17  C   UNL     1     -10.157  18.077  67.257  1.00  0.00    -0.346 A  
HETATM   18  C   UNL     1      -8.544  20.328  67.372  1.00  0.00    -0.420 A  
HETATM   19  C   UNL     1      -9.927  20.465  67.430  1.00  0.00    -0.556 A  
HETATM   20  C   UNL     1     -10.736  19.339  67.376  1.00  0.00    -0.594 A  
ENDBRANCH  14  15
BRANCH  14  21
HETATM   21  C   UNL     1      -9.183  15.452  66.561  1.00  0.00    -0.323 A  
HETATM   22  C   UNL     1     -11.395  13.857  65.840  1.00  0.00    -0.313 A  
HETATM   23 CL   UNL     1     -12.822  12.990  65.431  1.00  0.00    -0.382 Cl 
HETATM   24  C   UNL     1     -10.963  13.885  67.159  1.00  0.00    -0.298 A  
HETATM   25  C   UNL     1      -9.591  15.340  65.217  1.00  0.00    -0.023 A  
HETATM   26  C   UNL     1      -9.849  14.654  67.508  1.00  0.00    -0.218 A  
HETATM   27  C   UNL     1     -10.689  14.546  64.860  1.00  0.00    -0.448 A  
ENDBRANCH  14  21
ENDBRANCH  11  14
ENDBRANCH   7   8
ENDBRANCH   6   7
ENDBRANCH   5   6
ENDBRANCH   3   5
TORSDOF 7
ENDMDL
MODEL      147
REMARK 921   NORMALIZED FREE ENERGY PREDICTED BY IDOCK:   -4.20 KCAL/MOL
REMARK 922        TOTAL FREE ENERGY PREDICTED BY IDOCK:   -6.95 KCAL/MOL
REMARK 923 INTER-LIGAND FREE ENERGY PREDICTED BY IDOCK:   -6.13 KCAL/MOL
REMARK 924 INTRA-LIGAND FREE ENERGY PREDICTED BY IDOCK:   -0.82 KCAL/MOL
REMARK 927      BINDING AFFINITY PREDICTED BY RF-SCORE:    0.00 PKD
ROOT
HETATM    1  O   UNL     1     -10.822   9.658  67.698  1.00  0.00    -0.282 OA 
HETATM    2  C   UNL     1     -11.200  10.481  68.713  1.00  0.00    -0.262 C  
HETATM    3  C   UNL     1     -11.885  11.737  68.207  1.00  0.00    -0.271 C  
HETATM    4  O   UNL     1     -11.007  10.213  69.890  1.00  0.00    -0.252 OA 
ENDROOT
BRANCH   3   5
HETATM    5  O   UNL     1     -11.913  11.719  66.770  1.00  0.00    -0.584 OA 
BRANCH   5   6
HETATM    6  C   UNL     1     -11.681  13.034  66.230  1.00  0.00    -0.387 C  
BRANCH   6   7
HETATM    7  C   UNL     1     -11.059  13.917  67.328  1.00  0.00    -0.299 C  
BRANCH   7   8
HETATM    8  N   UNL     1     -11.590  15.288  67.395  1.00  0.00    -0.255 NA 
HETATM    9  C   UNL     1     -11.559  15.891  68.743  1.00  0.00    -0.386 C  
HETATM   10  C   UNL     1     -10.160  16.309  69.278  1.00  0.00    -0.267 C  
HETATM   11  N   UNL     1      -9.308  17.041  68.323  1.00  0.00    -0.247 NA 
HETATM   12  C   UNL     1      -9.403  16.519  66.960  1.00  0.00    -0.230 C  
HETATM   13  C   UNL     1     -10.841  16.190  66.496  1.00  0.00    -0.139 C  
BRANCH  11  14
HETATM   14  C   UNL     1      -7.936  17.317  68.840  1.00  0.00    -0.196 C  
BRANCH  14  15
HETATM   15  C   UNL     1      -7.140  18.409  68.078  1.00  0.00    -0.237 A  
HETATM   16  C   UNL     1      -6.018  18.077  67.304  1.00  0.00    -0.153 A  
HETATM   17  C   UNL     1      -7.548  19.761  68.070  1.00  0.00    -0.334 A  
HETATM   18  C   UNL     1      -5.344  19.050  66.547  1.00  0.00    -0.162 A  
HETATM   19  C   UNL     1      -5.783  20.369  66.554  1.00  0.00    -0.201 A  
HETATM   20  C   UNL     1      -6.884  20.728  67.318  1.00  0.00    -0.405 A  
ENDBRANCH  14  15
BRANCH  14  21
HETATM   21  C   UNL     1      -7.048  16.092  69.164  1.00  0.00    -0.197 A  
HETATM   22  C   UNL     1      -5.788  13.669  69.870  1.00  0.00    -0.124 A  
HETATM   23 CL   UNL     1      -5.136  12.155  70.359  1.00  0.00    -0.092 Cl 
HETATM   24  C   UNL     1      -5.764  14.743  70.749  1.00  0.00    -0.144 A  
HETATM   25  C   UNL     1      -6.985  15.015  68.258  1.00  0.00    -0.118 A  
HETATM   26  C   UNL     1      -6.365  15.951  70.385  1.00  0.00     0.183 A  
HETATM   27  C   UNL     1      -6.358  13.812  68.610  1.00  0.00    -0.090 A  
ENDBRANCH  14  21
ENDBRANCH  11  14
ENDBRANCH   7   8
ENDBRANCH   6   7
ENDBRANCH   5   6
ENDBRANCH   3   5
TORSDOF 7
ENDMDL
MODEL      148
REMARK 921   NORMALIZED FREE ENERGY PREDICTED BY IDOCK:   -4.19 KCAL/MOL
REMARK 922        TOTAL FREE ENERGY PREDICTED BY IDOCK:   -6.94 KCAL/MOL
REMARK 923 INTER-LIGAND FREE ENERGY PREDICTED BY IDOCK:   -5.88 KCAL/MOL
REMARK 924 INTRA-LIGAND FREE ENERGY PREDICTED BY IDOCK:   -1.06 KCAL/MOL
REMARK 927      BINDING AFFINITY PREDICTED BY RF-SCORE:    0.00 PKD
ROOT
HETATM    1  O   UNL     1     -12.587  14.437  70.186  1.00  0.00    -0.345 OA 
HETATM    2  C   UNL     1     -11.343  14.784  69.757  1.00  0.00    -0.283 C  
HETATM    3  C   UNL     1     -11.007  14.164  68.413  1.00  0.00    -0.254 C  
HETATM    4  O   UNL     1     -10.605  15.520  70.395  1.00  0.00    -0.317 OA 
ENDROOT
BRANCH   3   5
HETATM    5  O   UNL     1     -12.105  13.343  67.979  1.00  0.00    -0.342 OA 
BRANCH   5   6
HETATM    6  C   UNL     1     -11.683  12.404  66.971  1.00  0.00    -0.353 C  
BRANCH   6   7
HETATM    7  C   UNL     1     -10.178  12.129  67.150  1.00  0.00    -0.210 C  
BRANCH   7   8
HETATM    8  N   UNL     1      -9.518  11.515  65.986  1.00  0.00    -0.224 NA 
HETATM    9  C   UNL     1      -8.109  11.135  66.212  1.00  0.00    -0.142 C  
HETATM   10  C   UNL     1      -7.868   9.894  67.118  1.00  0.00    -0.099 C  
HETATM   11  N   UNL     1      -8.720   8.724  66.832  1.00  0.00    -0.125 NA 
HETATM   12  C   UNL     1     -10.098   9.091  66.508  1.00  0.00    -0.283 C  
HETATM   13  C   UNL     1     -10.235  10.299  65.552  1.00  0.00    -0.238 C  
BRANCH  11  14
HETATM   14  C   UNL     1      -8.534   7.604  67.800  1.00  0.00    -0.122 C  
BRANCH  14  15
HETATM   15  C   UNL     1      -8.196   6.227  67.171  1.00  0.00    -0.109 A  
HETATM   16  C   UNL     1      -7.471   5.264  67.888  1.00  0.00    -0.076 A  
HETATM   17  C   UNL     1      -8.659   5.858  65.889  1.00  0.00    -0.145 A  
HETATM   18  C   UNL     1      -7.233   3.987  67.354  1.00  0.00    -0.067 A  
HETATM   19  C   UNL     1      -7.716   3.654  66.093  1.00  0.00    -0.088 A  
HETATM   20  C   UNL     1      -8.428   4.591  65.357  1.00  0.00    -0.123 A  
ENDBRANCH  14  15
BRANCH  14  21
HETATM   21  C   UNL     1      -9.584   7.468  68.928  1.00  0.00    -0.149 A  
HETATM   22  C   UNL     1     -11.772   7.383  70.707  1.00  0.00    -0.276 A  
HETATM   23 CL   UNL     1     -13.173   7.408  71.703  1.00  0.00    -0.412 Cl 
HETATM   24  C   UNL     1     -10.847   8.415  70.796  1.00  0.00    -0.255 A  
HETATM   25  C   UNL     1     -10.491   6.390  68.914  1.00  0.00    -0.264 A  
HETATM   26  C   UNL     1      -9.749   8.439  69.932  1.00  0.00    -0.179 A  
HETATM   27  C   UNL     1     -11.577   6.348  69.799  1.00  0.00    -0.397 A  
ENDBRANCH  14  21
ENDBRANCH  11  14
ENDBRANCH   7   8
ENDBRANCH   6   7
ENDBRANCH   5   6
ENDBRANCH   3   5
TORSDOF 7
ENDMDL
MODEL      149
REMARK 921   NORMALIZED FREE ENERGY PREDICTED BY IDOCK:   -4.19 KCAL/MOL
REMARK 922        TOTAL FREE ENERGY PREDICTED BY IDOCK:   -6.94 KCAL/MOL
REMARK 923 INTER-LIGAND FREE ENERGY PREDICTED BY IDOCK:   -6.09 KCAL/MOL
REMARK 924 INTRA-LIGAND FREE ENERGY PREDICTED BY IDOCK:   -0.84 KCAL/MOL
REMARK 927      BINDING AFFINITY PREDICTED BY RF-SCORE:    0.00 PKD
ROOT
HETATM    1  O   UNL     1     -10.940  15.790  65.873  1.00  0.00    -0.287 OA 
HETATM    2  C   UNL     1     -11.525  15.579  64.663  1.00  0.00    -0.324 C  
HETATM    3  C   UNL     1     -11.918  14.126  64.463  1.00  0.00    -0.458 C  
HETATM    4  O   UNL     1     -11.711  16.474  63.852  1.00  0.00    -1.148 OA 
ENDROOT
BRANCH   3   5
HETATM    5  O   UNL     1     -11.524  13.362  65.615  1.00  0.00    -0.308 OA 
BRANCH   5   6
HETATM    6  C   UNL     1     -11.120  12.031  65.242  1.00  0.00    -0.317 C  
BRANCH   6   7
HETATM    7  C   UNL     1     -10.328  11.409  66.407  1.00  0.00    -0.242 C  
BRANCH   7   8
HETATM    8  N   UNL     1      -9.057  10.773  66.023  1.00  0.00    -0.178 NA 
HETATM    9  C   UNL     1      -8.122  10.550  67.144  1.00  0.00    -0.120 C  
HETATM   10  C   UNL     1      -8.496   9.413  68.136  1.00  0.00    -0.120 C  
HETATM   11  N   UNL     1      -8.932   8.147  67.516  1.00  0.00    -0.137 NA 
HETATM   12  C   UNL     1      -9.781   8.352  66.343  1.00  0.00    -0.242 C  
HETATM   13  C   UNL     1      -9.294   9.463  65.383  1.00  0.00    -0.247 C  
BRANCH  11  14
HETATM   14  C   UNL     1      -9.391   7.129  68.505  1.00  0.00    -0.136 C  
BRANCH  14  15
HETATM   15  C   UNL     1      -9.978   7.697  69.825  1.00  0.00    -0.184 A  
HETATM   16  C   UNL     1      -9.162   7.908  70.946  1.00  0.00    -0.160 A  
HETATM   17  C   UNL     1     -11.331   8.088  69.933  1.00  0.00     0.052 A  
HETATM   18  C   UNL     1      -9.672   8.498  72.115  1.00  0.00    -0.387 A  
HETATM   19  C   UNL     1     -11.006   8.883  72.179  1.00  0.00    -0.349 A  
HETATM   20  C   UNL     1     -11.840   8.676  71.089  1.00  0.00    -0.331 A  
ENDBRANCH  14  15
BRANCH  14  21
HETATM   21  C   UNL     1      -8.446   5.934  68.774  1.00  0.00    -0.111 A  
HETATM   22  C   UNL     1      -6.733   3.880  69.669  1.00  0.00    -0.034 A  
HETATM   23 CL   UNL     1      -5.679   2.694  70.332  1.00  0.00    -0.016 Cl 
HETATM   24  C   UNL     1      -6.201   5.010  69.063  1.00  0.00    -0.030 A  
HETATM   25  C   UNL     1      -8.964   4.742  69.317  1.00  0.00    -0.134 A  
HETATM   26  C   UNL     1      -7.053   6.013  68.596  1.00  0.00    -0.082 A  
HETATM   27  C   UNL     1      -8.111   3.721  69.760  1.00  0.00    -0.062 A  
ENDBRANCH  14  21
ENDBRANCH  11  14
ENDBRANCH   7   8
ENDBRANCH   6   7
ENDBRANCH   5   6
ENDBRANCH   3   5
TORSDOF 7
ENDMDL
MODEL      150
REMARK 921   NORMALIZED FREE ENERGY PREDICTED BY IDOCK:   -4.18 KCAL/MOL
REMARK 922        TOTAL FREE ENERGY PREDICTED BY IDOCK:   -6.92 KCAL/MOL
REMARK 923 INTER-LIGAND FREE ENERGY PREDICTED BY IDOCK:   -5.93 KCAL/MOL
REMARK 924 INTRA-LIGAND FREE ENERGY PREDICTED BY IDOCK:   -0.99 KCAL/MOL
REMARK 927      BINDING AFFINITY PREDICTED BY RF-SCORE:    0.00 PKD
ROOT
HETATM    1  O   UNL     1      -8.788   9.022  65.748  1.00  0.00    -0.156 OA 
HETATM    2  C   UNL     1      -7.639   8.501  65.240  1.00  0.00    -0.089 C  
HETATM    3  C   UNL     1      -6.405   9.044  65.939  1.00  0.00    -0.056 C  
HETATM    4  O   UNL     1      -7.627   7.683  64.332  1.00  0.00    -0.092 OA 
ENDROOT
BRANCH   3   5
HETATM    5  O   UNL     1      -6.804   9.999  66.937  1.00  0.00    -0.084 OA 
BRANCH   5   6
HETATM    6  C   UNL     1      -5.668  10.724  67.444  1.00  0.00    -0.045 C  
BRANCH   6   7
HETATM    7  C   UNL     1      -5.806  12.204  67.040  1.00  0.00    -0.093 C  
BRANCH   7   8
HETATM    8  N   UNL     1      -5.691  13.163  68.152  1.00  0.00    -0.086 NA 
HETATM    9  C   UNL     1      -5.950  14.568  67.777  1.00  0.00    -0.097 C  
HETATM   10  C   UNL     1      -7.431  14.941  67.488  1.00  0.00    -0.200 C  
HETATM   11  N   UNL     1      -8.415  14.437  68.464  1.00  0.00    -0.167 NA 
HETATM   12  C   UNL     1      -8.118  13.080  68.921  1.00  0.00     0.206 C  
HETATM   13  C   UNL     1      -6.627  12.822  69.243  1.00  0.00    -0.086 C  
BRANCH  11  14
HETATM   14  C   UNL     1      -9.829  14.721  68.081  1.00  0.00    -0.221 C  
BRANCH  14  15
HETATM   15  C   UNL     1     -10.873  14.563  69.218  1.00  0.00    -0.270 A  
HETATM   16  C   UNL     1     -11.152  15.623  70.094  1.00  0.00    -0.347 A  
HETATM   17  C   UNL     1     -11.632  13.383  69.377  1.00  0.00    -0.365 A  
HETATM   18  C   UNL     1     -12.154  15.512  71.073  1.00  0.00    -0.438 A  
HETATM   19  C   UNL     1     -12.891  14.338  71.190  1.00  0.00    -0.429 A  
HETATM   20  C   UNL     1     -12.629  13.270  70.343  1.00  0.00    -0.211 A  
ENDBRANCH  14  15
BRANCH  14  21
HETATM   21  C   UNL     1     -10.337  14.102  66.757  1.00  0.00    -0.274 A  
HETATM   22  C   UNL     1     -11.635  12.939  64.539  1.00  0.00    -0.350 A  
HETATM   23 CL   UNL     1     -12.529  12.200  63.270  1.00  0.00    -0.620 Cl 
HETATM   24  C   UNL     1     -10.831  12.158  65.359  1.00  0.00    -0.335 A  
HETATM   25  C   UNL     1     -11.090  14.888  65.863  1.00  0.00    -0.338 A  
HETATM   26  C   UNL     1     -10.167  12.743  66.440  1.00  0.00    -0.263 A  
HETATM   27  C   UNL     1     -11.734  14.309  64.760  1.00  0.00    -0.420 A  
ENDBRANCH  14  21
ENDBRANCH  11  14
ENDBRANCH   7   8
ENDBRANCH   6   7
ENDBRANCH   5   6
ENDBRANCH   3   5
TORSDOF 7
ENDMDL
MODEL      151
REMARK 921   NORMALIZED FREE ENERGY PREDICTED BY IDOCK:   -4.15 KCAL/MOL
REMARK 922        TOTAL FREE ENERGY PREDICTED BY IDOCK:   -6.88 KCAL/MOL
REMARK 923 INTER-LIGAND FREE ENERGY PREDICTED BY IDOCK:   -6.23 KCAL/MOL
REMARK 924 INTRA-LIGAND FREE ENERGY PREDICTED BY IDOCK:   -0.65 KCAL/MOL
REMARK 927      BINDING AFFINITY PREDICTED BY RF-SCORE:    0.00 PKD
ROOT
HETATM    1  O   UNL     1      -9.285   5.074  67.780  1.00  0.00    -0.111 OA 
HETATM    2  C   UNL     1      -8.981   4.088  68.666  1.00  0.00    -0.117 C  
HETATM    3  C   UNL     1      -9.763   4.220  69.961  1.00  0.00    -0.217 C  
HETATM    4  O   UNL     1      -8.175   3.203  68.421  1.00  0.00    -0.067 OA 
ENDROOT
BRANCH   3   5
HETATM    5  O   UNL     1     -10.595   5.390  69.898  1.00  0.00    -0.307 OA 
BRANCH   5   6
HETATM    6  C   UNL     1     -10.961   5.837  71.218  1.00  0.00    -0.230 C  
BRANCH   6   7
HETATM    7  C   UNL     1     -11.976   6.988  71.086  1.00  0.00    -0.356 C  
BRANCH   7   8
HETATM    8  N   UNL     1     -11.755   8.117  72.005  1.00  0.00    -0.310 NA 
HETATM    9  C   UNL     1     -10.337   8.483  72.195  1.00  0.00    -0.339 C  
HETATM   10  C   UNL     1      -9.646   9.201  71.001  1.00  0.00    -0.280 C  
HETATM   11  N   UNL     1     -10.422  10.290  70.380  1.00  0.00    -0.179 NA 
HETATM   12  C   UNL     1     -11.848   9.983  70.275  1.00  0.00    -0.216 C  
HETATM   13  C   UNL     1     -12.460   9.327  71.534  1.00  0.00    -0.355 C  
BRANCH  11  14
HETATM   14  C   UNL     1      -9.770  10.869  69.169  1.00  0.00    -0.122 C  
BRANCH  14  15
HETATM   15  C   UNL     1     -10.479  12.104  68.554  1.00  0.00    -0.248 A  
HETATM   16  C   UNL     1     -11.537  12.738  69.224  1.00  0.00    -0.372 A  
HETATM   17  C   UNL     1     -10.051  12.683  67.340  1.00  0.00    -0.218 A  
HETATM   18  C   UNL     1     -12.127  13.904  68.710  1.00  0.00    -0.344 A  
HETATM   19  C   UNL     1     -11.669  14.454  67.518  1.00  0.00    -0.416 A  
HETATM   20  C   UNL     1     -10.631  13.842  66.828  1.00  0.00    -0.273 A  
ENDBRANCH  14  15
BRANCH  14  21
HETATM   21  C   UNL     1      -9.313   9.875  68.075  1.00  0.00    -0.140 A  
HETATM   22  C   UNL     1      -8.508   8.392  65.814  1.00  0.00    -0.156 A  
HETATM   23 CL   UNL     1      -8.057   7.593  64.360  1.00  0.00    -0.120 Cl 
HETATM   24  C   UNL     1      -9.818   8.309  66.266  1.00  0.00    -0.227 A  
HETATM   25  C   UNL     1      -7.972   9.877  67.645  1.00  0.00    -0.109 A  
HETATM   26  C   UNL     1     -10.207   9.023  67.402  1.00  0.00    -0.308 A  
HETATM   27  C   UNL     1      -7.572   9.138  66.523  1.00  0.00    -0.093 A  
ENDBRANCH  14  21
ENDBRANCH  11  14
ENDBRANCH   7   8
ENDBRANCH   6   7
ENDBRANCH   5   6
ENDBRANCH   3   5
TORSDOF 7
ENDMDL
MODEL      152
REMARK 921   NORMALIZED FREE ENERGY PREDICTED BY IDOCK:   -4.14 KCAL/MOL
REMARK 922        TOTAL FREE ENERGY PREDICTED BY IDOCK:   -6.86 KCAL/MOL
REMARK 923 INTER-LIGAND FREE ENERGY PREDICTED BY IDOCK:   -6.35 KCAL/MOL
REMARK 924 INTRA-LIGAND FREE ENERGY PREDICTED BY IDOCK:   -0.51 KCAL/MOL
REMARK 927      BINDING AFFINITY PREDICTED BY RF-SCORE:    0.00 PKD
ROOT
HETATM    1  O   UNL     1      -7.936  18.038  67.388  1.00  0.00    -0.217 OA 
HETATM    2  C   UNL     1      -7.287  18.314  68.552  1.00  0.00    -0.286 C  
HETATM    3  C   UNL     1      -6.598  17.090  69.127  1.00  0.00    -0.230 C  
HETATM    4  O   UNL     1      -7.268  19.429  69.051  1.00  0.00    -0.345 OA 
ENDROOT
BRANCH   3   5
HETATM    5  O   UNL     1      -6.857  15.955  68.282  1.00  0.00    -0.111 OA 
BRANCH   5   6
HETATM    6  C   UNL     1      -5.866  14.928  68.475  1.00  0.00    -0.097 C  
BRANCH   6   7
HETATM    7  C   UNL     1      -6.006  13.888  67.348  1.00  0.00     0.239 C  
BRANCH   7   8
HETATM    8  N   UNL     1      -6.104  12.491  67.803  1.00  0.00    -0.103 NA 
HETATM    9  C   UNL     1      -6.844  12.310  69.068  1.00  0.00    -0.094 C  
HETATM   10  C   UNL     1      -8.387  12.490  68.995  1.00  0.00     0.417 C  
HETATM   11  N   UNL     1      -9.052  11.820  67.862  1.00  0.00    -0.174 NA 
HETATM   12  C   UNL     1      -8.283  11.905  66.621  1.00  0.00    -0.088 C  
HETATM   13  C   UNL     1      -6.767  11.650  66.785  1.00  0.00    -0.087 C  
BRANCH  11  14
HETATM   14  C   UNL     1     -10.510  12.119  67.769  1.00  0.00    -0.205 C  
BRANCH  14  15
HETATM   15  C   UNL     1     -10.920  13.100  66.639  1.00  0.00    -0.301 A  
HETATM   16  C   UNL     1     -10.047  14.110  66.208  1.00  0.00    -0.308 A  
HETATM   17  C   UNL     1     -12.149  12.979  65.954  1.00  0.00    -0.503 A  
HETATM   18  C   UNL     1     -10.380  14.948  65.131  1.00  0.00    -0.431 A  
HETATM   19  C   UNL     1     -11.594  14.790  64.471  1.00  0.00    -0.366 A  
HETATM   20  C   UNL     1     -12.482  13.806  64.883  1.00  0.00    -0.420 A  
ENDBRANCH  14  15
BRANCH  14  21
HETATM   21  C   UNL     1     -11.249  12.436  69.090  1.00  0.00    -0.295 A  
HETATM   22  C   UNL     1     -12.947  12.896  71.295  1.00  0.00    -0.228 A  
HETATM   23 CL   UNL     1     -14.086  13.163  72.555  1.00  0.00    -0.483 Cl 
HETATM   24  C   UNL     1     -12.533  13.961  70.507  1.00  0.00    -0.422 A  
HETATM   25  C   UNL     1     -11.617  11.386  69.955  1.00  0.00    -0.402 A  
HETATM   26  C   UNL     1     -11.669  13.734  69.432  1.00  0.00    -0.379 A  
HETATM   27  C   UNL     1     -12.460  11.616  71.051  1.00  0.00    -0.436 A  
ENDBRANCH  14  21
ENDBRANCH  11  14
ENDBRANCH   7   8
ENDBRANCH   6   7
ENDBRANCH   5   6
ENDBRANCH   3   5
TORSDOF 7
ENDMDL
MODEL      153
REMARK 921   NORMALIZED FREE ENERGY PREDICTED BY IDOCK:   -4.12 KCAL/MOL
REMARK 922        TOTAL FREE ENERGY PREDICTED BY IDOCK:   -6.84 KCAL/MOL
REMARK 923 INTER-LIGAND FREE ENERGY PREDICTED BY IDOCK:   -5.91 KCAL/MOL
REMARK 924 INTRA-LIGAND FREE ENERGY PREDICTED BY IDOCK:   -0.93 KCAL/MOL
REMARK 927      BINDING AFFINITY PREDICTED BY RF-SCORE:    0.00 PKD
ROOT
HETATM    1  O   UNL     1      -6.012   4.680  69.625  1.00  0.00    -0.016 OA 
HETATM    2  C   UNL     1      -6.361   3.734  70.539  1.00  0.00    -0.027 C  
HETATM    3  C   UNL     1      -7.509   2.866  70.055  1.00  0.00    -0.044 C  
HETATM    4  O   UNL     1      -5.793   3.610  71.613  1.00  0.00    -0.012 OA 
ENDROOT
BRANCH   3   5
HETATM    5  O   UNL     1      -7.935   3.318  68.759  1.00  0.00    -0.057 OA 
BRANCH   5   6
HETATM    6  C   UNL     1      -9.296   3.788  68.795  1.00  0.00    -0.164 C  
BRANCH   6   7
HETATM    7  C   UNL     1      -9.295   5.319  68.635  1.00  0.00    -0.121 C  
BRANCH   7   8
HETATM    8  N   UNL     1      -9.269   5.798  67.243  1.00  0.00    -0.110 NA 
HETATM    9  C   UNL     1     -10.455   6.582  66.844  1.00  0.00    -0.277 C  
HETATM   10  C   UNL     1     -10.561   8.018  67.431  1.00  0.00    -0.267 C  
HETATM   11  N   UNL     1      -9.323   8.818  67.379  1.00  0.00    -0.135 NA 
HETATM   12  C   UNL     1      -8.125   8.032  67.675  1.00  0.00    -0.124 C  
HETATM   13  C   UNL     1      -8.083   6.643  66.997  1.00  0.00    -0.113 C  
BRANCH  11  14
HETATM   14  C   UNL     1      -9.442  10.141  68.058  1.00  0.00    -0.145 C  
BRANCH  14  15
HETATM   15  C   UNL     1     -10.405  10.183  69.274  1.00  0.00    -0.242 A  
HETATM   16  C   UNL     1     -11.617  10.887  69.211  1.00  0.00    -0.388 A  
HETATM   17  C   UNL     1     -10.141   9.465  70.461  1.00  0.00    -0.335 A  
HETATM   18  C   UNL     1     -12.528  10.861  70.279  1.00  0.00    -0.383 A  
HETATM   19  C   UNL     1     -12.240  10.131  71.427  1.00  0.00    -0.492 A  
HETATM   20  C   UNL     1     -11.044   9.434  71.521  1.00  0.00    -0.446 A  
ENDBRANCH  14  15
BRANCH  14  21
HETATM   21  C   UNL     1      -9.618  11.383  67.152  1.00  0.00    -0.193 A  
HETATM   22  C   UNL     1     -10.217  13.780  65.792  1.00  0.00    -0.311 A  
HETATM   23 CL   UNL     1     -10.686  15.257  65.048  1.00  0.00    -0.448 Cl 
HETATM   24  C   UNL     1     -10.810  12.590  65.391  1.00  0.00    -0.316 A  
HETATM   25  C   UNL     1      -8.969  12.588  67.484  1.00  0.00    -0.185 A  
HETATM   26  C   UNL     1     -10.490  11.400  66.049  1.00  0.00    -0.305 A  
HETATM   27  C   UNL     1      -9.266  13.778  66.807  1.00  0.00    -0.255 A  
ENDBRANCH  14  21
ENDBRANCH  11  14
ENDBRANCH   7   8
ENDBRANCH   6   7
ENDBRANCH   5   6
ENDBRANCH   3   5
TORSDOF 7
ENDMDL
MODEL      154
REMARK 921   NORMALIZED FREE ENERGY PREDICTED BY IDOCK:   -4.12 KCAL/MOL
REMARK 922        TOTAL FREE ENERGY PREDICTED BY IDOCK:   -6.84 KCAL/MOL
REMARK 923 INTER-LIGAND FREE ENERGY PREDICTED BY IDOCK:   -6.40 KCAL/MOL
REMARK 924 INTRA-LIGAND FREE ENERGY PREDICTED BY IDOCK:   -0.44 KCAL/MOL
REMARK 927      BINDING AFFINITY PREDICTED BY RF-SCORE:    0.00 PKD
ROOT
HETATM    1  O   UNL     1     -10.843  13.059  63.831  1.00  0.00    -0.395 OA 
HETATM    2  C   UNL     1     -12.155  13.418  63.807  1.00  0.00    -0.456 C  
HETATM    3  C   UNL     1     -12.628  13.950  65.148  1.00  0.00    -0.434 C  
HETATM    4  O   UNL     1     -12.849  13.324  62.806  1.00  0.00    -0.245 OA 
ENDROOT
BRANCH   3   5
HETATM    5  O   UNL     1     -11.545  13.893  66.092  1.00  0.00    -0.335 OA 
BRANCH   5   6
HETATM    6  C   UNL     1     -10.931  15.185  66.257  1.00  0.00    -0.335 C  
BRANCH   6   7
HETATM    7  C   UNL     1      -9.401  15.013  66.235  1.00  0.00    -0.307 C  
BRANCH   7   8
HETATM    8  N   UNL     1      -8.737  15.206  67.535  1.00  0.00    -0.170 NA 
HETATM    9  C   UNL     1      -9.463  14.630  68.685  1.00  0.00    -0.211 C  
HETATM   10  C   UNL     1      -9.444  13.079  68.803  1.00  0.00     0.116 C  
HETATM   11  N   UNL     1      -8.129  12.443  68.601  1.00  0.00    -0.075 NA 
HETATM   12  C   UNL     1      -7.354  13.068  67.529  1.00  0.00    -0.152 C  
HETATM   13  C   UNL     1      -7.384  14.614  67.530  1.00  0.00    -0.197 C  
BRANCH  11  14
HETATM   14  C   UNL     1      -8.183  10.952  68.608  1.00  0.00    -0.146 C  
BRANCH  14  15
HETATM   15  C   UNL     1      -8.513  10.290  67.244  1.00  0.00    -0.125 A  
HETATM   16  C   UNL     1      -9.757  10.489  66.627  1.00  0.00    -0.232 A  
HETATM   17  C   UNL     1      -7.562   9.523  66.537  1.00  0.00    -0.094 A  
HETATM   18  C   UNL     1     -10.031   9.958  65.355  1.00  0.00    -0.349 A  
HETATM   19  C   UNL     1      -9.063   9.219  64.683  1.00  0.00    -0.177 A  
HETATM   20  C   UNL     1      -7.827   8.998  65.274  1.00  0.00    -0.102 A  
ENDBRANCH  14  15
BRANCH  14  21
HETATM   21  C   UNL     1      -8.960  10.282  69.766  1.00  0.00    -0.079 A  
HETATM   22  C   UNL     1     -10.396   8.721  71.625  1.00  0.00    -0.321 A  
HETATM   23 CL   UNL     1     -11.293   7.681  72.659  1.00  0.00    -0.405 Cl 
HETATM   24  C   UNL     1     -11.063   9.658  70.847  1.00  0.00    -0.422 A  
HETATM   25  C   UNL     1      -8.298   9.384  70.625  1.00  0.00    -0.217 A  
HETATM   26  C   UNL     1     -10.345  10.450  69.947  1.00  0.00    -0.231 A  
HETATM   27  C   UNL     1      -9.012   8.610  71.549  1.00  0.00    -0.302 A  
ENDBRANCH  14  21
ENDBRANCH  11  14
ENDBRANCH   7   8
ENDBRANCH   6   7
ENDBRANCH   5   6
ENDBRANCH   3   5
TORSDOF 7
ENDMDL
MODEL      155
REMARK 921   NORMALIZED FREE ENERGY PREDICTED BY IDOCK:   -4.08 KCAL/MOL
REMARK 922        TOTAL FREE ENERGY PREDICTED BY IDOCK:   -6.78 KCAL/MOL
REMARK 923 INTER-LIGAND FREE ENERGY PREDICTED BY IDOCK:   -6.07 KCAL/MOL
REMARK 924 INTRA-LIGAND FREE ENERGY PREDICTED BY IDOCK:   -0.70 KCAL/MOL
REMARK 927      BINDING AFFINITY PREDICTED BY RF-SCORE:    0.00 PKD
ROOT
HETATM    1  O   UNL     1      -5.264  13.374  69.914  1.00  0.00    -0.082 OA 
HETATM    2  C   UNL     1      -6.100  12.301  69.933  1.00  0.00    -0.140 C  
HETATM    3  C   UNL     1      -6.939  12.205  68.672  1.00  0.00    -0.097 C  
HETATM    4  O   UNL     1      -6.144  11.513  70.866  1.00  0.00    -0.360 OA 
ENDROOT
BRANCH   3   5
HETATM    5  O   UNL     1      -6.633  13.315  67.810  1.00  0.00    -0.124 OA 
BRANCH   5   6
HETATM    6  C   UNL     1      -7.790  14.148  67.607  1.00  0.00    -0.179 C  
BRANCH   6   7
HETATM    7  C   UNL     1      -9.051  13.343  67.973  1.00  0.00    -0.205 C  
BRANCH   7   8
HETATM    8  N   UNL     1      -9.938  13.031  66.841  1.00  0.00    -0.238 NA 
HETATM    9  C   UNL     1      -9.472  11.919  65.987  1.00  0.00    -0.229 C  
HETATM   10  C   UNL     1      -9.592  10.492  66.591  1.00  0.00    -0.172 C  
HETATM   11  N   UNL     1     -10.875  10.186  67.250  1.00  0.00    -0.260 NA 
HETATM   12  C   UNL     1     -11.401  11.312  68.021  1.00  0.00    -0.304 C  
HETATM   13  C   UNL     1     -11.294  12.682  67.312  1.00  0.00    -0.318 C  
BRANCH  11  14
HETATM   14  C   UNL     1     -10.898   8.851  67.914  1.00  0.00    -0.030 C  
BRANCH  14  15
HETATM   15  C   UNL     1     -10.388   8.824  69.379  1.00  0.00    -0.217 A  
HETATM   16  C   UNL     1     -11.230   8.429  70.430  1.00  0.00    -0.220 A  
HETATM   17  C   UNL     1      -9.049   9.125  69.709  1.00  0.00    -0.173 A  
HETATM   18  C   UNL     1     -10.750   8.326  71.746  1.00  0.00    -0.332 A  
HETATM   19  C   UNL     1      -9.421   8.617  72.031  1.00  0.00    -0.370 A  
HETATM   20  C   UNL     1      -8.568   9.020  71.013  1.00  0.00    -0.264 A  
ENDBRANCH  14  15
BRANCH  14  21
HETATM   21  C   UNL     1     -10.351   7.652  67.103  1.00  0.00    -0.385 A  
HETATM   22  C   UNL     1      -9.246   5.303  65.999  1.00  0.00    -0.157 A  
HETATM   23 CL   UNL     1      -8.520   3.846  65.448  1.00  0.00    -0.108 Cl 
HETATM   24  C   UNL     1      -8.508   6.479  66.005  1.00  0.00    -0.145 A  
HETATM   25  C   UNL     1     -11.108   6.467  67.010  1.00  0.00    -0.411 A  
HETATM   26  C   UNL     1      -9.069   7.648  66.527  1.00  0.00    -0.203 A  
HETATM   27  C   UNL     1     -10.558   5.302  66.460  1.00  0.00    -0.348 A  
ENDBRANCH  14  21
ENDBRANCH  11  14
ENDBRANCH   7   8
ENDBRANCH   6   7
ENDBRANCH   5   6
ENDBRANCH   3   5
TORSDOF 7
ENDMDL
MODEL      156
REMARK 921   NORMALIZED FREE ENERGY PREDICTED BY IDOCK:   -4.06 KCAL/MOL
REMARK 922        TOTAL FREE ENERGY PREDICTED BY IDOCK:   -6.76 KCAL/MOL
REMARK 923 INTER-LIGAND FREE ENERGY PREDICTED BY IDOCK:   -5.76 KCAL/MOL
REMARK 924 INTRA-LIGAND FREE ENERGY PREDICTED BY IDOCK:   -0.99 KCAL/MOL
REMARK 927      BINDING AFFINITY PREDICTED BY RF-SCORE:    0.00 PKD
ROOT
HETATM    1  O   UNL     1     -12.132   9.983  71.843  1.00  0.00    -0.327 OA 
HETATM    2  C   UNL     1     -12.229  10.551  70.610  1.00  0.00    -0.352 C  
HETATM    3  C   UNL     1     -11.064  10.176  69.713  1.00  0.00    -0.279 C  
HETATM    4  O   UNL     1     -13.163  11.269  70.284  1.00  0.00     0.160 OA 
ENDROOT
BRANCH   3   5
HETATM    5  O   UNL     1     -10.151   9.338  70.442  1.00  0.00    -0.202 OA 
BRANCH   5   6
HETATM    6  C   UNL     1      -8.828   9.398  69.877  1.00  0.00    -0.199 C  
BRANCH   6   7
HETATM    7  C   UNL     1      -8.938   9.827  68.403  1.00  0.00    -0.123 C  
BRANCH   7   8
HETATM    8  N   UNL     1      -7.777  10.568  67.884  1.00  0.00    -0.092 NA 
HETATM    9  C   UNL     1      -8.002  11.226  66.582  1.00  0.00    -0.159 C  
HETATM   10  C   UNL     1      -8.914  12.486  66.596  1.00  0.00    -0.174 C  
HETATM   11  N   UNL     1      -8.637  13.459  67.669  1.00  0.00    -0.179 NA 
HETATM   12  C   UNL     1      -8.313  12.820  68.945  1.00  0.00     0.281 C  
HETATM   13  C   UNL     1      -7.351  11.615  68.835  1.00  0.00    -0.107 C  
BRANCH  11  14
HETATM   14  C   UNL     1      -9.610  14.588  67.713  1.00  0.00    -0.215 C  
BRANCH  14  15
HETATM   15  C   UNL     1      -9.034  15.982  67.348  1.00  0.00    -0.202 A  
HETATM   16  C   UNL     1      -9.878  17.035  66.967  1.00  0.00    -0.270 A  
HETATM   17  C   UNL     1      -7.655  16.269  67.450  1.00  0.00    -0.183 A  
HETATM   18  C   UNL     1      -9.369  18.320  66.715  1.00  0.00    -0.295 A  
HETATM   19  C   UNL     1      -8.007  18.569  66.840  1.00  0.00    -0.250 A  
HETATM   20  C   UNL     1      -7.146  17.543  67.205  1.00  0.00    -0.198 A  
ENDBRANCH  14  15
BRANCH  14  21
HETATM   21  C   UNL     1     -10.542  14.666  68.946  1.00  0.00    -0.253 A  
HETATM   22  C   UNL     1     -12.470  15.079  70.963  1.00  0.00    -0.338 A  
HETATM   23 CL   UNL     1     -13.691  15.434  72.120  1.00  0.00    -0.562 Cl 
HETATM   24  C   UNL     1     -11.255  15.749  71.019  1.00  0.00    -0.396 A  
HETATM   25  C   UNL     1     -11.747  13.937  68.959  1.00  0.00    -0.378 A  
HETATM   26  C   UNL     1     -10.291  15.522  70.033  1.00  0.00    -0.315 A  
HETATM   27  C   UNL     1     -12.704  14.142  69.962  1.00  0.00    -0.155 A  
ENDBRANCH  14  21
ENDBRANCH  11  14
ENDBRANCH   7   8
ENDBRANCH   6   7
ENDBRANCH   5   6
ENDBRANCH   3   5
TORSDOF 7
ENDMDL
MODEL      157
REMARK 921   NORMALIZED FREE ENERGY PREDICTED BY IDOCK:   -4.06 KCAL/MOL
REMARK 922        TOTAL FREE ENERGY PREDICTED BY IDOCK:   -6.75 KCAL/MOL
REMARK 923 INTER-LIGAND FREE ENERGY PREDICTED BY IDOCK:   -6.17 KCAL/MOL
REMARK 924 INTRA-LIGAND FREE ENERGY PREDICTED BY IDOCK:   -0.58 KCAL/MOL
REMARK 927      BINDING AFFINITY PREDICTED BY RF-SCORE:    0.00 PKD
ROOT
HETATM    1  O   UNL     1     -11.031  18.870  65.180  1.00  0.00    -0.491 OA 
HETATM    2  C   UNL     1     -10.080  18.936  66.151  1.00  0.00    -0.393 C  
HETATM    3  C   UNL     1      -9.945  17.628  66.911  1.00  0.00    -0.323 C  
HETATM    4  O   UNL     1      -9.416  19.940  66.360  1.00  0.00    -0.373 OA 
ENDROOT
BRANCH   3   5
HETATM    5  O   UNL     1     -10.901  16.682  66.404  1.00  0.00    -0.174 OA 
BRANCH   5   6
HETATM    6  C   UNL     1     -10.311  15.836  65.399  1.00  0.00    -0.389 C  
BRANCH   6   7
HETATM    7  C   UNL     1     -10.111  14.429  65.991  1.00  0.00    -0.322 C  
BRANCH   7   8
HETATM    8  N   UNL     1     -11.289  13.550  65.912  1.00  0.00    -0.305 NA 
HETATM    9  C   UNL     1     -11.042  12.254  65.246  1.00  0.00    -0.316 C  
HETATM   10  C   UNL     1     -10.208  11.216  66.050  1.00  0.00    -0.250 C  
HETATM   11  N   UNL     1     -10.594  11.050  67.464  1.00  0.00    -0.212 NA 
HETATM   12  C   UNL     1     -10.938  12.315  68.111  1.00  0.00    -0.231 C  
HETATM   13  C   UNL     1     -11.821  13.255  67.258  1.00  0.00    -0.372 C  
BRANCH  11  14
HETATM   14  C   UNL     1      -9.693  10.133  68.221  1.00  0.00    -0.141 C  
BRANCH  14  15
HETATM   15  C   UNL     1      -8.173  10.383  68.031  1.00  0.00    -0.114 A  
HETATM   16  C   UNL     1      -7.559  11.530  68.557  1.00  0.00    -0.130 A  
HETATM   17  C   UNL     1      -7.336   9.444  67.390  1.00  0.00    -0.087 A  
HETATM   18  C   UNL     1      -6.171  11.720  68.459  1.00  0.00    -0.051 A  
HETATM   19  C   UNL     1      -5.376  10.766  67.832  1.00  0.00    -0.039 A  
HETATM   20  C   UNL     1      -5.958   9.627  67.294  1.00  0.00    -0.052 A  
ENDBRANCH  14  15
BRANCH  14  21
HETATM   21  C   UNL     1     -10.027   8.623  68.177  1.00  0.00    -0.210 A  
HETATM   22  C   UNL     1     -10.222   5.812  68.048  1.00  0.00    -0.187 A  
HETATM   23 CL   UNL     1     -10.212   4.097  67.928  1.00  0.00     0.104 Cl 
HETATM   24  C   UNL     1     -10.509   6.578  66.926  1.00  0.00    -0.347 A  
HETATM   25  C   UNL     1      -9.823   7.828  69.321  1.00  0.00    -0.173 A  
HETATM   26  C   UNL     1     -10.439   7.971  67.001  1.00  0.00    -0.410 A  
HETATM   27  C   UNL     1      -9.921   6.432  69.257  1.00  0.00    -0.178 A  
ENDBRANCH  14  21
ENDBRANCH  11  14
ENDBRANCH   7   8
ENDBRANCH   6   7
ENDBRANCH   5   6
ENDBRANCH   3   5
TORSDOF 7
ENDMDL
MODEL      158
REMARK 921   NORMALIZED FREE ENERGY PREDICTED BY IDOCK:   -4.01 KCAL/MOL
REMARK 922        TOTAL FREE ENERGY PREDICTED BY IDOCK:   -6.68 KCAL/MOL
REMARK 923 INTER-LIGAND FREE ENERGY PREDICTED BY IDOCK:   -5.36 KCAL/MOL
REMARK 924 INTRA-LIGAND FREE ENERGY PREDICTED BY IDOCK:   -1.32 KCAL/MOL
REMARK 927      BINDING AFFINITY PREDICTED BY RF-SCORE:    0.00 PKD
ROOT
HETATM    1  O   UNL     1     -12.264  13.288  68.789  1.00  0.00    -0.278 OA 
HETATM    2  C   UNL     1     -11.749  12.043  68.982  1.00  0.00    -0.325 C  
HETATM    3  C   UNL     1     -10.332  11.921  68.452  1.00  0.00    -0.209 C  
HETATM    4  O   UNL     1     -12.372  11.147  69.533  1.00  0.00    -0.301 OA 
ENDROOT
BRANCH   3   5
HETATM    5  O   UNL     1      -9.938  13.167  67.852  1.00  0.00    -0.220 OA 
BRANCH   5   6
HETATM    6  C   UNL     1      -9.375  12.958  66.544  1.00  0.00    -0.222 C  
BRANCH   6   7
HETATM    7  C   UNL     1      -8.618  11.617  66.539  1.00  0.00    -0.164 C  
BRANCH   7   8
HETATM    8  N   UNL     1      -8.774  10.821  65.310  1.00  0.00    -0.189 NA 
HETATM    9  C   UNL     1      -7.679   9.863  65.058  1.00  0.00    -0.133 C  
HETATM   10  C   UNL     1      -7.640   8.607  65.974  1.00  0.00    -0.093 C  
HETATM   11  N   UNL     1      -8.934   7.930  66.180  1.00  0.00    -0.175 NA 
HETATM   12  C   UNL     1     -10.047   8.866  66.332  1.00  0.00    -0.263 C  
HETATM   13  C   UNL     1     -10.034  10.049  65.336  1.00  0.00    -0.294 C  
BRANCH  11  14
HETATM   14  C   UNL     1      -8.866   6.805  67.156  1.00  0.00    -0.119 C  
BRANCH  14  15
HETATM   15  C   UNL     1      -9.040   5.385  66.554  1.00  0.00    -0.135 A  
HETATM   16  C   UNL     1      -9.867   5.170  65.441  1.00  0.00     0.070 A  
HETATM   17  C   UNL     1      -8.326   4.272  67.048  1.00  0.00    -0.101 A  
HETATM   18  C   UNL     1      -9.963   3.903  64.842  1.00  0.00    -0.198 A  
HETATM   19  C   UNL     1      -9.234   2.832  65.348  1.00  0.00    -0.124 A  
HETATM   20  C   UNL     1      -8.416   3.014  66.455  1.00  0.00    -0.107 A  
ENDBRANCH  14  15
BRANCH  14  21
HETATM   21  C   UNL     1      -9.670   6.964  68.469  1.00  0.00    -0.138 A  
HETATM   22  C   UNL     1     -10.885   6.948  71.015  1.00  0.00    -0.241 A  
HETATM   23 CL   UNL     1     -11.559   6.824  72.592  1.00  0.00    -0.223 Cl 
HETATM   24  C   UNL     1     -11.490   6.288  69.955  1.00  0.00    -0.459 A  
HETATM   25  C   UNL     1      -9.120   7.694  69.541  1.00  0.00    -0.146 A  
HETATM   26  C   UNL     1     -10.901   6.321  68.688  1.00  0.00    -0.401 A  
HETATM   27  C   UNL     1      -9.725   7.687  70.805  1.00  0.00    -0.173 A  
ENDBRANCH  14  21
ENDBRANCH  11  14
ENDBRANCH   7   8
ENDBRANCH   6   7
ENDBRANCH   5   6
ENDBRANCH   3   5
TORSDOF 7
ENDMDL
MODEL      159
REMARK 921   NORMALIZED FREE ENERGY PREDICTED BY IDOCK:   -4.01 KCAL/MOL
REMARK 922        TOTAL FREE ENERGY PREDICTED BY IDOCK:   -6.68 KCAL/MOL
REMARK 923 INTER-LIGAND FREE ENERGY PREDICTED BY IDOCK:   -5.49 KCAL/MOL
REMARK 924 INTRA-LIGAND FREE ENERGY PREDICTED BY IDOCK:   -1.20 KCAL/MOL
REMARK 927      BINDING AFFINITY PREDICTED BY RF-SCORE:    0.00 PKD
ROOT
HETATM    1  O   UNL     1     -11.420  10.391  71.034  1.00  0.00    -0.328 OA 
HETATM    2  C   UNL     1     -12.517   9.625  71.284  1.00  0.00    -0.355 C  
HETATM    3  C   UNL     1     -12.198   8.441  72.178  1.00  0.00    -0.374 C  
HETATM    4  O   UNL     1     -13.623   9.888  70.837  1.00  0.00    -0.301 OA 
ENDROOT
BRANCH   3   5
HETATM    5  O   UNL     1     -10.794   8.442  72.487  1.00  0.00    -0.344 OA 
BRANCH   5   6
HETATM    6  C   UNL     1     -10.448   7.327  73.332  1.00  0.00    -0.377 C  
BRANCH   6   7
HETATM    7  C   UNL     1      -9.194   6.643  72.758  1.00  0.00    -0.135 C  
BRANCH   7   8
HETATM    8  N   UNL     1      -9.419   5.295  72.212  1.00  0.00    -0.141 NA 
HETATM    9  C   UNL     1     -10.524   5.207  71.236  1.00  0.00    -0.175 C  
HETATM   10  C   UNL     1     -10.257   5.829  69.836  1.00  0.00    -0.236 C  
HETATM   11  N   UNL     1      -8.954   5.495  69.231  1.00  0.00    -0.111 NA 
HETATM   12  C   UNL     1      -7.863   5.480  70.204  1.00  0.00    -0.089 C  
HETATM   13  C   UNL     1      -8.204   4.786  71.543  1.00  0.00    -0.104 C  
BRANCH  11  14
HETATM   14  C   UNL     1      -8.696   6.207  67.946  1.00  0.00    -0.113 C  
BRANCH  14  15
HETATM   15  C   UNL     1      -9.265   7.648  67.855  1.00  0.00    -0.139 A  
HETATM   16  C   UNL     1      -8.703   8.695  68.601  1.00  0.00    -0.138 A  
HETATM   17  C   UNL     1     -10.317   7.982  66.974  1.00  0.00    -0.414 A  
HETATM   18  C   UNL     1      -9.161  10.015  68.460  1.00  0.00    -0.127 A  
HETATM   19  C   UNL     1     -10.190  10.308  67.572  1.00  0.00    -0.254 A  
HETATM   20  C   UNL     1     -10.772   9.290  66.828  1.00  0.00    -0.120 A  
ENDBRANCH  14  15
BRANCH  14  21
HETATM   21  C   UNL     1      -8.948   5.416  66.640  1.00  0.00    -0.116 A  
HETATM   22  C   UNL     1      -9.568   4.334  64.110  1.00  0.00    -0.116 A  
HETATM   23 CL   UNL     1     -10.019   3.787  62.544  1.00  0.00    -0.135 Cl 
HETATM   24  C   UNL     1     -10.411   4.101  65.188  1.00  0.00    -0.198 A  
HETATM   25  C   UNL     1      -8.069   5.569  65.550  1.00  0.00    -0.120 A  
HETATM   26  C   UNL     1     -10.087   4.614  66.447  1.00  0.00    -0.289 A  
HETATM   27  C   UNL     1      -8.378   5.029  64.294  1.00  0.00    -0.136 A  
ENDBRANCH  14  21
ENDBRANCH  11  14
ENDBRANCH   7   8
ENDBRANCH   6   7
ENDBRANCH   5   6
ENDBRANCH   3   5
TORSDOF 7
ENDMDL
MODEL      160
REMARK 921   NORMALIZED FREE ENERGY PREDICTED BY IDOCK:   -3.99 KCAL/MOL
REMARK 922        TOTAL FREE ENERGY PREDICTED BY IDOCK:   -6.66 KCAL/MOL
REMARK 923 INTER-LIGAND FREE ENERGY PREDICTED BY IDOCK:   -7.15 KCAL/MOL
REMARK 924 INTRA-LIGAND FREE ENERGY PREDICTED BY IDOCK:    0.49 KCAL/MOL
REMARK 927      BINDING AFFINITY PREDICTED BY RF-SCORE:    0.00 PKD
ROOT
HETATM    1  O   UNL     1      -6.262  11.367  70.348  1.00  0.00    -0.231 OA 
HETATM    2  C   UNL     1      -6.433  10.057  70.674  1.00  0.00    -0.098 C  
HETATM    3  C   UNL     1      -6.119   9.131  69.513  1.00  0.00    -0.036 C  
HETATM    4  O   UNL     1      -6.790   9.693  71.785  1.00  0.00    -0.291 OA 
ENDROOT
BRANCH   3   5
HETATM    5  O   UNL     1      -5.755   9.915  68.364  1.00  0.00    -0.042 OA 
BRANCH   5   6
HETATM    6  C   UNL     1      -6.923  10.407  67.680  1.00  0.00    -0.083 C  
BRANCH   6   7
HETATM    7  C   UNL     1      -7.710   9.208  67.119  1.00  0.00    -0.098 C  
BRANCH   7   8
HETATM    8  N   UNL     1      -8.707   9.549  66.091  1.00  0.00    -0.141 NA 
HETATM    9  C   UNL     1     -10.006   8.863  66.247  1.00  0.00    -0.266 C  
HETATM   10  C   UNL     1     -10.908   9.355  67.414  1.00  0.00    -0.119 C  
HETATM   11  N   UNL     1     -11.033  10.818  67.546  1.00  0.00    -0.294 NA 
HETATM   12  C   UNL     1      -9.775  11.522  67.296  1.00  0.00    -0.182 C  
HETATM   13  C   UNL     1      -8.979  11.001  66.078  1.00  0.00    -0.197 C  
BRANCH  11  14
HETATM   14  C   UNL     1     -11.810  11.242  68.747  1.00  0.00    -0.329 C  
BRANCH  14  15
HETATM   15  C   UNL     1     -11.879  12.772  68.993  1.00  0.00    -0.344 A  
HETATM   16  C   UNL     1     -11.821  13.298  70.293  1.00  0.00    -0.307 A  
HETATM   17  C   UNL     1     -11.931  13.698  67.928  1.00  0.00    -0.382 A  
HETATM   18  C   UNL     1     -11.801  14.685  70.515  1.00  0.00    -0.367 A  
HETATM   19  C   UNL     1     -11.839  15.566  69.440  1.00  0.00    -0.392 A  
HETATM   20  C   UNL     1     -11.907  15.074  68.144  1.00  0.00    -0.286 A  
ENDBRANCH  14  15
BRANCH  14  21
HETATM   21  C   UNL     1     -11.550  10.469  70.062  1.00  0.00    -0.392 A  
HETATM   22  C   UNL     1     -11.132   8.710  72.227  1.00  0.00    -0.325 A  
HETATM   23 CL   UNL     1     -10.925   7.538  73.469  1.00  0.00    -0.286 Cl 
HETATM   24  C   UNL     1     -12.362   9.333  72.069  1.00  0.00    -0.433 A  
HETATM   25  C   UNL     1     -10.287   9.888  70.293  1.00  0.00    -0.339 A  
HETATM   26  C   UNL     1     -12.557  10.226  71.012  1.00  0.00    -0.487 A  
HETATM   27  C   UNL     1     -10.080   9.015  71.370  1.00  0.00    -0.399 A  
ENDBRANCH  14  21
ENDBRANCH  11  14
ENDBRANCH   7   8
ENDBRANCH   6   7
ENDBRANCH   5   6
ENDBRANCH   3   5
TORSDOF 7
ENDMDL
MODEL      161
REMARK 921   NORMALIZED FREE ENERGY PREDICTED BY IDOCK:   -3.98 KCAL/MOL
REMARK 922        TOTAL FREE ENERGY PREDICTED BY IDOCK:   -6.64 KCAL/MOL
REMARK 923 INTER-LIGAND FREE ENERGY PREDICTED BY IDOCK:   -6.01 KCAL/MOL
REMARK 924 INTRA-LIGAND FREE ENERGY PREDICTED BY IDOCK:   -0.63 KCAL/MOL
REMARK 927      BINDING AFFINITY PREDICTED BY RF-SCORE:    0.00 PKD
ROOT
HETATM    1  O   UNL     1     -11.093  10.063  69.749  1.00  0.00    -0.247 OA 
HETATM    2  C   UNL     1     -10.880   9.541  70.988  1.00  0.00    -0.353 C  
HETATM    3  C   UNL     1      -9.451   9.061  71.169  1.00  0.00    -0.278 C  
HETATM    4  O   UNL     1     -11.752   9.487  71.842  1.00  0.00    -0.374 OA 
ENDROOT
BRANCH   3   5
HETATM    5  O   UNL     1      -8.721   9.264  69.948  1.00  0.00    -0.147 OA 
BRANCH   5   6
HETATM    6  C   UNL     1      -7.447   9.885  70.203  1.00  0.00    -0.170 C  
BRANCH   6   7
HETATM    7  C   UNL     1      -7.426  11.268  69.527  1.00  0.00     0.081 C  
BRANCH   7   8
HETATM    8  N   UNL     1      -6.097  11.894  69.437  1.00  0.00    -0.086 NA 
HETATM    9  C   UNL     1      -5.632  12.150  68.059  1.00  0.00    -0.060 C  
HETATM   10  C   UNL     1      -6.332  13.314  67.302  1.00  0.00     0.165 C  
HETATM   11  N   UNL     1      -6.501  14.561  68.071  1.00  0.00    -0.135 NA 
HETATM   12  C   UNL     1      -6.865  14.322  69.467  1.00  0.00    -0.110 C  
HETATM   13  C   UNL     1      -6.072  13.186  70.153  1.00  0.00    -0.099 C  
BRANCH  11  14
HETATM   14  C   UNL     1      -7.279  15.606  67.345  1.00  0.00    -0.208 C  
BRANCH  14  15
HETATM   15  C   UNL     1      -7.208  17.033  67.949  1.00  0.00    -0.162 A  
HETATM   16  C   UNL     1      -5.973  17.653  68.192  1.00  0.00    -0.163 A  
HETATM   17  C   UNL     1      -8.370  17.791  68.212  1.00  0.00    -0.276 A  
HETATM   18  C   UNL     1      -5.904  18.975  68.662  1.00  0.00    -0.224 A  
HETATM   19  C   UNL     1      -7.070  19.696  68.897  1.00  0.00    -0.388 A  
HETATM   20  C   UNL     1      -8.306  19.104  68.675  1.00  0.00    -0.403 A  
ENDBRANCH  14  15
BRANCH  14  21
HETATM   21  C   UNL     1      -8.723  15.241  66.923  1.00  0.00    -0.288 A  
HETATM   22  C   UNL     1     -11.186  14.218  66.006  1.00  0.00    -0.324 A  
HETATM   23 CL   UNL     1     -12.618  13.500  65.380  1.00  0.00    -0.532 Cl 
HETATM   24  C   UNL     1     -10.504  15.162  65.250  1.00  0.00    -0.434 A  
HETATM   25  C   UNL     1      -9.475  14.346  67.709  1.00  0.00    -0.211 A  
HETATM   26  C   UNL     1      -9.298  15.688  65.720  1.00  0.00    -0.303 A  
HETATM   27  C   UNL     1     -10.700  13.839  67.253  1.00  0.00    -0.286 A  
ENDBRANCH  14  21
ENDBRANCH  11  14
ENDBRANCH   7   8
ENDBRANCH   6   7
ENDBRANCH   5   6
ENDBRANCH   3   5
TORSDOF 7
ENDMDL
MODEL      162
REMARK 921   NORMALIZED FREE ENERGY PREDICTED BY IDOCK:   -3.96 KCAL/MOL
REMARK 922        TOTAL FREE ENERGY PREDICTED BY IDOCK:   -6.62 KCAL/MOL
REMARK 923 INTER-LIGAND FREE ENERGY PREDICTED BY IDOCK:   -6.22 KCAL/MOL
REMARK 924 INTRA-LIGAND FREE ENERGY PREDICTED BY IDOCK:   -0.39 KCAL/MOL
REMARK 927      BINDING AFFINITY PREDICTED BY RF-SCORE:    0.00 PKD
ROOT
HETATM    1  O   UNL     1     -11.285  16.591  69.984  1.00  0.00    -0.314 OA 
HETATM    2  C   UNL     1     -12.108  15.549  70.284  1.00  0.00    -0.386 C  
HETATM    3  C   UNL     1     -11.541  14.220  69.820  1.00  0.00    -0.293 C  
HETATM    4  O   UNL     1     -13.171  15.693  70.869  1.00  0.00    -0.515 OA 
ENDROOT
BRANCH   3   5
HETATM    5  O   UNL     1     -10.288  14.442  69.152  1.00  0.00    -0.223 OA 
BRANCH   5   6
HETATM    6  C   UNL     1     -10.214  13.692  67.925  1.00  0.00    -0.250 C  
BRANCH   6   7
HETATM    7  C   UNL     1     -10.148  12.192  68.265  1.00  0.00    -0.210 C  
BRANCH   7   8
HETATM    8  N   UNL     1     -11.388  11.442  68.002  1.00  0.00    -0.281 NA 
HETATM    9  C   UNL     1     -11.286  10.456  66.908  1.00  0.00     0.134 C  
HETATM   10  C   UNL     1     -10.466   9.170  67.214  1.00  0.00    -0.265 C  
HETATM   11  N   UNL     1     -10.748   8.531  68.513  1.00  0.00    -0.099 NA 
HETATM   12  C   UNL     1     -10.950   9.500  69.591  1.00  0.00    -0.212 C  
HETATM   13  C   UNL     1     -11.830  10.712  69.209  1.00  0.00    -0.237 C  
BRANCH  11  14
HETATM   14  C   UNL     1      -9.856   7.374  68.811  1.00  0.00    -0.164 C  
BRANCH  14  15
HETATM   15  C   UNL     1      -9.594   6.408  67.625  1.00  0.00    -0.126 A  
HETATM   16  C   UNL     1     -10.623   5.608  67.105  1.00  0.00    -0.344 A  
HETATM   17  C   UNL     1      -8.342   6.344  66.976  1.00  0.00    -0.112 A  
HETATM   18  C   UNL     1     -10.412   4.794  65.980  1.00  0.00    -0.332 A  
HETATM   19  C   UNL     1      -9.168   4.768  65.359  1.00  0.00    -0.156 A  
HETATM   20  C   UNL     1      -8.129   5.541  65.858  1.00  0.00    -0.110 A  
ENDBRANCH  14  15
BRANCH  14  21
HETATM   21  C   UNL     1     -10.125   6.598  70.123  1.00  0.00    -0.200 A  
HETATM   22  C   UNL     1     -10.529   5.550  72.710  1.00  0.00    -0.212 A  
HETATM   23 CL   UNL     1     -10.719   5.023  74.336  1.00  0.00    -0.254 Cl 
HETATM   24  C   UNL     1      -9.330   5.318  72.049  1.00  0.00    -0.159 A  
HETATM   25  C   UNL     1     -11.361   6.748  70.782  1.00  0.00    -0.374 A  
HETATM   26  C   UNL     1      -9.143   5.815  70.756  1.00  0.00    -0.161 A  
HETATM   27  C   UNL     1     -11.561   6.225  72.067  1.00  0.00    -0.372 A  
ENDBRANCH  14  21
ENDBRANCH  11  14
ENDBRANCH   7   8
ENDBRANCH   6   7
ENDBRANCH   5   6
ENDBRANCH   3   5
TORSDOF 7
ENDMDL
MODEL      163
REMARK 921   NORMALIZED FREE ENERGY PREDICTED BY IDOCK:   -3.96 KCAL/MOL
REMARK 922        TOTAL FREE ENERGY PREDICTED BY IDOCK:   -6.61 KCAL/MOL
REMARK 923 INTER-LIGAND FREE ENERGY PREDICTED BY IDOCK:   -5.87 KCAL/MOL
REMARK 924 INTRA-LIGAND FREE ENERGY PREDICTED BY IDOCK:   -0.75 KCAL/MOL
REMARK 927      BINDING AFFINITY PREDICTED BY RF-SCORE:    0.00 PKD
ROOT
HETATM    1  O   UNL     1      -7.360  10.084  70.353  1.00  0.00    -0.190 OA 
HETATM    2  C   UNL     1      -6.420  10.890  69.789  1.00  0.00    -0.128 C  
HETATM    3  C   UNL     1      -7.006  11.788  68.714  1.00  0.00    -0.103 C  
HETATM    4  O   UNL     1      -5.248  10.882  70.134  1.00  0.00    -0.046 OA 
ENDROOT
BRANCH   3   5
HETATM    5  O   UNL     1      -8.408  11.504  68.567  1.00  0.00    -0.148 OA 
BRANCH   5   6
HETATM    6  C   UNL     1      -8.690  10.936  67.275  1.00  0.00    -0.131 C  
BRANCH   6   7
HETATM    7  C   UNL     1      -9.605   9.712  67.461  1.00  0.00    -0.150 C  
BRANCH   7   8
HETATM    8  N   UNL     1      -8.974   8.415  67.166  1.00  0.00    -0.135 NA 
HETATM    9  C   UNL     1      -8.232   7.825  68.299  1.00  0.00    -0.124 C  
HETATM   10  C   UNL     1      -9.092   7.246  69.458  1.00  0.00    -0.143 C  
HETATM   11  N   UNL     1     -10.233   6.408  69.045  1.00  0.00    -0.171 NA 
HETATM   12  C   UNL     1     -10.920   6.927  67.862  1.00  0.00    -0.183 C  
HETATM   13  C   UNL     1      -9.981   7.422  66.738  1.00  0.00    -0.230 C  
BRANCH  11  14
HETATM   14  C   UNL     1     -11.094   5.974  70.183  1.00  0.00    -0.361 C  
BRANCH  14  15
HETATM   15  C   UNL     1     -11.952   7.090  70.835  1.00  0.00    -0.409 A  
HETATM   16  C   UNL     1     -13.299   6.869  71.160  1.00  0.00    -0.114 A  
HETATM   17  C   UNL     1     -11.403   8.341  71.193  1.00  0.00    -0.298 A  
HETATM   18  C   UNL     1     -14.056   7.848  71.824  1.00  0.00    -0.520 A  
HETATM   19  C   UNL     1     -13.477   9.063  72.173  1.00  0.00    -0.514 A  
HETATM   20  C   UNL     1     -12.150   9.313  71.856  1.00  0.00    -0.440 A  
ENDBRANCH  14  15
BRANCH  14  21
HETATM   21  C   UNL     1     -10.441   5.065  71.251  1.00  0.00    -0.213 A  
HETATM   22  C   UNL     1      -9.595   3.163  73.155  1.00  0.00    -0.099 A  
HETATM   23 CL   UNL     1      -9.203   1.953  74.312  1.00  0.00    -0.074 Cl 
HETATM   24  C   UNL     1     -10.171   4.355  73.575  1.00  0.00    -0.216 A  
HETATM   25  C   UNL     1      -9.779   3.886  70.856  1.00  0.00    -0.253 A  
HETATM   26  C   UNL     1     -10.563   5.307  72.631  1.00  0.00    -0.278 A  
HETATM   27  C   UNL     1      -9.358   2.942  71.803  1.00  0.00    -0.193 A  
ENDBRANCH  14  21
ENDBRANCH  11  14
ENDBRANCH   7   8
ENDBRANCH   6   7
ENDBRANCH   5   6
ENDBRANCH   3   5
TORSDOF 7
ENDMDL
MODEL      164
REMARK 921   NORMALIZED FREE ENERGY PREDICTED BY IDOCK:   -3.92 KCAL/MOL
REMARK 922        TOTAL FREE ENERGY PREDICTED BY IDOCK:   -6.56 KCAL/MOL
REMARK 923 INTER-LIGAND FREE ENERGY PREDICTED BY IDOCK:   -6.05 KCAL/MOL
REMARK 924 INTRA-LIGAND FREE ENERGY PREDICTED BY IDOCK:   -0.51 KCAL/MOL
REMARK 927      BINDING AFFINITY PREDICTED BY RF-SCORE:    0.00 PKD
ROOT
HETATM    1  O   UNL     1      -7.944  17.625  65.648  1.00  0.00    -0.529 OA 
HETATM    2  C   UNL     1      -8.731  17.684  66.756  1.00  0.00    -0.258 C  
HETATM    3  C   UNL     1     -10.093  17.053  66.526  1.00  0.00    -0.314 C  
HETATM    4  O   UNL     1      -8.358  18.183  67.807  1.00  0.00    -0.243 OA 
ENDROOT
BRANCH   3   5
HETATM    5  O   UNL     1     -10.181  16.593  65.167  1.00  0.00    -0.592 OA 
BRANCH   5   6
HETATM    6  C   UNL     1     -10.570  15.207  65.113  1.00  0.00    -0.424 C  
BRANCH   6   7
HETATM    7  C   UNL     1     -10.502  14.618  66.534  1.00  0.00    -0.290 C  
BRANCH   7   8
HETATM    8  N   UNL     1     -11.469  13.541  66.805  1.00  0.00    -0.331 NA 
HETATM    9  C   UNL     1     -11.376  12.389  65.886  1.00  0.00    -0.356 C  
HETATM   10  C   UNL     1     -10.146  11.457  66.074  1.00  0.00    -0.234 C  
HETATM   11  N   UNL     1      -9.841  11.081  67.467  1.00  0.00    -0.168 NA 
HETATM   12  C   UNL     1     -10.024  12.187  68.406  1.00  0.00    -0.206 C  
HETATM   13  C   UNL     1     -11.307  13.019  68.178  1.00  0.00    -0.294 C  
BRANCH  11  14
HETATM   14  C   UNL     1      -8.588  10.284  67.606  1.00  0.00    -0.118 C  
BRANCH  14  15
HETATM   15  C   UNL     1      -8.129   9.531  66.329  1.00  0.00    -0.111 A  
HETATM   16  C   UNL     1      -7.168  10.084  65.470  1.00  0.00    -0.133 A  
HETATM   17  C   UNL     1      -8.601   8.238  66.015  1.00  0.00    -0.167 A  
HETATM   18  C   UNL     1      -6.690   9.371  64.358  1.00  0.00    -0.090 A  
HETATM   19  C   UNL     1      -7.169   8.094  64.088  1.00  0.00    -0.086 A  
HETATM   20  C   UNL     1      -8.128   7.526  64.915  1.00  0.00    -0.121 A  
ENDBRANCH  14  15
BRANCH  14  21
HETATM   21  C   UNL     1      -8.456   9.395  68.865  1.00  0.00    -0.122 A  
HETATM   22  C   UNL     1      -8.564   7.971  71.298  1.00  0.00    -0.126 A  
HETATM   23 CL   UNL     1      -8.723   7.191  72.822  1.00  0.00    -0.135 Cl 
HETATM   24  C   UNL     1      -7.695   9.045  71.163  1.00  0.00    -0.143 A  
HETATM   25  C   UNL     1      -9.267   8.252  69.001  1.00  0.00    -0.147 A  
HETATM   26  C   UNL     1      -7.623   9.731  69.947  1.00  0.00    -0.154 A  
HETATM   27  C   UNL     1      -9.319   7.544  70.210  1.00  0.00    -0.161 A  
ENDBRANCH  14  21
ENDBRANCH  11  14
ENDBRANCH   7   8
ENDBRANCH   6   7
ENDBRANCH   5   6
ENDBRANCH   3   5
TORSDOF 7
ENDMDL
MODEL      165
REMARK 921   NORMALIZED FREE ENERGY PREDICTED BY IDOCK:   -3.85 KCAL/MOL
REMARK 922        TOTAL FREE ENERGY PREDICTED BY IDOCK:   -6.46 KCAL/MOL
REMARK 923 INTER-LIGAND FREE ENERGY PREDICTED BY IDOCK:   -5.27 KCAL/MOL
REMARK 924 INTRA-LIGAND FREE ENERGY PREDICTED BY IDOCK:   -1.19 KCAL/MOL
REMARK 927      BINDING AFFINITY PREDICTED BY RF-SCORE:    0.00 PKD
ROOT
HETATM    1  O   UNL     1      -6.949  10.296  62.839  1.00  0.00    -0.135 OA 
HETATM    2  C   UNL     1      -5.752  10.117  63.460  1.00  0.00    -0.128 C  
HETATM    3  C   UNL     1      -5.273   8.679  63.377  1.00  0.00    -0.062 C  
HETATM    4  O   UNL     1      -5.146  11.027  64.006  1.00  0.00    -0.221 OA 
ENDROOT
BRANCH   3   5
HETATM    5  O   UNL     1      -6.253   7.889  62.683  1.00  0.00    -0.074 OA 
BRANCH   5   6
HETATM    6  C   UNL     1      -6.571   6.692  63.418  1.00  0.00    -0.041 C  
BRANCH   6   7
HETATM    7  C   UNL     1      -7.586   7.045  64.521  1.00  0.00    -0.107 C  
BRANCH   7   8
HETATM    8  N   UNL     1      -7.850   5.966  65.487  1.00  0.00    -0.098 NA 
HETATM    9  C   UNL     1      -7.073   6.062  66.739  1.00  0.00    -0.070 C  
HETATM   10  C   UNL     1      -7.501   7.179  67.732  1.00  0.00    -0.098 C  
HETATM   11  N   UNL     1      -8.952   7.296  67.969  1.00  0.00    -0.132 NA 
HETATM   12  C   UNL     1      -9.744   7.105  66.754  1.00  0.00    -0.192 C  
HETATM   13  C   UNL     1      -9.279   5.931  65.862  1.00  0.00    -0.092 C  
BRANCH  11  14
HETATM   14  C   UNL     1      -9.321   8.454  68.834  1.00  0.00    -0.147 C  
BRANCH  14  15
HETATM   15  C   UNL     1     -10.304   8.137  69.992  1.00  0.00    -0.215 A  
HETATM   16  C   UNL     1     -11.153   7.021  69.933  1.00  0.00    -0.301 A  
HETATM   17  C   UNL     1     -10.338   8.907  71.174  1.00  0.00    -0.338 A  
HETATM   18  C   UNL     1     -11.985   6.684  71.013  1.00  0.00    -0.415 A  
HETATM   19  C   UNL     1     -11.982   7.459  72.168  1.00  0.00    -0.307 A  
HETATM   20  C   UNL     1     -11.160   8.575  72.250  1.00  0.00    -0.430 A  
ENDBRANCH  14  15
BRANCH  14  21
HETATM   21  C   UNL     1      -9.695   9.774  68.119  1.00  0.00    -0.163 A  
HETATM   22  C   UNL     1     -10.336  12.362  67.196  1.00  0.00    -0.219 A  
HETATM   23 CL   UNL     1     -10.737  13.976  66.763  1.00  0.00    -0.284 Cl 
HETATM   24  C   UNL     1     -11.349  11.447  67.451  1.00  0.00    -0.359 A  
HETATM   25  C   UNL     1      -8.685  10.693  67.774  1.00  0.00    -0.129 A  
HETATM   26  C   UNL     1     -11.027  10.157  67.881  1.00  0.00    -0.335 A  
HETATM   27  C   UNL     1      -9.005  11.978  67.315  1.00  0.00    -0.180 A  
ENDBRANCH  14  21
ENDBRANCH  11  14
ENDBRANCH   7   8
ENDBRANCH   6   7
ENDBRANCH   5   6
ENDBRANCH   3   5
TORSDOF 7
ENDMDL
MODEL      166
REMARK 921   NORMALIZED FREE ENERGY PREDICTED BY IDOCK:   -3.84 KCAL/MOL
REMARK 922        TOTAL FREE ENERGY PREDICTED BY IDOCK:   -6.45 KCAL/MOL
REMARK 923 INTER-LIGAND FREE ENERGY PREDICTED BY IDOCK:   -6.06 KCAL/MOL
REMARK 924 INTRA-LIGAND FREE ENERGY PREDICTED BY IDOCK:   -0.39 KCAL/MOL
REMARK 927      BINDING AFFINITY PREDICTED BY RF-SCORE:    0.00 PKD
ROOT
HETATM    1  O   UNL     1     -11.692   8.219  70.348  1.00  0.00    -0.150 OA 
HETATM    2  C   UNL     1     -11.697   7.054  71.052  1.00  0.00    -0.333 C  
HETATM    3  C   UNL     1     -11.048   5.918  70.283  1.00  0.00    -0.298 C  
HETATM    4  O   UNL     1     -12.168   6.961  72.176  1.00  0.00    -0.285 OA 
ENDROOT
BRANCH   3   5
HETATM    5  O   UNL     1     -10.632   6.392  68.991  1.00  0.00    -0.205 OA 
BRANCH   5   6
HETATM    6  C   UNL     1      -9.238   6.116  68.761  1.00  0.00    -0.124 C  
BRANCH   6   7
HETATM    7  C   UNL     1      -8.402   6.889  69.797  1.00  0.00    -0.132 C  
BRANCH   7   8
HETATM    8  N   UNL     1      -7.292   7.676  69.235  1.00  0.00    -0.086 NA 
HETATM    9  C   UNL     1      -7.250   7.709  67.759  1.00  0.00    -0.087 C  
HETATM   10  C   UNL     1      -8.337   8.572  67.060  1.00  0.00    -0.110 C  
HETATM   11  N   UNL     1      -8.555   9.911  67.638  1.00  0.00    -0.122 NA 
HETATM   12  C   UNL     1      -8.500   9.914  69.100  1.00  0.00    -0.148 C  
HETATM   13  C   UNL     1      -7.348   9.077  69.702  1.00  0.00    -0.064 C  
BRANCH  11  14
HETATM   14  C   UNL     1      -9.685  10.654  67.009  1.00  0.00    -0.176 C  
BRANCH  14  15
HETATM   15  C   UNL     1      -9.591  10.834  65.470  1.00  0.00    -0.269 A  
HETATM   16  C   UNL     1      -8.484  10.357  64.753  1.00  0.00    -0.176 A  
HETATM   17  C   UNL     1     -10.638  11.416  64.722  1.00  0.00    -0.377 A  
HETATM   18  C   UNL     1      -8.432  10.445  63.352  1.00  0.00    -0.174 A  
HETATM   19  C   UNL     1      -9.488  11.012  62.648  1.00  0.00    -0.322 A  
HETATM   20  C   UNL     1     -10.593  11.502  63.332  1.00  0.00    -0.460 A  
ENDBRANCH  14  15
BRANCH  14  21
HETATM   21  C   UNL     1     -10.144  11.958  67.704  1.00  0.00    -0.202 A  
HETATM   22  C   UNL     1     -11.197  14.410  68.617  1.00  0.00    -0.259 A  
HETATM   23 CL   UNL     1     -11.880  15.928  69.047  1.00  0.00    -0.380 Cl 
HETATM   24  C   UNL     1      -9.901  14.355  68.123  1.00  0.00    -0.223 A  
HETATM   25  C   UNL     1     -11.424  12.026  68.287  1.00  0.00    -0.361 A  
HETATM   26  C   UNL     1      -9.372  13.133  67.697  1.00  0.00    -0.205 A  
HETATM   27  C   UNL     1     -11.946  13.244  68.742  1.00  0.00    -0.335 A  
ENDBRANCH  14  21
ENDBRANCH  11  14
ENDBRANCH   7   8
ENDBRANCH   6   7
ENDBRANCH   5   6
ENDBRANCH   3   5
TORSDOF 7
ENDMDL
MODEL      167
REMARK 921   NORMALIZED FREE ENERGY PREDICTED BY IDOCK:   -3.84 KCAL/MOL
REMARK 922        TOTAL FREE ENERGY PREDICTED BY IDOCK:   -6.44 KCAL/MOL
REMARK 923 INTER-LIGAND FREE ENERGY PREDICTED BY IDOCK:   -5.48 KCAL/MOL
REMARK 924 INTRA-LIGAND FREE ENERGY PREDICTED BY IDOCK:   -0.96 KCAL/MOL
REMARK 927      BINDING AFFINITY PREDICTED BY RF-SCORE:    0.00 PKD
ROOT
HETATM    1  O   UNL     1     -13.019  14.733  70.534  1.00  0.00    -0.350 OA 
HETATM    2  C   UNL     1     -13.563  14.735  71.782  1.00  0.00    -0.396 C  
HETATM    3  C   UNL     1     -13.546  13.357  72.417  1.00  0.00    -0.606 C  
HETATM    4  O   UNL     1     -13.999  15.746  72.312  1.00  0.00    -0.495 OA 
ENDROOT
BRANCH   3   5
HETATM    5  O   UNL     1     -12.981  12.412  71.492  1.00  0.00    -0.383 OA 
BRANCH   5   6
HETATM    6  C   UNL     1     -13.244  11.059  71.907  1.00  0.00    -0.398 C  
BRANCH   6   7
HETATM    7  C   UNL     1     -12.178  10.135  71.288  1.00  0.00    -0.398 C  
BRANCH   7   8
HETATM    8  N   UNL     1     -11.839   8.952  72.094  1.00  0.00    -0.363 NA 
HETATM    9  C   UNL     1     -12.137   7.661  71.442  1.00  0.00    -0.316 C  
HETATM   10  C   UNL     1     -11.198   7.247  70.275  1.00  0.00    -0.262 C  
HETATM   11  N   UNL     1      -9.755   7.421  70.528  1.00  0.00    -0.176 NA 
HETATM   12  C   UNL     1      -9.451   8.649  71.262  1.00  0.00    -0.224 C  
HETATM   13  C   UNL     1     -10.404   8.944  72.444  1.00  0.00    -0.003 C  
BRANCH  11  14
HETATM   14  C   UNL     1      -8.903   7.122  69.340  1.00  0.00    -0.136 C  
BRANCH  14  15
HETATM   15  C   UNL     1      -8.055   5.826  69.435  1.00  0.00    -0.101 A  
HETATM   16  C   UNL     1      -7.898   5.154  70.657  1.00  0.00    -0.080 A  
HETATM   17  C   UNL     1      -7.468   5.233  68.297  1.00  0.00    -0.076 A  
HETATM   18  C   UNL     1      -7.199   3.938  70.732  1.00  0.00    -0.037 A  
HETATM   19  C   UNL     1      -6.647   3.376  69.586  1.00  0.00    -0.033 A  
HETATM   20  C   UNL     1      -6.778   4.024  68.366  1.00  0.00    -0.046 A  
ENDBRANCH  14  15
BRANCH  14  21
HETATM   21  C   UNL     1      -8.083   8.294  68.751  1.00  0.00    -0.115 A  
HETATM   22  C   UNL     1      -6.478  10.158  67.371  1.00  0.00    -0.067 A  
HETATM   23 CL   UNL     1      -5.452  11.192  66.457  1.00  0.00    -0.109 Cl 
HETATM   24  C   UNL     1      -5.976   9.507  68.490  1.00  0.00    -0.043 A  
HETATM   25  C   UNL     1      -8.595   9.028  67.664  1.00  0.00    -0.120 A  
HETATM   26  C   UNL     1      -6.783   8.605  69.188  1.00  0.00    -0.047 A  
HETATM   27  C   UNL     1      -7.797   9.956  66.980  1.00  0.00    -0.102 A  
ENDBRANCH  14  21
ENDBRANCH  11  14
ENDBRANCH   7   8
ENDBRANCH   6   7
ENDBRANCH   5   6
ENDBRANCH   3   5
TORSDOF 7
ENDMDL
MODEL      168
REMARK 921   NORMALIZED FREE ENERGY PREDICTED BY IDOCK:   -3.83 KCAL/MOL
REMARK 922        TOTAL FREE ENERGY PREDICTED BY IDOCK:   -6.43 KCAL/MOL
REMARK 923 INTER-LIGAND FREE ENERGY PREDICTED BY IDOCK:   -5.60 KCAL/MOL
REMARK 924 INTRA-LIGAND FREE ENERGY PREDICTED BY IDOCK:   -0.83 KCAL/MOL
REMARK 927      BINDING AFFINITY PREDICTED BY RF-SCORE:    0.00 PKD
ROOT
HETATM    1  O   UNL     1      -8.775  11.637  68.576  1.00  0.00    -0.161 OA 
HETATM    2  C   UNL     1      -9.445  12.381  67.655  1.00  0.00    -0.190 C  
HETATM    3  C   UNL     1     -10.411  11.545  66.836  1.00  0.00    -0.235 C  
HETATM    4  O   UNL     1      -9.277  13.585  67.528  1.00  0.00    -0.201 OA 
ENDROOT
BRANCH   3   5
HETATM    5  O   UNL     1     -10.321  10.171  67.249  1.00  0.00    -0.208 OA 
BRANCH   5   6
HETATM    6  C   UNL     1      -9.908   9.327  66.157  1.00  0.00    -0.293 C  
BRANCH   6   7
HETATM    7  C   UNL     1      -8.425   8.959  66.349  1.00  0.00    -0.117 C  
BRANCH   7   8
HETATM    8  N   UNL     1      -8.119   7.526  66.207  1.00  0.00    -0.108 NA 
HETATM    9  C   UNL     1      -7.039   7.042  67.090  1.00  0.00    -0.083 C  
HETATM   10  C   UNL     1      -7.390   6.911  68.599  1.00  0.00    -0.094 C  
HETATM   11  N   UNL     1      -8.681   6.265  68.897  1.00  0.00    -0.125 NA 
HETATM   12  C   UNL     1      -9.741   6.659  67.969  1.00  0.00    -0.123 C  
HETATM   13  C   UNL     1      -9.313   6.701  66.484  1.00  0.00    -0.159 C  
BRANCH  11  14
HETATM   14  C   UNL     1      -9.026   6.269  70.348  1.00  0.00    -0.154 C  
BRANCH  14  15
HETATM   15  C   UNL     1      -8.926   4.895  71.063  1.00  0.00    -0.168 A  
HETATM   16  C   UNL     1      -9.407   3.727  70.452  1.00  0.00    -0.235 A  
HETATM   17  C   UNL     1      -8.289   4.748  72.314  1.00  0.00    -0.116 A  
HETATM   18  C   UNL     1      -9.245   2.470  71.058  1.00  0.00    -0.201 A  
HETATM   19  C   UNL     1      -8.600   2.364  72.286  1.00  0.00    -0.080 A  
HETATM   20  C   UNL     1      -8.123   3.503  72.918  1.00  0.00    -0.081 A  
ENDBRANCH  14  15
BRANCH  14  21
HETATM   21  C   UNL     1     -10.306   7.031  70.765  1.00  0.00    -0.222 A  
HETATM   22  C   UNL     1     -12.562   8.276  71.914  1.00  0.00    -0.344 A  
HETATM   23 CL   UNL     1     -13.914   8.961  72.725  1.00  0.00    -0.369 Cl 
HETATM   24  C   UNL     1     -12.709   7.084  71.219  1.00  0.00    -0.400 A  
HETATM   25  C   UNL     1     -10.199   8.282  71.404  1.00  0.00    -0.263 A  
HETATM   26  C   UNL     1     -11.594   6.484  70.626  1.00  0.00    -0.442 A  
HETATM   27  C   UNL     1     -11.320   8.900  71.973  1.00  0.00    -0.427 A  
ENDBRANCH  14  21
ENDBRANCH  11  14
ENDBRANCH   7   8
ENDBRANCH   6   7
ENDBRANCH   5   6
ENDBRANCH   3   5
TORSDOF 7
ENDMDL
MODEL      169
REMARK 921   NORMALIZED FREE ENERGY PREDICTED BY IDOCK:   -3.81 KCAL/MOL
REMARK 922        TOTAL FREE ENERGY PREDICTED BY IDOCK:   -6.41 KCAL/MOL
REMARK 923 INTER-LIGAND FREE ENERGY PREDICTED BY IDOCK:   -5.60 KCAL/MOL
REMARK 924 INTRA-LIGAND FREE ENERGY PREDICTED BY IDOCK:   -0.81 KCAL/MOL
REMARK 927      BINDING AFFINITY PREDICTED BY RF-SCORE:    0.00 PKD
ROOT
HETATM    1  O   UNL     1      -8.181  10.797  62.510  1.00  0.00    -0.183 OA 
HETATM    2  C   UNL     1      -7.003  10.275  62.949  1.00  0.00    -0.129 C  
HETATM    3  C   UNL     1      -7.211   9.082  63.864  1.00  0.00    -0.096 C  
HETATM    4  O   UNL     1      -5.916  10.725  62.620  1.00  0.00    -0.145 OA 
ENDROOT
BRANCH   3   5
HETATM    5  O   UNL     1      -8.620   8.856  64.041  1.00  0.00    -0.180 OA 
BRANCH   5   6
HETATM    6  C   UNL     1      -8.990   8.951  65.430  1.00  0.00    -0.182 C  
BRANCH   6   7
HETATM    7  C   UNL     1      -8.208   7.889  66.224  1.00  0.00    -0.117 C  
BRANCH   7   8
HETATM    8  N   UNL     1      -8.764   6.528  66.153  1.00  0.00    -0.144 NA 
HETATM    9  C   UNL     1      -7.980   5.508  66.878  1.00  0.00    -0.101 C  
HETATM   10  C   UNL     1      -8.058   5.556  68.430  1.00  0.00    -0.099 C  
HETATM   11  N   UNL     1      -9.410   5.721  68.994  1.00  0.00    -0.121 NA 
HETATM   12  C   UNL     1     -10.235   6.655  68.228  1.00  0.00    -0.171 C  
HETATM   13  C   UNL     1     -10.138   6.489  66.693  1.00  0.00    -0.137 C  
BRANCH  11  14
HETATM   14  C   UNL     1      -9.421   5.879  70.477  1.00  0.00    -0.167 C  
BRANCH  14  15
HETATM   15  C   UNL     1      -9.509   4.560  71.289  1.00  0.00    -0.222 A  
HETATM   16  C   UNL     1      -9.596   3.318  70.642  1.00  0.00    -0.223 A  
HETATM   17  C   UNL     1      -9.436   4.545  72.699  1.00  0.00    -0.166 A  
HETATM   18  C   UNL     1      -9.594   2.117  71.371  1.00  0.00    -0.217 A  
HETATM   19  C   UNL     1      -9.507   2.142  72.759  1.00  0.00    -0.130 A  
HETATM   20  C   UNL     1      -9.431   3.356  73.426  1.00  0.00    -0.128 A  
ENDBRANCH  14  15
BRANCH  14  21
HETATM   21  C   UNL     1     -10.352   6.967  71.061  1.00  0.00    -0.216 A  
HETATM   22  C   UNL     1     -12.194   8.996  71.732  1.00  0.00    -0.364 A  
HETATM   23 CL   UNL     1     -13.333  10.254  72.008  1.00  0.00    -0.525 Cl 
HETATM   24  C   UNL     1     -10.853   9.309  71.558  1.00  0.00    -0.442 A  
HETATM   25  C   UNL     1     -11.702   6.664  71.325  1.00  0.00    -0.386 A  
HETATM   26  C   UNL     1      -9.938   8.297  71.254  1.00  0.00    -0.243 A  
HETATM   27  C   UNL     1     -12.616   7.673  71.659  1.00  0.00    -0.365 A  
ENDBRANCH  14  21
ENDBRANCH  11  14
ENDBRANCH   7   8
ENDBRANCH   6   7
ENDBRANCH   5   6
ENDBRANCH   3   5
TORSDOF 7
ENDMDL
MODEL      170
REMARK 921   NORMALIZED FREE ENERGY PREDICTED BY IDOCK:   -3.81 KCAL/MOL
REMARK 922        TOTAL FREE ENERGY PREDICTED BY IDOCK:   -6.40 KCAL/MOL
REMARK 923 INTER-LIGAND FREE ENERGY PREDICTED BY IDOCK:   -5.72 KCAL/MOL
REMARK 924 INTRA-LIGAND FREE ENERGY PREDICTED BY IDOCK:   -0.68 KCAL/MOL
REMARK 927      BINDING AFFINITY PREDICTED BY RF-SCORE:    0.00 PKD
ROOT
HETATM    1  O   UNL     1     -11.568   4.326  72.635  1.00  0.00     0.207 OA 
HETATM    2  C   UNL     1     -11.086   5.339  73.405  1.00  0.00    -0.303 C  
HETATM    3  C   UNL     1     -11.123   6.674  72.684  1.00  0.00    -0.257 C  
HETATM    4  O   UNL     1     -10.686   5.169  74.547  1.00  0.00    -0.343 OA 
ENDROOT
BRANCH   3   5
HETATM    5  O   UNL     1     -11.634   6.484  71.354  1.00  0.00    -0.292 OA 
BRANCH   5   6
HETATM    6  C   UNL     1     -10.638   6.805  70.365  1.00  0.00    -0.227 C  
BRANCH   6   7
HETATM    7  C   UNL     1     -11.109   8.038  69.570  1.00  0.00     0.037 C  
BRANCH   7   8
HETATM    8  N   UNL     1     -10.860   9.331  70.228  1.00  0.00    -0.234 NA 
HETATM    9  C   UNL     1      -9.449   9.768  70.203  1.00  0.00    -0.229 C  
HETATM   10  C   UNL     1      -8.904  10.257  68.832  1.00  0.00    -0.157 C  
HETATM   11  N   UNL     1      -9.784  11.180  68.091  1.00  0.00    -0.175 NA 
HETATM   12  C   UNL     1     -11.198  10.817  68.187  1.00  0.00    -0.302 C  
HETATM   13  C   UNL     1     -11.661  10.404  69.604  1.00  0.00    -0.239 C  
BRANCH  11  14
HETATM   14  C   UNL     1      -9.272  11.527  66.734  1.00  0.00    -0.181 C  
BRANCH  14  15
HETATM   15  C   UNL     1     -10.219  12.397  65.865  1.00  0.00    -0.273 A  
HETATM   16  C   UNL     1     -10.424  13.754  66.156  1.00  0.00    -0.297 A  
HETATM   17  C   UNL     1     -10.855  11.886  64.713  1.00  0.00    -0.359 A  
HETATM   18  C   UNL     1     -11.215  14.565  65.326  1.00  0.00    -0.352 A  
HETATM   19  C   UNL     1     -11.814  14.029  64.191  1.00  0.00    -0.393 A  
HETATM   20  C   UNL     1     -11.638  12.687  63.884  1.00  0.00    -0.521 A  
ENDBRANCH  14  15
BRANCH  14  21
HETATM   21  C   UNL     1      -8.638  10.384  65.908  1.00  0.00    -0.165 A  
HETATM   22  C   UNL     1      -7.362   8.137  64.775  1.00  0.00    -0.089 A  
HETATM   23 CL   UNL     1      -6.531   6.744  64.206  1.00  0.00    -0.038 Cl 
HETATM   24  C   UNL     1      -6.711   9.363  64.801  1.00  0.00    -0.087 A  
HETATM   25  C   UNL     1      -9.307   9.149  65.794  1.00  0.00    -0.309 A  
HETATM   26  C   UNL     1      -7.356  10.480  65.337  1.00  0.00    -0.084 A  
HETATM   27  C   UNL     1      -8.672   8.034  65.230  1.00  0.00    -0.062 A  
ENDBRANCH  14  21
ENDBRANCH  11  14
ENDBRANCH   7   8
ENDBRANCH   6   7
ENDBRANCH   5   6
ENDBRANCH   3   5
TORSDOF 7
ENDMDL
MODEL      171
REMARK 921   NORMALIZED FREE ENERGY PREDICTED BY IDOCK:   -3.80 KCAL/MOL
REMARK 922        TOTAL FREE ENERGY PREDICTED BY IDOCK:   -6.39 KCAL/MOL
REMARK 923 INTER-LIGAND FREE ENERGY PREDICTED BY IDOCK:   -5.58 KCAL/MOL
REMARK 924 INTRA-LIGAND FREE ENERGY PREDICTED BY IDOCK:   -0.81 KCAL/MOL
REMARK 927      BINDING AFFINITY PREDICTED BY RF-SCORE:    0.00 PKD
ROOT
HETATM    1  O   UNL     1      -9.490   3.584  66.666  1.00  0.00    -0.192 OA 
HETATM    2  C   UNL     1      -8.973   2.601  67.452  1.00  0.00    -0.159 C  
HETATM    3  C   UNL     1      -7.653   3.007  68.082  1.00  0.00    -0.056 C  
HETATM    4  O   UNL     1      -9.532   1.528  67.623  1.00  0.00    -0.126 OA 
ENDROOT
BRANCH   3   5
HETATM    5  O   UNL     1      -7.297   4.326  67.636  1.00  0.00    -0.067 OA 
BRANCH   5   6
HETATM    6  C   UNL     1      -7.341   5.270  68.723  1.00  0.00    -0.070 C  
BRANCH   6   7
HETATM    7  C   UNL     1      -6.522   6.514  68.331  1.00  0.00    -0.049 C  
BRANCH   7   8
HETATM    8  N   UNL     1      -6.929   7.152  67.068  1.00  0.00    -0.075 NA 
HETATM    9  C   UNL     1      -8.388   7.184  66.842  1.00  0.00    -0.118 C  
HETATM   10  C   UNL     1      -9.197   8.185  67.714  1.00  0.00    -0.134 C  
HETATM   11  N   UNL     1      -8.623   9.539  67.826  1.00  0.00    -0.116 NA 
HETATM   12  C   UNL     1      -7.166   9.529  67.952  1.00  0.00    -0.082 C  
HETATM   13  C   UNL     1      -6.445   8.546  67.000  1.00  0.00    -0.057 C  
BRANCH  11  14
HETATM   14  C   UNL     1      -9.370  10.425  68.764  1.00  0.00    -0.175 C  
BRANCH  14  15
HETATM   15  C   UNL     1     -10.002   9.717  69.992  1.00  0.00    -0.288 A  
HETATM   16  C   UNL     1      -9.198   9.180  71.009  1.00  0.00    -0.321 A  
HETATM   17  C   UNL     1     -11.400   9.644  70.174  1.00  0.00    -0.275 A  
HETATM   18  C   UNL     1      -9.766   8.611  72.161  1.00  0.00    -0.383 A  
HETATM   19  C   UNL     1     -11.148   8.570  72.311  1.00  0.00    -0.430 A  
HETATM   20  C   UNL     1     -11.968   9.084  71.317  1.00  0.00    -0.374 A  
ENDBRANCH  14  15
BRANCH  14  21
HETATM   21  C   UNL     1     -10.346  11.449  68.138  1.00  0.00    -0.206 A  
HETATM   22  C   UNL     1     -11.805  13.415  66.736  1.00  0.00    -0.403 A  
HETATM   23 CL   UNL     1     -12.578  14.652  65.827  1.00  0.00    -0.149 Cl 
HETATM   24  C   UNL     1     -11.246  13.717  67.971  1.00  0.00    -0.295 A  
HETATM   25  C   UNL     1     -10.993  11.145  66.924  1.00  0.00    -0.333 A  
HETATM   26  C   UNL     1     -10.547  12.733  68.675  1.00  0.00    -0.256 A  
HETATM   27  C   UNL     1     -11.719  12.123  66.229  1.00  0.00    -0.389 A  
ENDBRANCH  14  21
ENDBRANCH  11  14
ENDBRANCH   7   8
ENDBRANCH   6   7
ENDBRANCH   5   6
ENDBRANCH   3   5
TORSDOF 7
ENDMDL
MODEL      172
REMARK 921   NORMALIZED FREE ENERGY PREDICTED BY IDOCK:   -3.80 KCAL/MOL
REMARK 922        TOTAL FREE ENERGY PREDICTED BY IDOCK:   -6.38 KCAL/MOL
REMARK 923 INTER-LIGAND FREE ENERGY PREDICTED BY IDOCK:   -5.24 KCAL/MOL
REMARK 924 INTRA-LIGAND FREE ENERGY PREDICTED BY IDOCK:   -1.14 KCAL/MOL
REMARK 927      BINDING AFFINITY PREDICTED BY RF-SCORE:    0.00 PKD
ROOT
HETATM    1  O   UNL     1      -7.402  10.821  70.046  1.00  0.00    -0.095 OA 
HETATM    2  C   UNL     1      -6.252  11.356  69.553  1.00  0.00    -0.104 C  
HETATM    3  C   UNL     1      -6.511  12.585  68.701  1.00  0.00    -0.078 C  
HETATM    4  O   UNL     1      -5.149  10.887  69.791  1.00  0.00    -0.041 OA 
ENDROOT
BRANCH   3   5
HETATM    5  O   UNL     1      -7.926  12.824  68.626  1.00  0.00    -0.114 OA 
BRANCH   5   6
HETATM    6  C   UNL     1      -8.417  12.618  67.287  1.00  0.00    -0.193 C  
BRANCH   6   7
HETATM    7  C   UNL     1      -9.482  11.507  67.317  1.00  0.00    -0.169 C  
BRANCH   7   8
HETATM    8  N   UNL     1      -9.265  10.414  66.355  1.00  0.00    -0.159 NA 
HETATM    9  C   UNL     1      -8.066   9.593  66.623  1.00  0.00    -0.119 C  
HETATM   10  C   UNL     1      -8.151   8.628  67.839  1.00  0.00    -0.108 C  
HETATM   11  N   UNL     1      -9.396   7.843  67.942  1.00  0.00    -0.140 NA 
HETATM   12  C   UNL     1     -10.585   8.615  67.583  1.00  0.00    -0.203 C  
HETATM   13  C   UNL     1     -10.424   9.498  66.324  1.00  0.00    -0.067 C  
BRANCH  11  14
HETATM   14  C   UNL     1      -9.480   7.022  69.184  1.00  0.00    -0.143 C  
BRANCH  14  15
HETATM   15  C   UNL     1      -9.432   5.486  68.975  1.00  0.00    -0.167 A  
HETATM   16  C   UNL     1      -9.145   4.620  70.041  1.00  0.00    -0.161 A  
HETATM   17  C   UNL     1      -9.743   4.892  67.732  1.00  0.00    -0.199 A  
HETATM   18  C   UNL     1      -9.181   3.226  69.874  1.00  0.00    -0.222 A  
HETATM   19  C   UNL     1      -9.505   2.677  68.638  1.00  0.00    -0.193 A  
HETATM   20  C   UNL     1      -9.783   3.509  67.563  1.00  0.00    -0.067 A  
ENDBRANCH  14  15
BRANCH  14  21
HETATM   21  C   UNL     1     -10.560   7.420  70.218  1.00  0.00    -0.241 A  
HETATM   22  C   UNL     1     -12.732   8.322  71.776  1.00  0.00    -0.336 A  
HETATM   23 CL   UNL     1     -14.093   8.948  72.619  1.00  0.00    -0.443 Cl 
HETATM   24  C   UNL     1     -11.540   9.035  71.770  1.00  0.00    -0.444 A  
HETATM   25  C   UNL     1     -11.751   6.672  70.306  1.00  0.00    -0.432 A  
HETATM   26  C   UNL     1     -10.457   8.570  71.020  1.00  0.00    -0.264 A  
HETATM   27  C   UNL     1     -12.829   7.121  71.082  1.00  0.00    -0.340 A  
ENDBRANCH  14  21
ENDBRANCH  11  14
ENDBRANCH   7   8
ENDBRANCH   6   7
ENDBRANCH   5   6
ENDBRANCH   3   5
TORSDOF 7
ENDMDL
MODEL      173
REMARK 921   NORMALIZED FREE ENERGY PREDICTED BY IDOCK:   -3.73 KCAL/MOL
REMARK 922        TOTAL FREE ENERGY PREDICTED BY IDOCK:   -6.30 KCAL/MOL
REMARK 923 INTER-LIGAND FREE ENERGY PREDICTED BY IDOCK:   -5.54 KCAL/MOL
REMARK 924 INTRA-LIGAND FREE ENERGY PREDICTED BY IDOCK:   -0.75 KCAL/MOL
REMARK 927      BINDING AFFINITY PREDICTED BY RF-SCORE:    0.00 PKD
ROOT
HETATM    1  O   UNL     1     -12.089   8.833  70.604  1.00  0.00    -0.155 OA 
HETATM    2  C   UNL     1     -12.817   9.241  71.679  1.00  0.00    -0.372 C  
HETATM    3  C   UNL     1     -13.176  10.713  71.603  1.00  0.00    -0.392 C  
HETATM    4  O   UNL     1     -13.140   8.485  72.584  1.00  0.00    -0.292 OA 
ENDROOT
BRANCH   3   5
HETATM    5  O   UNL     1     -12.607  11.282  70.411  1.00  0.00    -0.270 OA 
BRANCH   5   6
HETATM    6  C   UNL     1     -11.998  12.558  70.686  1.00  0.00    -0.104 C  
BRANCH   6   7
HETATM    7  C   UNL     1     -12.344  13.528  69.541  1.00  0.00    -0.147 C  
BRANCH   7   8
HETATM    8  N   UNL     1     -12.234  14.955  69.883  1.00  0.00    -0.317 NA 
HETATM    9  C   UNL     1     -11.010  15.313  70.627  1.00  0.00    -0.284 C  
HETATM   10  C   UNL     1      -9.685  15.313  69.813  1.00  0.00    -0.156 C  
HETATM   11  N   UNL     1      -9.748  15.975  68.496  1.00  0.00    -0.208 NA 
HETATM   12  C   UNL     1     -11.000  15.711  67.787  1.00  0.00    -0.316 C  
HETATM   13  C   UNL     1     -12.268  15.794  68.668  1.00  0.00     0.180 C  
BRANCH  11  14
HETATM   14  C   UNL     1      -8.490  15.847  67.706  1.00  0.00    -0.158 C  
BRANCH  14  15
HETATM   15  C   UNL     1      -7.622  14.602  68.030  1.00  0.00    -0.132 A  
HETATM   16  C   UNL     1      -6.475  14.711  68.831  1.00  0.00    -0.090 A  
HETATM   17  C   UNL     1      -7.981  13.308  67.597  1.00  0.00    -0.176 A  
HETATM   18  C   UNL     1      -5.732  13.575  69.194  1.00  0.00    -0.078 A  
HETATM   19  C   UNL     1      -6.125  12.314  68.760  1.00  0.00    -0.068 A  
HETATM   20  C   UNL     1      -7.249  12.178  67.957  1.00  0.00    -0.099 A  
ENDBRANCH  14  15
BRANCH  14  21
HETATM   21  C   UNL     1      -7.622  17.119  67.554  1.00  0.00    -0.187 A  
HETATM   22  C   UNL     1      -6.406  19.650  67.285  1.00  0.00    -0.189 A  
HETATM   23 CL   UNL     1      -5.787  21.243  67.098  1.00  0.00    -0.365 Cl 
HETATM   24  C   UNL     1      -6.594  18.850  66.166  1.00  0.00    -0.248 A  
HETATM   25  C   UNL     1      -7.344  17.914  68.683  1.00  0.00    -0.271 A  
HETATM   26  C   UNL     1      -7.172  17.585  66.306  1.00  0.00    -0.351 A  
HETATM   27  C   UNL     1      -6.738  19.171  68.548  1.00  0.00    -0.298 A  
ENDBRANCH  14  21
ENDBRANCH  11  14
ENDBRANCH   7   8
ENDBRANCH   6   7
ENDBRANCH   5   6
ENDBRANCH   3   5
TORSDOF 7
ENDMDL
MODEL      174
REMARK 921   NORMALIZED FREE ENERGY PREDICTED BY IDOCK:   -3.69 KCAL/MOL
REMARK 922        TOTAL FREE ENERGY PREDICTED BY IDOCK:   -6.23 KCAL/MOL
REMARK 923 INTER-LIGAND FREE ENERGY PREDICTED BY IDOCK:   -5.84 KCAL/MOL
REMARK 924 INTRA-LIGAND FREE ENERGY PREDICTED BY IDOCK:   -0.38 KCAL/MOL
REMARK 927      BINDING AFFINITY PREDICTED BY RF-SCORE:    0.00 PKD
ROOT
HETATM    1  O   UNL     1      -8.839   8.565  64.480  1.00  0.00    -0.029 OA 
HETATM    2  C   UNL     1      -7.851   8.211  63.614  1.00  0.00    -0.151 C  
HETATM    3  C   UNL     1      -6.480   8.646  64.100  1.00  0.00    -0.072 C  
HETATM    4  O   UNL     1      -8.067   7.602  62.577  1.00  0.00    -0.140 OA 
ENDROOT
BRANCH   3   5
HETATM    5  O   UNL     1      -6.617   9.353  65.344  1.00  0.00    -0.068 OA 
BRANCH   5   6
HETATM    6  C   UNL     1      -5.351   9.883  65.781  1.00  0.00    -0.046 C  
BRANCH   6   7
HETATM    7  C   UNL     1      -5.575  11.299  66.343  1.00  0.00    -0.146 C  
BRANCH   7   8
HETATM    8  N   UNL     1      -5.487  11.405  67.809  1.00  0.00    -0.044 NA 
HETATM    9  C   UNL     1      -5.950  12.695  68.358  1.00  0.00    -0.059 C  
HETATM   10  C   UNL     1      -7.485  12.939  68.342  1.00  0.00    -0.124 C  
HETATM   11  N   UNL     1      -8.313  11.810  68.806  1.00  0.00    -0.069 NA 
HETATM   12  C   UNL     1      -7.810  10.514  68.352  1.00  0.00    -0.110 C  
HETATM   13  C   UNL     1      -6.278  10.343  68.464  1.00  0.00    -0.047 C  
BRANCH  11  14
HETATM   14  C   UNL     1      -9.778  12.049  68.661  1.00  0.00    -0.096 C  
BRANCH  14  15
HETATM   15  C   UNL     1     -10.690  11.178  69.566  1.00  0.00    -0.193 A  
HETATM   16  C   UNL     1     -10.229   9.967  70.102  1.00  0.00    -0.326 A  
HETATM   17  C   UNL     1     -11.984  11.596  69.944  1.00  0.00    -0.414 A  
HETATM   18  C   UNL     1     -11.021   9.216  70.987  1.00  0.00    -0.375 A  
HETATM   19  C   UNL     1     -12.286   9.667  71.347  1.00  0.00    -0.471 A  
HETATM   20  C   UNL     1     -12.772  10.857  70.824  1.00  0.00    -0.431 A  
ENDBRANCH  14  15
BRANCH  14  21
HETATM   21  C   UNL     1     -10.336  12.145  67.221  1.00  0.00    -0.230 A  
HETATM   22  C   UNL     1     -11.713  12.169  64.759  1.00  0.00    -0.327 A  
HETATM   23 CL   UNL     1     -12.648  12.111  63.318  1.00  0.00    -0.606 Cl 
HETATM   24  C   UNL     1     -10.837  11.133  65.053  1.00  0.00    -0.244 A  
HETATM   25  C   UNL     1     -11.166  13.226  66.864  1.00  0.00    -0.332 A  
HETATM   26  C   UNL     1     -10.135  11.138  66.261  1.00  0.00    -0.277 A  
HETATM   27  C   UNL     1     -11.848  13.238  65.640  1.00  0.00    -0.419 A  
ENDBRANCH  14  21
ENDBRANCH  11  14
ENDBRANCH   7   8
ENDBRANCH   6   7
ENDBRANCH   5   6
ENDBRANCH   3   5
TORSDOF 7
ENDMDL
MODEL      175
REMARK 921   NORMALIZED FREE ENERGY PREDICTED BY IDOCK:   -3.67 KCAL/MOL
REMARK 922        TOTAL FREE ENERGY PREDICTED BY IDOCK:   -6.21 KCAL/MOL
REMARK 923 INTER-LIGAND FREE ENERGY PREDICTED BY IDOCK:   -6.06 KCAL/MOL
REMARK 924 INTRA-LIGAND FREE ENERGY PREDICTED BY IDOCK:   -0.15 KCAL/MOL
REMARK 927      BINDING AFFINITY PREDICTED BY RF-SCORE:    0.00 PKD
ROOT
HETATM    1  O   UNL     1     -12.261  13.454  68.804  1.00  0.00    -0.295 OA 
HETATM    2  C   UNL     1     -12.233  14.087  70.008  1.00  0.00    -0.352 C  
HETATM    3  C   UNL     1     -12.505  13.138  71.161  1.00  0.00    -0.287 C  
HETATM    4  O   UNL     1     -12.004  15.282  70.121  1.00  0.00    -0.292 OA 
ENDROOT
BRANCH   3   5
HETATM    5  O   UNL     1     -12.753  11.819  70.645  1.00  0.00    -0.217 OA 
BRANCH   5   6
HETATM    6  C   UNL     1     -13.041  10.892  71.708  1.00  0.00    -0.459 C  
BRANCH   6   7
HETATM    7  C   UNL     1     -11.990   9.767  71.682  1.00  0.00    -0.375 C  
BRANCH   7   8
HETATM    8  N   UNL     1     -12.404   8.516  72.339  1.00  0.00    -0.383 NA 
HETATM    9  C   UNL     1     -13.124   7.573  71.461  1.00  0.00    -0.356 C  
HETATM   10  C   UNL     1     -12.267   6.835  70.394  1.00  0.00    -0.120 C  
HETATM   11  N   UNL     1     -10.991   6.277  70.879  1.00  0.00    -0.270 NA 
HETATM   12  C   UNL     1     -10.311   7.158  71.829  1.00  0.00    -0.196 C  
HETATM   13  C   UNL     1     -11.236   7.797  72.890  1.00  0.00    -0.376 C  
BRANCH  11  14
HETATM   14  C   UNL     1     -10.152   5.684  69.797  1.00  0.00    -0.218 C  
BRANCH  14  15
HETATM   15  C   UNL     1      -8.979   4.788  70.276  1.00  0.00    -0.147 A  
HETATM   16  C   UNL     1      -7.646   5.187  70.098  1.00  0.00    -0.070 A  
HETATM   17  C   UNL     1      -9.199   3.578  70.969  1.00  0.00    -0.195 A  
HETATM   18  C   UNL     1      -6.584   4.419  70.602  1.00  0.00    -0.035 A  
HETATM   19  C   UNL     1      -6.840   3.239  71.292  1.00  0.00    -0.032 A  
HETATM   20  C   UNL     1      -8.149   2.814  71.474  1.00  0.00    -0.058 A  
ENDBRANCH  14  15
BRANCH  14  21
HETATM   21  C   UNL     1      -9.714   6.626  68.651  1.00  0.00    -0.129 A  
HETATM   22  C   UNL     1      -9.313   8.311  66.425  1.00  0.00    -0.213 A  
HETATM   23 CL   UNL     1      -9.189   9.298  65.022  1.00  0.00    -0.276 Cl 
HETATM   24  C   UNL     1      -8.913   6.983  66.369  1.00  0.00    -0.175 A  
HETATM   25  C   UNL     1     -10.035   7.996  68.711  1.00  0.00    -0.196 A  
HETATM   26  C   UNL     1      -9.087   6.158  67.482  1.00  0.00    -0.109 A  
HETATM   27  C   UNL     1      -9.834   8.833  67.604  1.00  0.00    -0.228 A  
ENDBRANCH  14  21
ENDBRANCH  11  14
ENDBRANCH   7   8
ENDBRANCH   6   7
ENDBRANCH   5   6
ENDBRANCH   3   5
TORSDOF 7
ENDMDL
MODEL      176
REMARK 921   NORMALIZED FREE ENERGY PREDICTED BY IDOCK:   -3.63 KCAL/MOL
REMARK 922        TOTAL FREE ENERGY PREDICTED BY IDOCK:   -6.15 KCAL/MOL
REMARK 923 INTER-LIGAND FREE ENERGY PREDICTED BY IDOCK:   -5.78 KCAL/MOL
REMARK 924 INTRA-LIGAND FREE ENERGY PREDICTED BY IDOCK:   -0.37 KCAL/MOL
REMARK 927      BINDING AFFINITY PREDICTED BY RF-SCORE:    0.00 PKD
ROOT
HETATM    1  O   UNL     1     -10.075   4.716  67.006  1.00  0.00    -0.203 OA 
HETATM    2  C   UNL     1     -10.088   4.815  65.649  1.00  0.00    -0.176 C  
HETATM    3  C   UNL     1      -9.013   5.754  65.132  1.00  0.00     0.059 C  
HETATM    4  O   UNL     1     -10.879   4.201  64.949  1.00  0.00    -0.243 OA 
ENDROOT
BRANCH   3   5
HETATM    5  O   UNL     1      -8.291   6.310  66.244  1.00  0.00    -0.113 OA 
BRANCH   5   6
HETATM    6  C   UNL     1      -7.349   7.307  65.804  1.00  0.00    -0.075 C  
BRANCH   6   7
HETATM    7  C   UNL     1      -7.641   8.625  66.545  1.00  0.00    -0.088 C  
BRANCH   7   8
HETATM    8  N   UNL     1      -7.448   9.843  65.741  1.00  0.00    -0.105 NA 
HETATM    9  C   UNL     1      -8.631  10.253  64.959  1.00  0.00    -0.180 C  
HETATM   10  C   UNL     1      -9.812  10.863  65.766  1.00  0.00    -0.237 C  
HETATM   11  N   UNL     1      -9.438  11.871  66.776  1.00  0.00    -0.195 NA 
HETATM   12  C   UNL     1      -8.210  11.527  67.493  1.00  0.00    -0.140 C  
HETATM   13  C   UNL     1      -7.072  10.987  66.597  1.00  0.00    -0.139 C  
BRANCH  11  14
HETATM   14  C   UNL     1     -10.588  12.338  67.602  1.00  0.00    -0.215 C  
BRANCH  14  15
HETATM   15  C   UNL     1     -10.515  13.814  68.075  1.00  0.00    -0.245 A  
HETATM   16  C   UNL     1     -11.539  14.723  67.769  1.00  0.00    -0.378 A  
HETATM   17  C   UNL     1      -9.460  14.286  68.887  1.00  0.00    -0.071 A  
HETATM   18  C   UNL     1     -11.517  16.037  68.264  1.00  0.00    -0.291 A  
HETATM   19  C   UNL     1     -10.468  16.462  69.072  1.00  0.00    -0.288 A  
HETATM   20  C   UNL     1      -9.435  15.588  69.383  1.00  0.00    -0.278 A  
ENDBRANCH  14  15
BRANCH  14  21
HETATM   21  C   UNL     1     -11.064  11.403  68.739  1.00  0.00    -0.290 A  
HETATM   22  C   UNL     1     -11.761   9.981  71.074  1.00  0.00    -0.392 A  
HETATM   23 CL   UNL     1     -12.104   9.198  72.565  1.00  0.00    -0.218 Cl 
HETATM   24  C   UNL     1     -10.645   9.602  70.340  1.00  0.00    -0.354 A  
HETATM   25  C   UNL     1     -12.236  11.713  69.456  1.00  0.00    -0.257 A  
HETATM   26  C   UNL     1     -10.318  10.291  69.168  1.00  0.00    -0.241 A  
HETATM   27  C   UNL     1     -12.582  11.006  70.615  1.00  0.00    -0.427 A  
ENDBRANCH  14  21
ENDBRANCH  11  14
ENDBRANCH   7   8
ENDBRANCH   6   7
ENDBRANCH   5   6
ENDBRANCH   3   5
TORSDOF 7
ENDMDL
MODEL      177
REMARK 921   NORMALIZED FREE ENERGY PREDICTED BY IDOCK:   -3.61 KCAL/MOL
REMARK 922        TOTAL FREE ENERGY PREDICTED BY IDOCK:   -6.12 KCAL/MOL
REMARK 923 INTER-LIGAND FREE ENERGY PREDICTED BY IDOCK:   -5.11 KCAL/MOL
REMARK 924 INTRA-LIGAND FREE ENERGY PREDICTED BY IDOCK:   -1.01 KCAL/MOL
REMARK 927      BINDING AFFINITY PREDICTED BY RF-SCORE:    0.00 PKD
ROOT
HETATM    1  O   UNL     1      -7.703  10.425  64.908  1.00  0.00    -0.144 OA 
HETATM    2  C   UNL     1      -6.539  10.028  64.323  1.00  0.00    -0.130 C  
HETATM    3  C   UNL     1      -6.672   8.678  63.642  1.00  0.00    -0.088 C  
HETATM    4  O   UNL     1      -5.522  10.704  64.349  1.00  0.00    -0.148 OA 
ENDROOT
BRANCH   3   5
HETATM    5  O   UNL     1      -8.003   8.174  63.837  1.00  0.00    -0.141 OA 
BRANCH   5   6
HETATM    6  C   UNL     1      -7.978   6.840  64.380  1.00  0.00    -0.096 C  
BRANCH   6   7
HETATM    7  C   UNL     1      -8.585   6.870  65.795  1.00  0.00    -0.131 C  
BRANCH   7   8
HETATM    8  N   UNL     1      -8.827   5.547  66.394  1.00  0.00    -0.122 NA 
HETATM    9  C   UNL     1      -7.819   5.132  67.390  1.00  0.00    -0.096 C  
HETATM   10  C   UNL     1      -7.867   5.862  68.762  1.00  0.00    -0.095 C  
HETATM   11  N   UNL     1      -9.208   6.009  69.357  1.00  0.00    -0.132 NA 
HETATM   12  C   UNL     1     -10.238   6.323  68.367  1.00  0.00    -0.172 C  
HETATM   13  C   UNL     1     -10.145   5.502  67.060  1.00  0.00    -0.194 C  
BRANCH  11  14
HETATM   14  C   UNL     1      -9.216   6.817  70.612  1.00  0.00    -0.155 C  
BRANCH  14  15
HETATM   15  C   UNL     1      -9.659   6.059  71.891  1.00  0.00    -0.166 A  
HETATM   16  C   UNL     1      -9.449   6.609  73.165  1.00  0.00    -0.160 A  
HETATM   17  C   UNL     1     -10.349   4.830  71.830  1.00  0.00    -0.230 A  
HETATM   18  C   UNL     1      -9.921   5.966  74.321  1.00  0.00    -0.262 A  
HETATM   19  C   UNL     1     -10.610   4.762  74.220  1.00  0.00    -0.330 A  
HETATM   20  C   UNL     1     -10.823   4.190  72.973  1.00  0.00    -0.252 A  
ENDBRANCH  14  15
BRANCH  14  21
HETATM   21  C   UNL     1      -9.853   8.224  70.537  1.00  0.00    -0.197 A  
HETATM   22  C   UNL     1     -11.229  10.642  70.069  1.00  0.00    -0.309 A  
HETATM   23 CL   UNL     1     -12.107  12.064  69.664  1.00  0.00    -0.326 Cl 
HETATM   24  C   UNL     1      -9.920  10.494  69.630  1.00  0.00    -0.149 A  
HETATM   25  C   UNL     1     -11.151   8.431  71.044  1.00  0.00    -0.298 A  
HETATM   26  C   UNL     1      -9.232   9.306  69.888  1.00  0.00    -0.209 A  
HETATM   27  C   UNL     1     -11.834   9.633  70.812  1.00  0.00    -0.378 A  
ENDBRANCH  14  21
ENDBRANCH  11  14
ENDBRANCH   7   8
ENDBRANCH   6   7
ENDBRANCH   5   6
ENDBRANCH   3   5
TORSDOF 7
ENDMDL
MODEL      178
REMARK 921   NORMALIZED FREE ENERGY PREDICTED BY IDOCK:   -3.57 KCAL/MOL
REMARK 922        TOTAL FREE ENERGY PREDICTED BY IDOCK:   -6.07 KCAL/MOL
REMARK 923 INTER-LIGAND FREE ENERGY PREDICTED BY IDOCK:   -6.33 KCAL/MOL
REMARK 924 INTRA-LIGAND FREE ENERGY PREDICTED BY IDOCK:    0.26 KCAL/MOL
REMARK 927      BINDING AFFINITY PREDICTED BY RF-SCORE:    0.00 PKD
ROOT
HETATM    1  O   UNL     1     -10.266   4.866  71.322  1.00  0.00    -0.198 OA 
HETATM    2  C   UNL     1      -8.976   4.460  71.173  1.00  0.00    -0.121 C  
HETATM    3  C   UNL     1      -8.059   5.599  70.766  1.00  0.00    -0.117 C  
HETATM    4  O   UNL     1      -8.620   3.306  71.361  1.00  0.00    -0.069 OA 
ENDROOT
BRANCH   3   5
HETATM    5  O   UNL     1      -8.832   6.803  70.618  1.00  0.00    -0.148 OA 
BRANCH   5   6
HETATM    6  C   UNL     1      -9.183   7.026  69.239  1.00  0.00    -0.139 C  
BRANCH   6   7
HETATM    7  C   UNL     1      -8.513   8.329  68.763  1.00  0.00    -0.125 C  
BRANCH   7   8
HETATM    8  N   UNL     1      -8.468   9.405  69.767  1.00  0.00    -0.147 NA 
HETATM    9  C   UNL     1      -7.833  10.653  69.297  1.00  0.00    -0.138 C  
HETATM   10  C   UNL     1      -8.653  11.505  68.288  1.00  0.00    -0.161 C  
HETATM   11  N   UNL     1     -10.074  11.700  68.629  1.00  0.00    -0.213 NA 
HETATM   12  C   UNL     1     -10.694  10.500  69.189  1.00  0.00    -0.231 C  
HETATM   13  C   UNL     1      -9.827   9.754  70.230  1.00  0.00    -0.240 C  
BRANCH  11  14
HETATM   14  C   UNL     1     -10.844  12.422  67.575  1.00  0.00    -0.236 C  
BRANCH  14  15
HETATM   15  C   UNL     1     -10.592  11.947  66.120  1.00  0.00    -0.295 A  
HETATM   16  C   UNL     1      -9.369  11.366  65.752  1.00  0.00    -0.247 A  
HETATM   17  C   UNL     1     -11.596  12.012  65.129  1.00  0.00    -0.330 A  
HETATM   18  C   UNL     1      -9.166  10.860  64.457  1.00  0.00    -0.226 A  
HETATM   19  C   UNL     1     -10.183  10.930  63.511  1.00  0.00    -0.379 A  
HETATM   20  C   UNL     1     -11.399  11.509  63.845  1.00  0.00    -0.400 A  
ENDBRANCH  14  15
BRANCH  14  21
HETATM   21  C   UNL     1     -10.884  13.966  67.668  1.00  0.00    -0.264 A  
HETATM   22  C   UNL     1     -10.629  16.742  68.099  1.00  0.00    -0.350 A  
HETATM   23 CL   UNL     1     -10.389  18.405  68.463  1.00  0.00    -0.370 Cl 
HETATM   24  C   UNL     1     -11.597  16.021  68.785  1.00  0.00    -0.352 A  
HETATM   25  C   UNL     1      -9.967  14.735  66.925  1.00  0.00    -0.246 A  
HETATM   26  C   UNL     1     -11.740  14.652  68.548  1.00  0.00    -0.348 A  
HETATM   27  C   UNL     1      -9.842  16.115  67.139  1.00  0.00    -0.241 A  
ENDBRANCH  14  21
ENDBRANCH  11  14
ENDBRANCH   7   8
ENDBRANCH   6   7
ENDBRANCH   5   6
ENDBRANCH   3   5
TORSDOF 7
ENDMDL
MODEL      179
REMARK 921   NORMALIZED FREE ENERGY PREDICTED BY IDOCK:   -3.56 KCAL/MOL
REMARK 922        TOTAL FREE ENERGY PREDICTED BY IDOCK:   -6.06 KCAL/MOL
REMARK 923 INTER-LIGAND FREE ENERGY PREDICTED BY IDOCK:   -6.08 KCAL/MOL
REMARK 924 INTRA-LIGAND FREE ENERGY PREDICTED BY IDOCK:    0.03 KCAL/MOL
REMARK 927      BINDING AFFINITY PREDICTED BY RF-SCORE:    0.00 PKD
ROOT
HETATM    1  O   UNL     1     -12.033  16.225  72.842  1.00  0.00    -0.509 OA 
HETATM    2  C   UNL     1     -13.082  15.714  72.142  1.00  0.00    -0.458 C  
HETATM    3  C   UNL     1     -12.745  15.504  70.677  1.00  0.00    -0.436 C  
HETATM    4  O   UNL     1     -14.157  15.453  72.659  1.00  0.00    -0.516 OA 
ENDROOT
BRANCH   3   5
HETATM    5  O   UNL     1     -11.399  15.944  70.429  1.00  0.00    -0.327 OA 
BRANCH   5   6
HETATM    6  C   UNL     1     -10.626  14.911  69.789  1.00  0.00    -0.169 C  
BRANCH   6   7
HETATM    7  C   UNL     1     -10.581  15.191  68.276  1.00  0.00    -0.243 C  
BRANCH   7   8
HETATM    8  N   UNL     1     -11.434  14.314  67.458  1.00  0.00    -0.326 NA 
HETATM    9  C   UNL     1     -10.822  13.879  66.186  1.00  0.00    -0.290 C  
HETATM   10  C   UNL     1      -9.685  12.823  66.295  1.00  0.00    -0.262 C  
HETATM   11  N   UNL     1      -9.956  11.689  67.198  1.00  0.00    -0.198 NA 
HETATM   12  C   UNL     1     -10.652  12.089  68.420  1.00  0.00    -0.217 C  
HETATM   13  C   UNL     1     -11.807  13.094  68.203  1.00  0.00    -0.348 C  
BRANCH  11  14
HETATM   14  C   UNL     1      -8.794  10.768  67.359  1.00  0.00    -0.129 C  
BRANCH  14  15
HETATM   15  C   UNL     1      -7.537  11.388  68.026  1.00  0.00    -0.110 A  
HETATM   16  C   UNL     1      -6.716  12.284  67.325  1.00  0.00    -0.143 A  
HETATM   17  C   UNL     1      -7.208  11.137  69.375  1.00  0.00    -0.091 A  
HETATM   18  C   UNL     1      -5.625  12.911  67.949  1.00  0.00    -0.119 A  
HETATM   19  C   UNL     1      -5.339  12.649  69.285  1.00  0.00    -0.071 A  
HETATM   20  C   UNL     1      -6.129  11.759  70.000  1.00  0.00    -0.158 A  
ENDBRANCH  14  15
BRANCH  14  21
HETATM   21  C   UNL     1      -8.415   9.894  66.140  1.00  0.00    -0.130 A  
HETATM   22  C   UNL     1      -8.140   8.249  63.865  1.00  0.00    -0.124 A  
HETATM   23 CL   UNL     1      -8.103   7.217  62.491  1.00  0.00    -0.121 Cl 
HETATM   24  C   UNL     1      -7.968   7.711  65.133  1.00  0.00    -0.130 A  
HETATM   25  C   UNL     1      -8.502  10.431  64.841  1.00  0.00    -0.179 A  
HETATM   26  C   UNL     1      -8.077   8.534  66.257  1.00  0.00    -0.107 A  
HETATM   27  C   UNL     1      -8.364   9.613  63.711  1.00  0.00    -0.173 A  
ENDBRANCH  14  21
ENDBRANCH  11  14
ENDBRANCH   7   8
ENDBRANCH   6   7
ENDBRANCH   5   6
ENDBRANCH   3   5
TORSDOF 7
ENDMDL
MODEL      180
REMARK 921   NORMALIZED FREE ENERGY PREDICTED BY IDOCK:   -3.51 KCAL/MOL
REMARK 922        TOTAL FREE ENERGY PREDICTED BY IDOCK:   -5.98 KCAL/MOL
REMARK 923 INTER-LIGAND FREE ENERGY PREDICTED BY IDOCK:   -5.59 KCAL/MOL
REMARK 924 INTRA-LIGAND FREE ENERGY PREDICTED BY IDOCK:   -0.39 KCAL/MOL
REMARK 927      BINDING AFFINITY PREDICTED BY RF-SCORE:    0.00 PKD
ROOT
HETATM    1  O   UNL     1      -9.775   5.130  66.320  1.00  0.00    -0.152 OA 
HETATM    2  C   UNL     1      -9.456   4.360  67.396  1.00  0.00    -0.171 C  
HETATM    3  C   UNL     1      -9.673   5.092  68.708  1.00  0.00    -0.161 C  
HETATM    4  O   UNL     1      -9.054   3.211  67.292  1.00  0.00    -0.145 OA 
ENDROOT
BRANCH   3   5
HETATM    5  O   UNL     1     -10.130   6.428  68.440  1.00  0.00    -0.141 OA 
BRANCH   5   6
HETATM    6  C   UNL     1     -10.098   7.236  69.631  1.00  0.00    -0.194 C  
BRANCH   6   7
HETATM    7  C   UNL     1     -10.915   8.518  69.382  1.00  0.00    -0.005 C  
BRANCH   7   8
HETATM    8  N   UNL     1     -10.348   9.739  69.976  1.00  0.00    -0.245 NA 
HETATM    9  C   UNL     1      -8.902   9.920  69.740  1.00  0.00    -0.211 C  
HETATM   10  C   UNL     1      -8.485  10.320  68.297  1.00  0.00    -0.121 C  
HETATM   11  N   UNL     1      -9.286  11.392  67.678  1.00  0.00    -0.157 NA 
HETATM   12  C   UNL     1     -10.713  11.284  67.985  1.00  0.00    -0.203 C  
HETATM   13  C   UNL     1     -11.030  10.944  69.459  1.00  0.00    -0.253 C  
BRANCH  11  14
HETATM   14  C   UNL     1      -8.925  11.659  66.256  1.00  0.00    -0.193 C  
BRANCH  14  15
HETATM   15  C   UNL     1     -10.040  12.307  65.393  1.00  0.00    -0.292 A  
HETATM   16  C   UNL     1     -10.879  11.522  64.588  1.00  0.00    -0.372 A  
HETATM   17  C   UNL     1     -10.304  13.694  65.433  1.00  0.00    -0.345 A  
HETATM   18  C   UNL     1     -11.942  12.095  63.870  1.00  0.00    -0.581 A  
HETATM   19  C   UNL     1     -12.179  13.463  63.945  1.00  0.00    -0.478 A  
HETATM   20  C   UNL     1     -11.358  14.266  64.725  1.00  0.00    -0.382 A  
ENDBRANCH  14  15
BRANCH  14  21
HETATM   21  C   UNL     1      -8.205  10.524  65.489  1.00  0.00    -0.162 A  
HETATM   22  C   UNL     1      -6.875   8.257  64.465  1.00  0.00    -0.068 A  
HETATM   23 CL   UNL     1      -6.042   6.838  63.968  1.00  0.00    -0.035 Cl 
HETATM   24  C   UNL     1      -6.157   9.410  64.752  1.00  0.00    -0.072 A  
HETATM   25  C   UNL     1      -8.921   9.371  65.111  1.00  0.00    -0.258 A  
HETATM   26  C   UNL     1      -6.822  10.541  65.233  1.00  0.00    -0.050 A  
HETATM   27  C   UNL     1      -8.259   8.246  64.601  1.00  0.00    -0.145 A  
ENDBRANCH  14  21
ENDBRANCH  11  14
ENDBRANCH   7   8
ENDBRANCH   6   7
ENDBRANCH   5   6
ENDBRANCH   3   5
TORSDOF 7
ENDMDL
MODEL      181
REMARK 921   NORMALIZED FREE ENERGY PREDICTED BY IDOCK:   -3.49 KCAL/MOL
REMARK 922        TOTAL FREE ENERGY PREDICTED BY IDOCK:   -5.95 KCAL/MOL
REMARK 923 INTER-LIGAND FREE ENERGY PREDICTED BY IDOCK:   -5.87 KCAL/MOL
REMARK 924 INTRA-LIGAND FREE ENERGY PREDICTED BY IDOCK:   -0.08 KCAL/MOL
REMARK 927      BINDING AFFINITY PREDICTED BY RF-SCORE:    0.00 PKD
ROOT
HETATM    1  O   UNL     1     -11.209  14.684  70.010  1.00  0.00    -0.252 OA 
HETATM    2  C   UNL     1     -11.655  14.926  68.748  1.00  0.00    -0.323 C  
HETATM    3  C   UNL     1     -12.004  13.648  68.008  1.00  0.00    -0.350 C  
HETATM    4  O   UNL     1     -11.764  16.054  68.290  1.00  0.00    -0.303 OA 
ENDROOT
BRANCH   3   5
HETATM    5  O   UNL     1     -11.727  12.518  68.853  1.00  0.00    -0.287 OA 
BRANCH   5   6
HETATM    6  C   UNL     1     -11.905  11.280  68.138  1.00  0.00    -0.205 C  
BRANCH   6   7
HETATM    7  C   UNL     1     -10.704  10.363  68.430  1.00  0.00    -0.225 C  
BRANCH   7   8
HETATM    8  N   UNL     1     -10.230  10.386  69.823  1.00  0.00    -0.219 NA 
HETATM    9  C   UNL     1     -10.950   9.468  70.729  1.00  0.00    -0.321 C  
HETATM   10  C   UNL     1     -10.647   7.953  70.556  1.00  0.00    -0.223 C  
HETATM   11  N   UNL     1      -9.220   7.601  70.427  1.00  0.00    -0.156 NA 
HETATM   12  C   UNL     1      -8.471   8.557  69.613  1.00  0.00    -0.130 C  
HETATM   13  C   UNL     1      -8.796  10.041  69.900  1.00  0.00    -0.147 C  
BRANCH  11  14
HETATM   14  C   UNL     1      -8.989   6.154  70.146  1.00  0.00    -0.148 C  
BRANCH  14  15
HETATM   15  C   UNL     1      -9.431   5.667  68.741  1.00  0.00    -0.155 A  
HETATM   16  C   UNL     1     -10.666   6.053  68.199  1.00  0.00    -0.353 A  
HETATM   17  C   UNL     1      -8.590   4.881  67.924  1.00  0.00    -0.103 A  
HETATM   18  C   UNL     1     -11.036   5.683  66.895  1.00  0.00    -0.162 A  
HETATM   19  C   UNL     1     -10.175   4.919  66.115  1.00  0.00    -0.309 A  
HETATM   20  C   UNL     1      -8.951   4.514  66.629  1.00  0.00    -0.114 A  
ENDBRANCH  14  15
BRANCH  14  21
HETATM   21  C   UNL     1      -9.399   5.149  71.248  1.00  0.00    -0.192 A  
HETATM   22  C   UNL     1     -10.361   3.117  72.953  1.00  0.00    -0.164 A  
HETATM   23 CL   UNL     1     -11.031   1.843  73.892  1.00  0.00    -0.239 Cl 
HETATM   24  C   UNL     1     -10.981   4.359  72.937  1.00  0.00    -0.231 A  
HETATM   25  C   UNL     1      -8.738   3.909  71.345  1.00  0.00    -0.129 A  
HETATM   26  C   UNL     1     -10.485   5.373  72.113  1.00  0.00    -0.273 A  
HETATM   27  C   UNL     1      -9.216   2.900  72.193  1.00  0.00    -0.153 A  
ENDBRANCH  14  21
ENDBRANCH  11  14
ENDBRANCH   7   8
ENDBRANCH   6   7
ENDBRANCH   5   6
ENDBRANCH   3   5
TORSDOF 7
ENDMDL
MODEL      182
REMARK 921   NORMALIZED FREE ENERGY PREDICTED BY IDOCK:   -3.46 KCAL/MOL
REMARK 922        TOTAL FREE ENERGY PREDICTED BY IDOCK:   -5.92 KCAL/MOL
REMARK 923 INTER-LIGAND FREE ENERGY PREDICTED BY IDOCK:   -5.80 KCAL/MOL
REMARK 924 INTRA-LIGAND FREE ENERGY PREDICTED BY IDOCK:   -0.11 KCAL/MOL
REMARK 927      BINDING AFFINITY PREDICTED BY RF-SCORE:    0.00 PKD
ROOT
HETATM    1  O   UNL     1     -13.284  13.752  71.271  1.00  0.00    -0.319 OA 
HETATM    2  C   UNL     1     -12.708  14.834  70.680  1.00  0.00    -0.358 C  
HETATM    3  C   UNL     1     -12.011  14.474  69.381  1.00  0.00    -0.322 C  
HETATM    4  O   UNL     1     -12.769  15.958  71.156  1.00  0.00    -0.465 OA 
ENDROOT
BRANCH   3   5
HETATM    5  O   UNL     1     -12.128  13.060  69.153  1.00  0.00    -0.276 OA 
BRANCH   5   6
HETATM    6  C   UNL     1     -11.336  12.650  68.021  1.00  0.00    -0.290 C  
BRANCH   6   7
HETATM    7  C   UNL     1     -11.909  13.307  66.752  1.00  0.00    -0.394 C  
BRANCH   7   8
HETATM    8  N   UNL     1     -10.915  13.610  65.709  1.00  0.00    -0.278 NA 
HETATM    9  C   UNL     1      -9.533  13.764  66.206  1.00  0.00    -0.202 C  
HETATM   10  C   UNL     1      -8.810  12.459  66.644  1.00  0.00    -0.156 C  
HETATM   11  N   UNL     1      -8.943  11.318  65.719  1.00  0.00    -0.202 NA 
HETATM   12  C   UNL     1     -10.282  11.209  65.140  1.00  0.00    -0.289 C  
HETATM   13  C   UNL     1     -10.893  12.552  64.677  1.00  0.00    -0.310 C  
BRANCH  11  14
HETATM   14  C   UNL     1      -8.334  10.059  66.238  1.00  0.00    -0.127 C  
BRANCH  14  15
HETATM   15  C   UNL     1      -8.175   8.917  65.200  1.00  0.00    -0.143 A  
HETATM   16  C   UNL     1      -7.631   9.165  63.930  1.00  0.00    -0.113 A  
HETATM   17  C   UNL     1      -8.500   7.578  65.507  1.00  0.00    -0.129 A  
HETATM   18  C   UNL     1      -7.409   8.120  63.018  1.00  0.00    -0.102 A  
HETATM   19  C   UNL     1      -7.730   6.812  63.361  1.00  0.00    -0.106 A  
HETATM   20  C   UNL     1      -8.279   6.538  64.606  1.00  0.00    -0.052 A  
ENDBRANCH  14  15
BRANCH  14  21
HETATM   21  C   UNL     1      -8.865   9.525  67.589  1.00  0.00    -0.121 A  
HETATM   22  C   UNL     1      -9.638   8.191  69.952  1.00  0.00    -0.175 A  
HETATM   23 CL   UNL     1     -10.067   7.263  71.334  1.00  0.00    -0.191 Cl 
HETATM   24  C   UNL     1     -10.535   8.311  68.899  1.00  0.00    -0.209 A  
HETATM   25  C   UNL     1      -8.004   9.462  68.703  1.00  0.00    -0.092 A  
HETATM   26  C   UNL     1     -10.159   8.997  67.741  1.00  0.00    -0.260 A  
HETATM   27  C   UNL     1      -8.390   8.800  69.876  1.00  0.00    -0.125 A  
ENDBRANCH  14  21
ENDBRANCH  11  14
ENDBRANCH   7   8
ENDBRANCH   6   7
ENDBRANCH   5   6
ENDBRANCH   3   5
TORSDOF 7
ENDMDL
MODEL      183
REMARK 921   NORMALIZED FREE ENERGY PREDICTED BY IDOCK:   -3.46 KCAL/MOL
REMARK 922        TOTAL FREE ENERGY PREDICTED BY IDOCK:   -5.91 KCAL/MOL
REMARK 923 INTER-LIGAND FREE ENERGY PREDICTED BY IDOCK:   -5.11 KCAL/MOL
REMARK 924 INTRA-LIGAND FREE ENERGY PREDICTED BY IDOCK:   -0.80 KCAL/MOL
REMARK 927      BINDING AFFINITY PREDICTED BY RF-SCORE:    0.00 PKD
ROOT
HETATM    1  O   UNL     1     -10.110   9.038  72.036  1.00  0.00    -0.327 OA 
HETATM    2  C   UNL     1     -10.361   7.886  72.717  1.00  0.00    -0.333 C  
HETATM    3  C   UNL     1      -9.218   7.505  73.639  1.00  0.00    -0.268 C  
HETATM    4  O   UNL     1     -11.400   7.256  72.590  1.00  0.00    -0.292 OA 
ENDROOT
BRANCH   3   5
HETATM    5  O   UNL     1      -8.157   8.467  73.507  1.00  0.00    -0.378 OA 
BRANCH   5   6
HETATM    6  C   UNL     1      -6.977   7.863  72.946  1.00  0.00    -0.084 C  
BRANCH   6   7
HETATM    7  C   UNL     1      -5.934   8.966  72.683  1.00  0.00    -0.042 C  
BRANCH   7   8
HETATM    8  N   UNL     1      -5.296   8.913  71.358  1.00  0.00    -0.036 NA 
HETATM    9  C   UNL     1      -5.778   7.819  70.490  1.00  0.00    -0.026 C  
HETATM   10  C   UNL     1      -7.205   7.989  69.897  1.00  0.00    -0.061 C  
HETATM   11  N   UNL     1      -7.504   9.318  69.332  1.00  0.00    -0.075 NA 
HETATM   12  C   UNL     1      -6.947  10.412  70.128  1.00  0.00    -0.141 C  
HETATM   13  C   UNL     1      -5.501  10.177  70.621  1.00  0.00    -0.072 C  
BRANCH  11  14
HETATM   14  C   UNL     1      -8.918   9.468  68.883  1.00  0.00    -0.141 C  
BRANCH  14  15
HETATM   15  C   UNL     1      -9.539   8.221  68.200  1.00  0.00    -0.163 A  
HETATM   16  C   UNL     1      -9.102   7.798  66.935  1.00  0.00    -0.171 A  
HETATM   17  C   UNL     1     -10.510   7.423  68.843  1.00  0.00    -0.213 A  
HETATM   18  C   UNL     1      -9.602   6.624  66.349  1.00  0.00    -0.147 A  
HETATM   19  C   UNL     1     -10.548   5.856  67.019  1.00  0.00    -0.376 A  
HETATM   20  C   UNL     1     -11.006   6.256  68.266  1.00  0.00    -0.408 A  
ENDBRANCH  14  15
BRANCH  14  21
HETATM   21  C   UNL     1      -9.281  10.768  68.126  1.00  0.00    -0.151 A  
HETATM   22  C   UNL     1      -9.742  13.338  67.059  1.00  0.00    -0.238 A  
HETATM   23 CL   UNL     1      -9.980  14.955  66.526  1.00  0.00    -0.264 Cl 
HETATM   24  C   UNL     1     -10.746  12.693  67.768  1.00  0.00    -0.239 A  
HETATM   25  C   UNL     1      -8.310  11.410  67.333  1.00  0.00    -0.144 A  
HETATM   26  C   UNL     1     -10.525  11.408  68.271  1.00  0.00    -0.221 A  
HETATM   27  C   UNL     1      -8.540  12.686  66.802  1.00  0.00    -0.101 A  
ENDBRANCH  14  21
ENDBRANCH  11  14
ENDBRANCH   7   8
ENDBRANCH   6   7
ENDBRANCH   5   6
ENDBRANCH   3   5
TORSDOF 7
ENDMDL
MODEL      184
REMARK 921   NORMALIZED FREE ENERGY PREDICTED BY IDOCK:   -3.44 KCAL/MOL
REMARK 922        TOTAL FREE ENERGY PREDICTED BY IDOCK:   -5.88 KCAL/MOL
REMARK 923 INTER-LIGAND FREE ENERGY PREDICTED BY IDOCK:   -5.80 KCAL/MOL
REMARK 924 INTRA-LIGAND FREE ENERGY PREDICTED BY IDOCK:   -0.08 KCAL/MOL
REMARK 927      BINDING AFFINITY PREDICTED BY RF-SCORE:    0.00 PKD
ROOT
HETATM    1  O   UNL     1      -7.900   7.048  65.544  1.00  0.00    -0.101 OA 
HETATM    2  C   UNL     1      -7.524   7.971  64.618  1.00  0.00    -0.097 C  
HETATM    3  C   UNL     1      -6.566   9.000  65.190  1.00  0.00    -0.072 C  
HETATM    4  O   UNL     1      -7.918   7.947  63.461  1.00  0.00    -0.150 OA 
ENDROOT
BRANCH   3   5
HETATM    5  O   UNL     1      -6.348   8.725  66.584  1.00  0.00    -0.057 OA 
BRANCH   5   6
HETATM    6  C   UNL     1      -6.036   9.930  67.309  1.00  0.00    -0.051 C  
BRANCH   6   7
HETATM    7  C   UNL     1      -6.696  11.122  66.593  1.00  0.00    -0.137 C  
BRANCH   7   8
HETATM    8  N   UNL     1      -6.926  12.304  67.440  1.00  0.00    -0.141 NA 
HETATM    9  C   UNL     1      -8.125  13.089  67.083  1.00  0.00    -0.107 C  
HETATM   10  C   UNL     1      -9.497  12.451  67.442  1.00  0.00    -0.186 C  
HETATM   11  N   UNL     1      -9.595  11.873  68.795  1.00  0.00    -0.082 NA 
HETATM   12  C   UNL     1      -8.376  11.175  69.204  1.00  0.00     0.023 C  
HETATM   13  C   UNL     1      -7.064  11.917  68.860  1.00  0.00    -0.110 C  
BRANCH  11  14
HETATM   14  C   UNL     1     -10.886  11.171  69.049  1.00  0.00    -0.231 C  
BRANCH  14  15
HETATM   15  C   UNL     1     -11.822  11.848  70.086  1.00  0.00    -0.390 A  
HETATM   16  C   UNL     1     -12.546  11.083  71.013  1.00  0.00    -0.512 A  
HETATM   17  C   UNL     1     -11.931  13.252  70.189  1.00  0.00    -0.388 A  
HETATM   18  C   UNL     1     -13.330  11.694  72.005  1.00  0.00    -0.405 A  
HETATM   19  C   UNL     1     -13.402  13.081  72.084  1.00  0.00    -0.622 A  
HETATM   20  C   UNL     1     -12.705  13.862  71.174  1.00  0.00    -0.441 A  
ENDBRANCH  14  15
BRANCH  14  21
HETATM   21  C   UNL     1     -10.825   9.639  69.258  1.00  0.00    -0.227 A  
HETATM   22  C   UNL     1     -10.298   6.903  69.695  1.00  0.00    -0.206 A  
HETATM   23 CL   UNL     1      -9.845   5.264  69.951  1.00  0.00    -0.258 Cl 
HETATM   24  C   UNL     1     -10.447   7.381  68.400  1.00  0.00    -0.220 A  
HETATM   25  C   UNL     1     -10.751   9.114  70.562  1.00  0.00    -0.289 A  
HETATM   26  C   UNL     1     -10.736   8.731  68.188  1.00  0.00    -0.131 A  
HETATM   27  C   UNL     1     -10.491   7.754  70.779  1.00  0.00    -0.213 A  
ENDBRANCH  14  21
ENDBRANCH  11  14
ENDBRANCH   7   8
ENDBRANCH   6   7
ENDBRANCH   5   6
ENDBRANCH   3   5
TORSDOF 7
ENDMDL
MODEL      185
REMARK 921   NORMALIZED FREE ENERGY PREDICTED BY IDOCK:   -3.43 KCAL/MOL
REMARK 922        TOTAL FREE ENERGY PREDICTED BY IDOCK:   -5.87 KCAL/MOL
REMARK 923 INTER-LIGAND FREE ENERGY PREDICTED BY IDOCK:   -5.95 KCAL/MOL
REMARK 924 INTRA-LIGAND FREE ENERGY PREDICTED BY IDOCK:    0.08 KCAL/MOL
REMARK 927      BINDING AFFINITY PREDICTED BY RF-SCORE:    0.00 PKD
ROOT
HETATM    1  O   UNL     1      -9.582   3.535  66.752  1.00  0.00    -0.193 OA 
HETATM    2  C   UNL     1      -9.048   2.822  67.781  1.00  0.00    -0.182 C  
HETATM    3  C   UNL     1      -7.903   3.557  68.454  1.00  0.00    -0.063 C  
HETATM    4  O   UNL     1      -9.466   1.722  68.111  1.00  0.00    -0.186 OA 
ENDROOT
BRANCH   3   5
HETATM    5  O   UNL     1      -7.679   4.808  67.783  1.00  0.00    -0.082 OA 
BRANCH   5   6
HETATM    6  C   UNL     1      -8.027   5.920  68.629  1.00  0.00    -0.103 C  
BRANCH   6   7
HETATM    7  C   UNL     1      -7.337   7.187  68.089  1.00  0.00    -0.097 C  
BRANCH   7   8
HETATM    8  N   UNL     1      -7.723   7.568  66.721  1.00  0.00    -0.100 NA 
HETATM    9  C   UNL     1      -9.152   7.908  66.560  1.00  0.00    -0.170 C  
HETATM   10  C   UNL     1      -9.608   9.266  67.165  1.00  0.00    -0.159 C  
HETATM   11  N   UNL     1      -8.729  10.415  66.880  1.00  0.00    -0.127 NA 
HETATM   12  C   UNL     1      -7.309  10.072  66.938  1.00  0.00    -0.092 C  
HETATM   13  C   UNL     1      -6.942   8.733  66.256  1.00  0.00    -0.081 C  
BRANCH  11  14
HETATM   14  C   UNL     1      -9.145  11.667  67.577  1.00  0.00    -0.172 C  
BRANCH  14  15
HETATM   15  C   UNL     1     -10.129  11.477  68.762  1.00  0.00    -0.191 A  
HETATM   16  C   UNL     1     -11.085  12.457  69.070  1.00  0.00    -0.288 A  
HETATM   17  C   UNL     1     -10.153  10.293  69.530  1.00  0.00    -0.260 A  
HETATM   18  C   UNL     1     -12.030  12.254  70.089  1.00  0.00    -0.377 A  
HETATM   19  C   UNL     1     -12.032  11.068  70.815  1.00  0.00    -0.436 A  
HETATM   20  C   UNL     1     -11.091  10.086  70.539  1.00  0.00    -0.400 A  
ENDBRANCH  14  15
BRANCH  14  21
HETATM   21  C   UNL     1      -9.555  12.864  66.687  1.00  0.00    -0.257 A  
HETATM   22  C   UNL     1     -10.557  15.156  65.384  1.00  0.00    -0.391 A  
HETATM   23 CL   UNL     1     -11.262  16.561  64.686  1.00  0.00    -0.306 Cl 
HETATM   24  C   UNL     1     -11.064  13.903  65.068  1.00  0.00    -0.353 A  
HETATM   25  C   UNL     1      -9.001  14.137  66.928  1.00  0.00    -0.247 A  
HETATM   26  C   UNL     1     -10.546  12.767  65.694  1.00  0.00    -0.297 A  
HETATM   27  C   UNL     1      -9.499  15.275  66.279  1.00  0.00    -0.341 A  
ENDBRANCH  14  21
ENDBRANCH  11  14
ENDBRANCH   7   8
ENDBRANCH   6   7
ENDBRANCH   5   6
ENDBRANCH   3   5
TORSDOF 7
ENDMDL
MODEL      186
REMARK 921   NORMALIZED FREE ENERGY PREDICTED BY IDOCK:   -3.43 KCAL/MOL
REMARK 922        TOTAL FREE ENERGY PREDICTED BY IDOCK:   -5.87 KCAL/MOL
REMARK 923 INTER-LIGAND FREE ENERGY PREDICTED BY IDOCK:   -5.77 KCAL/MOL
REMARK 924 INTRA-LIGAND FREE ENERGY PREDICTED BY IDOCK:   -0.09 KCAL/MOL
REMARK 927      BINDING AFFINITY PREDICTED BY RF-SCORE:    0.00 PKD
ROOT
HETATM    1  O   UNL     1      -9.313  15.704  69.600  1.00  0.00    -0.280 OA 
HETATM    2  C   UNL     1      -9.515  16.477  68.499  1.00  0.00    -0.235 C  
HETATM    3  C   UNL     1      -8.216  17.039  67.948  1.00  0.00    -0.200 C  
HETATM    4  O   UNL     1     -10.622  16.673  68.021  1.00  0.00    -0.311 OA 
ENDROOT
BRANCH   3   5
HETATM    5  O   UNL     1      -7.123  16.617  68.780  1.00  0.00    -0.170 OA 
BRANCH   5   6
HETATM    6  C   UNL     1      -6.036  16.103  67.987  1.00  0.00    -0.120 C  
BRANCH   6   7
HETATM    7  C   UNL     1      -6.447  14.734  67.412  1.00  0.00     0.066 C  
BRANCH   7   8
HETATM    8  N   UNL     1      -6.320  13.606  68.349  1.00  0.00    -0.088 NA 
HETATM    9  C   UNL     1      -7.606  13.061  68.828  1.00  0.00    -0.027 C  
HETATM   10  C   UNL     1      -8.429  12.233  67.800  1.00  0.00    -0.163 C  
HETATM   11  N   UNL     1      -7.661  11.243  67.023  1.00  0.00    -0.136 NA 
HETATM   12  C   UNL     1      -6.341  11.732  66.625  1.00  0.00    -0.011 C  
HETATM   13  C   UNL     1      -5.574  12.489  67.733  1.00  0.00    -0.113 C  
BRANCH  11  14
HETATM   14  C   UNL     1      -8.468  10.559  65.971  1.00  0.00    -0.156 C  
BRANCH  14  15
HETATM   15  C   UNL     1      -9.624  11.398  65.365  1.00  0.00    -0.255 A  
HETATM   16  C   UNL     1     -10.084  11.157  64.061  1.00  0.00    -0.392 A  
HETATM   17  C   UNL     1     -10.305  12.382  66.114  1.00  0.00    -0.271 A  
HETATM   18  C   UNL     1     -11.183  11.858  63.538  1.00  0.00    -0.501 A  
HETATM   19  C   UNL     1     -11.838  12.811  64.311  1.00  0.00    -0.460 A  
HETATM   20  C   UNL     1     -11.398  13.076  65.600  1.00  0.00    -0.330 A  
ENDBRANCH  14  15
BRANCH  14  21
HETATM   21  C   UNL     1      -8.914   9.106  66.260  1.00  0.00    -0.194 A  
HETATM   22  C   UNL     1      -9.888   6.462  66.397  1.00  0.00    -0.063 A  
HETATM   23 CL   UNL     1     -10.550   4.876  66.367  1.00  0.00    -0.326 Cl 
HETATM   24  C   UNL     1     -10.605   7.495  66.985  1.00  0.00    -0.409 A  
HETATM   25  C   UNL     1      -8.166   8.029  65.745  1.00  0.00    -0.132 A  
HETATM   26  C   UNL     1     -10.106   8.800  66.940  1.00  0.00    -0.348 A  
HETATM   27  C   UNL     1      -8.650   6.716  65.815  1.00  0.00    -0.147 A  
ENDBRANCH  14  21
ENDBRANCH  11  14
ENDBRANCH   7   8
ENDBRANCH   6   7
ENDBRANCH   5   6
ENDBRANCH   3   5
TORSDOF 7
ENDMDL
MODEL      187
REMARK 921   NORMALIZED FREE ENERGY PREDICTED BY IDOCK:   -3.40 KCAL/MOL
REMARK 922        TOTAL FREE ENERGY PREDICTED BY IDOCK:   -5.82 KCAL/MOL
REMARK 923 INTER-LIGAND FREE ENERGY PREDICTED BY IDOCK:   -5.60 KCAL/MOL
REMARK 924 INTRA-LIGAND FREE ENERGY PREDICTED BY IDOCK:   -0.22 KCAL/MOL
REMARK 927      BINDING AFFINITY PREDICTED BY RF-SCORE:    0.00 PKD
ROOT
HETATM    1  O   UNL     1     -10.308  18.389  68.839  1.00  0.00    -0.332 OA 
HETATM    2  C   UNL     1      -9.791  17.993  67.645  1.00  0.00    -0.305 C  
HETATM    3  C   UNL     1      -8.911  16.763  67.780  1.00  0.00    -0.216 C  
HETATM    4  O   UNL     1     -10.030  18.572  66.596  1.00  0.00    -0.330 OA 
ENDROOT
BRANCH   3   5
HETATM    5  O   UNL     1      -8.844  16.375  69.163  1.00  0.00    -0.244 OA 
BRANCH   5   6
HETATM    6  C   UNL     1      -7.791  15.417  69.382  1.00  0.00    -0.232 C  
BRANCH   6   7
HETATM    7  C   UNL     1      -8.323  14.012  69.044  1.00  0.00     0.137 C  
BRANCH   7   8
HETATM    8  N   UNL     1      -7.421  13.189  68.221  1.00  0.00    -0.118 NA 
HETATM    9  C   UNL     1      -6.942  11.959  68.883  1.00  0.00    -0.110 C  
HETATM   10  C   UNL     1      -7.983  10.816  69.047  1.00  0.00    -0.137 C  
HETATM   11  N   UNL     1      -8.798  10.523  67.854  1.00  0.00    -0.132 NA 
HETATM   12  C   UNL     1      -9.199  11.728  67.130  1.00  0.00    -0.179 C  
HETATM   13  C   UNL     1      -8.079  12.781  66.963  1.00  0.00    -0.066 C  
BRANCH  11  14
HETATM   14  C   UNL     1      -9.859   9.502  68.095  1.00  0.00    -0.155 C  
BRANCH  14  15
HETATM   15  C   UNL     1     -10.789   9.779  69.306  1.00  0.00    -0.240 A  
HETATM   16  C   UNL     1     -11.241  11.077  69.588  1.00  0.00    -0.345 A  
HETATM   17  C   UNL     1     -11.274   8.738  70.128  1.00  0.00    -0.162 A  
HETATM   18  C   UNL     1     -12.147  11.320  70.633  1.00  0.00    -0.480 A  
HETATM   19  C   UNL     1     -12.614  10.267  71.413  1.00  0.00    -0.539 A  
HETATM   20  C   UNL     1     -12.176   8.974  71.164  1.00  0.00    -0.331 A  
ENDBRANCH  14  15
BRANCH  14  21
HETATM   21  C   UNL     1      -9.432   8.016  68.038  1.00  0.00    -0.157 A  
HETATM   22  C   UNL     1      -9.050   5.221  68.047  1.00  0.00    -0.110 A  
HETATM   23 CL   UNL     1      -8.937   3.507  68.115  1.00  0.00    -0.156 Cl 
HETATM   24  C   UNL     1      -8.627   5.981  69.129  1.00  0.00    -0.117 A  
HETATM   25  C   UNL     1      -9.776   7.233  66.919  1.00  0.00    -0.252 A  
HETATM   26  C   UNL     1      -8.791   7.369  69.109  1.00  0.00    -0.136 A  
HETATM   27  C   UNL     1      -9.585   5.844  66.924  1.00  0.00    -0.156 A  
ENDBRANCH  14  21
ENDBRANCH  11  14
ENDBRANCH   7   8
ENDBRANCH   6   7
ENDBRANCH   5   6
ENDBRANCH   3   5
TORSDOF 7
ENDMDL
MODEL      188
REMARK 921   NORMALIZED FREE ENERGY PREDICTED BY IDOCK:   -3.37 KCAL/MOL
REMARK 922        TOTAL FREE ENERGY PREDICTED BY IDOCK:   -5.79 KCAL/MOL
REMARK 923 INTER-LIGAND FREE ENERGY PREDICTED BY IDOCK:   -5.12 KCAL/MOL
REMARK 924 INTRA-LIGAND FREE ENERGY PREDICTED BY IDOCK:   -0.67 KCAL/MOL
REMARK 927      BINDING AFFINITY PREDICTED BY RF-SCORE:    0.00 PKD
ROOT
HETATM    1  O   UNL     1      -7.400   5.681  63.934  1.00  0.00    -0.052 OA 
HETATM    2  C   UNL     1      -6.523   6.510  63.305  1.00  0.00    -0.037 C  
HETATM    3  C   UNL     1      -6.844   7.974  63.548  1.00  0.00    -0.075 C  
HETATM    4  O   UNL     1      -5.587   6.099  62.636  1.00  0.00    -0.021 OA 
ENDROOT
BRANCH   3   5
HETATM    5  O   UNL     1      -8.025   8.074  64.361  1.00  0.00    -0.139 OA 
BRANCH   5   6
HETATM    6  C   UNL     1      -8.481   9.438  64.446  1.00  0.00    -0.184 C  
BRANCH   6   7
HETATM    7  C   UNL     1      -7.570  10.204  65.423  1.00  0.00    -0.144 C  
BRANCH   7   8
HETATM    8  N   UNL     1      -8.277  11.073  66.378  1.00  0.00    -0.163 NA 
HETATM    9  C   UNL     1      -9.749  11.048  66.254  1.00  0.00    -0.207 C  
HETATM   10  C   UNL     1     -10.460   9.761  66.758  1.00  0.00    -0.189 C  
HETATM   11  N   UNL     1     -10.004   9.254  68.066  1.00  0.00    -0.173 NA 
HETATM   12  C   UNL     1      -8.557   9.364  68.245  1.00  0.00    -0.120 C  
HETATM   13  C   UNL     1      -7.949  10.704  67.770  1.00  0.00    -0.110 C  
BRANCH  11  14
HETATM   14  C   UNL     1     -10.631   7.957  68.452  1.00  0.00    -0.107 C  
BRANCH  14  15
HETATM   15  C   UNL     1     -10.951   7.791  69.961  1.00  0.00    -0.218 A  
HETATM   16  C   UNL     1     -11.679   6.686  70.428  1.00  0.00    -0.446 A  
HETATM   17  C   UNL     1     -10.470   8.698  70.930  1.00  0.00    -0.265 A  
HETATM   18  C   UNL     1     -11.901   6.490  71.801  1.00  0.00    -0.384 A  
HETATM   19  C   UNL     1     -11.399   7.397  72.727  1.00  0.00    -0.356 A  
HETATM   20  C   UNL     1     -10.684   8.505  72.293  1.00  0.00    -0.411 A  
ENDBRANCH  14  15
BRANCH  14  21
HETATM   21  C   UNL     1     -10.005   6.671  67.862  1.00  0.00    -0.152 A  
HETATM   22  C   UNL     1      -9.169   4.121  66.993  1.00  0.00    -0.157 A  
HETATM   23 CL   UNL     1      -8.743   2.513  66.556  1.00  0.00    -0.118 Cl 
HETATM   24  C   UNL     1      -8.513   4.742  68.048  1.00  0.00    -0.102 A  
HETATM   25  C   UNL     1     -10.598   6.054  66.743  1.00  0.00    -0.359 A  
HETATM   26  C   UNL     1      -8.911   6.017  68.457  1.00  0.00    -0.114 A  
HETATM   27  C   UNL     1     -10.181   4.788  66.311  1.00  0.00    -0.315 A  
ENDBRANCH  14  21
ENDBRANCH  11  14
ENDBRANCH   7   8
ENDBRANCH   6   7
ENDBRANCH   5   6
ENDBRANCH   3   5
TORSDOF 7
ENDMDL
MODEL      189
REMARK 921   NORMALIZED FREE ENERGY PREDICTED BY IDOCK:   -3.33 KCAL/MOL
REMARK 922        TOTAL FREE ENERGY PREDICTED BY IDOCK:   -5.73 KCAL/MOL
REMARK 923 INTER-LIGAND FREE ENERGY PREDICTED BY IDOCK:   -5.66 KCAL/MOL
REMARK 924 INTRA-LIGAND FREE ENERGY PREDICTED BY IDOCK:   -0.06 KCAL/MOL
REMARK 927      BINDING AFFINITY PREDICTED BY RF-SCORE:    0.00 PKD
ROOT
HETATM    1  O   UNL     1     -11.997  15.779  72.484  1.00  0.00    -0.406 OA 
HETATM    2  C   UNL     1     -13.121  15.556  71.751  1.00  0.00    -0.466 C  
HETATM    3  C   UNL     1     -12.811  15.322  70.283  1.00  0.00    -0.260 C  
HETATM    4  O   UNL     1     -14.240  15.539  72.242  1.00  0.00    -0.549 OA 
ENDROOT
BRANCH   3   5
HETATM    5  O   UNL     1     -11.394  15.438  70.071  1.00  0.00    -0.257 OA 
BRANCH   5   6
HETATM    6  C   UNL     1     -10.789  14.144  69.887  1.00  0.00     0.133 C  
BRANCH   6   7
HETATM    7  C   UNL     1     -10.812  13.796  68.387  1.00  0.00    -0.252 C  
BRANCH   7   8
HETATM    8  N   UNL     1     -11.795  12.770  68.004  1.00  0.00    -0.352 NA 
HETATM    9  C   UNL     1     -11.448  12.016  66.783  1.00  0.00    -0.345 C  
HETATM   10  C   UNL     1     -10.290  10.987  66.915  1.00  0.00    -0.235 C  
HETATM   11  N   UNL     1     -10.344  10.119  68.106  1.00  0.00    -0.175 NA 
HETATM   12  C   UNL     1     -10.782  10.829  69.307  1.00  0.00    -0.229 C  
HETATM   13  C   UNL     1     -11.979  11.784  69.089  1.00  0.00    -0.293 C  
BRANCH  11  14
HETATM   14  C   UNL     1      -9.153   9.232  68.249  1.00  0.00    -0.128 C  
BRANCH  14  15
HETATM   15  C   UNL     1      -7.784   9.898  67.946  1.00  0.00    -0.090 A  
HETATM   16  C   UNL     1      -7.433  10.264  66.638  1.00  0.00    -0.110 A  
HETATM   17  C   UNL     1      -6.871  10.226  68.971  1.00  0.00    -0.058 A  
HETATM   18  C   UNL     1      -6.231  10.940  66.370  1.00  0.00    -0.130 A  
HETATM   19  C   UNL     1      -5.362  11.259  67.408  1.00  0.00    -0.048 A  
HETATM   20  C   UNL     1      -5.679  10.900  68.711  1.00  0.00    -0.040 A  
ENDBRANCH  14  15
BRANCH  14  21
HETATM   21  C   UNL     1      -9.248   7.821  67.621  1.00  0.00    -0.146 A  
HETATM   22  C   UNL     1      -9.470   5.451  66.109  1.00  0.00    -0.157 A  
HETATM   23 CL   UNL     1      -9.647   4.082  65.084  1.00  0.00    -0.169 Cl 
HETATM   24  C   UNL     1     -10.566   5.925  66.817  1.00  0.00    -0.368 A  
HETATM   25  C   UNL     1      -8.130   7.274  66.961  1.00  0.00    -0.117 A  
HETATM   26  C   UNL     1     -10.445   7.084  67.588  1.00  0.00    -0.301 A  
HETATM   27  C   UNL     1      -8.241   6.095  66.211  1.00  0.00    -0.116 A  
ENDBRANCH  14  21
ENDBRANCH  11  14
ENDBRANCH   7   8
ENDBRANCH   6   7
ENDBRANCH   5   6
ENDBRANCH   3   5
TORSDOF 7
ENDMDL
MODEL      190
REMARK 921   NORMALIZED FREE ENERGY PREDICTED BY IDOCK:   -3.28 KCAL/MOL
REMARK 922        TOTAL FREE ENERGY PREDICTED BY IDOCK:   -5.66 KCAL/MOL
REMARK 923 INTER-LIGAND FREE ENERGY PREDICTED BY IDOCK:   -5.10 KCAL/MOL
REMARK 924 INTRA-LIGAND FREE ENERGY PREDICTED BY IDOCK:   -0.56 KCAL/MOL
REMARK 927      BINDING AFFINITY PREDICTED BY RF-SCORE:    0.00 PKD
ROOT
HETATM    1  O   UNL     1      -9.415   8.876  66.097  1.00  0.00    -0.214 OA 
HETATM    2  C   UNL     1      -8.501   9.493  65.300  1.00  0.00    -0.148 C  
HETATM    3  C   UNL     1      -7.594  10.425  66.083  1.00  0.00    -0.130 C  
HETATM    4  O   UNL     1      -8.431   9.295  64.096  1.00  0.00    -0.173 OA 
ENDROOT
BRANCH   3   5
HETATM    5  O   UNL     1      -7.985  10.420  67.466  1.00  0.00    -0.106 OA 
BRANCH   5   6
HETATM    6  C   UNL     1      -6.838  10.531  68.330  1.00  0.00    -0.068 C  
BRANCH   6   7
HETATM    7  C   UNL     1      -7.112  11.624  69.379  1.00  0.00    -0.007 C  
BRANCH   7   8
HETATM    8  N   UNL     1      -6.002  12.565  69.598  1.00  0.00    -0.113 NA 
HETATM    9  C   UNL     1      -5.220  12.882  68.385  1.00  0.00    -0.068 C  
HETATM   10  C   UNL     1      -5.913  13.801  67.340  1.00  0.00     0.213 C  
HETATM   11  N   UNL     1      -6.591  14.990  67.890  1.00  0.00    -0.144 NA 
HETATM   12  C   UNL     1      -7.289  14.716  69.146  1.00  0.00    -0.143 C  
HETATM   13  C   UNL     1      -6.494  13.846  70.147  1.00  0.00    -0.023 C  
BRANCH  11  14
HETATM   14  C   UNL     1      -7.339  15.774  66.865  1.00  0.00    -0.139 C  
BRANCH  14  15
HETATM   15  C   UNL     1      -7.119  17.310  66.907  1.00  0.00    -0.234 A  
HETATM   16  C   UNL     1      -7.510  18.064  68.023  1.00  0.00    -0.238 A  
HETATM   17  C   UNL     1      -6.459  17.999  65.866  1.00  0.00    -0.305 A  
HETATM   18  C   UNL     1      -7.240  19.441  68.101  1.00  0.00    -0.322 A  
HETATM   19  C   UNL     1      -6.575  20.082  67.062  1.00  0.00    -0.237 A  
HETATM   20  C   UNL     1      -6.186  19.363  65.941  1.00  0.00    -0.214 A  
ENDBRANCH  14  15
BRANCH  14  21
HETATM   21  C   UNL     1      -8.831  15.421  66.660  1.00  0.00    -0.330 A  
HETATM   22  C   UNL     1     -11.419  14.541  65.963  1.00  0.00    -0.348 A  
HETATM   23 CL   UNL     1     -12.943  13.956  65.424  1.00  0.00    -0.468 Cl 
HETATM   24  C   UNL     1     -10.984  15.797  65.564  1.00  0.00    -0.275 A  
HETATM   25  C   UNL     1      -9.327  14.186  67.122  1.00  0.00    -0.241 A  
HETATM   26  C   UNL     1      -9.712  16.242  65.934  1.00  0.00    -0.354 A  
HETATM   27  C   UNL     1     -10.613  13.750  66.776  1.00  0.00    -0.273 A  
ENDBRANCH  14  21
ENDBRANCH  11  14
ENDBRANCH   7   8
ENDBRANCH   6   7
ENDBRANCH   5   6
ENDBRANCH   3   5
TORSDOF 7
ENDMDL
MODEL      191
REMARK 921   NORMALIZED FREE ENERGY PREDICTED BY IDOCK:   -3.28 KCAL/MOL
REMARK 922        TOTAL FREE ENERGY PREDICTED BY IDOCK:   -5.66 KCAL/MOL
REMARK 923 INTER-LIGAND FREE ENERGY PREDICTED BY IDOCK:   -5.16 KCAL/MOL
REMARK 924 INTRA-LIGAND FREE ENERGY PREDICTED BY IDOCK:   -0.50 KCAL/MOL
REMARK 927      BINDING AFFINITY PREDICTED BY RF-SCORE:    0.00 PKD
ROOT
HETATM    1  O   UNL     1     -10.730  17.072  67.567  1.00  0.00    -0.330 OA 
HETATM    2  C   UNL     1     -10.279  17.249  66.296  1.00  0.00    -0.342 C  
HETATM    3  C   UNL     1     -10.775  16.164  65.356  1.00  0.00    -0.358 C  
HETATM    4  O   UNL     1      -9.566  18.186  65.971  1.00  0.00    -0.496 OA 
ENDROOT
BRANCH   3   5
HETATM    5  O   UNL     1     -11.569  15.220  66.094  1.00  0.00    -0.173 OA 
BRANCH   5   6
HETATM    6  C   UNL     1     -11.651  13.959  65.404  1.00  0.00    -0.325 C  
BRANCH   6   7
HETATM    7  C   UNL     1     -11.113  12.852  66.329  1.00  0.00    -0.288 C  
BRANCH   7   8
HETATM    8  N   UNL     1     -11.036  13.218  67.753  1.00  0.00    -0.256 NA 
HETATM    9  C   UNL     1     -11.709  12.271  68.665  1.00  0.00    -0.328 C  
HETATM   10  C   UNL     1     -10.999  10.905  68.884  1.00  0.00    -0.229 C  
HETATM   11  N   UNL     1      -9.546  10.976  69.130  1.00  0.00    -0.123 NA 
HETATM   12  C   UNL     1      -8.879  11.981  68.303  1.00  0.00    -0.182 C  
HETATM   13  C   UNL     1      -9.631  13.328  68.196  1.00  0.00    -0.227 C  
BRANCH  11  14
HETATM   14  C   UNL     1      -8.892   9.638  69.216  1.00  0.00    -0.164 C  
BRANCH  14  15
HETATM   15  C   UNL     1      -7.587   9.585  70.054  1.00  0.00    -0.134 A  
HETATM   16  C   UNL     1      -7.381   8.576  71.006  1.00  0.00    -0.074 A  
HETATM   17  C   UNL     1      -6.530  10.498  69.848  1.00  0.00    -0.116 A  
HETATM   18  C   UNL     1      -6.168   8.476  71.708  1.00  0.00    -0.064 A  
HETATM   19  C   UNL     1      -5.144   9.385  71.468  1.00  0.00    -0.053 A  
HETATM   20  C   UNL     1      -5.324  10.401  70.539  1.00  0.00    -0.065 A  
ENDBRANCH  14  15
BRANCH  14  21
HETATM   21  C   UNL     1      -8.753   8.837  67.900  1.00  0.00    -0.136 A  
HETATM   22  C   UNL     1      -8.125   7.251  65.653  1.00  0.00    -0.133 A  
HETATM   23 CL   UNL     1      -7.616   6.276  64.332  1.00  0.00    -0.093 Cl 
HETATM   24  C   UNL     1      -7.936   8.626  65.604  1.00  0.00    -0.105 A  
HETATM   25  C   UNL     1      -9.012   7.453  67.893  1.00  0.00    -0.131 A  
HETATM   26  C   UNL     1      -8.274   9.412  66.709  1.00  0.00    -0.112 A  
HETATM   27  C   UNL     1      -8.700   6.666  66.775  1.00  0.00    -0.121 A  
ENDBRANCH  14  21
ENDBRANCH  11  14
ENDBRANCH   7   8
ENDBRANCH   6   7
ENDBRANCH   5   6
ENDBRANCH   3   5
TORSDOF 7
ENDMDL
MODEL      192
REMARK 921   NORMALIZED FREE ENERGY PREDICTED BY IDOCK:   -3.28 KCAL/MOL
REMARK 922        TOTAL FREE ENERGY PREDICTED BY IDOCK:   -5.65 KCAL/MOL
REMARK 923 INTER-LIGAND FREE ENERGY PREDICTED BY IDOCK:   -4.66 KCAL/MOL
REMARK 924 INTRA-LIGAND FREE ENERGY PREDICTED BY IDOCK:   -0.99 KCAL/MOL
REMARK 927      BINDING AFFINITY PREDICTED BY RF-SCORE:    0.00 PKD
ROOT
HETATM    1  O   UNL     1     -11.892  13.922  67.714  1.00  0.00    -0.344 OA 
HETATM    2  C   UNL     1     -11.428  12.643  67.763  1.00  0.00    -0.322 C  
HETATM    3  C   UNL     1     -10.009  12.569  68.296  1.00  0.00    -0.229 C  
HETATM    4  O   UNL     1     -12.100  11.682  67.422  1.00  0.00    -0.605 OA 
ENDROOT
BRANCH   3   5
HETATM    5  O   UNL     1      -9.532  13.897  68.572  1.00  0.00    -0.208 OA 
BRANCH   5   6
HETATM    6  C   UNL     1      -8.183  14.073  68.100  1.00  0.00    -0.155 C  
BRANCH   6   7
HETATM    7  C   UNL     1      -7.292  12.990  68.734  1.00  0.00    -0.064 C  
BRANCH   7   8
HETATM    8  N   UNL     1      -6.344  12.347  67.809  1.00  0.00    -0.094 NA 
HETATM    9  C   UNL     1      -5.320  11.510  68.466  1.00  0.00    -0.042 C  
HETATM   10  C   UNL     1      -5.810  10.155  69.050  1.00  0.00    -0.037 C  
HETATM   11  N   UNL     1      -6.691   9.365  68.169  1.00  0.00    -0.059 NA 
HETATM   12  C   UNL     1      -7.648  10.192  67.434  1.00  0.00    -0.094 C  
HETATM   13  C   UNL     1      -7.053  11.489  66.838  1.00  0.00    -0.135 C  
BRANCH  11  14
HETATM   14  C   UNL     1      -7.228   8.133  68.817  1.00  0.00    -0.083 C  
BRANCH  14  15
HETATM   15  C   UNL     1      -7.208   6.854  67.938  1.00  0.00    -0.095 A  
HETATM   16  C   UNL     1      -7.384   6.930  66.548  1.00  0.00    -0.073 A  
HETATM   17  C   UNL     1      -6.945   5.578  68.483  1.00  0.00    -0.064 A  
HETATM   18  C   UNL     1      -7.286   5.785  65.740  1.00  0.00    -0.076 A  
HETATM   19  C   UNL     1      -7.012   4.547  66.311  1.00  0.00    -0.063 A  
HETATM   20  C   UNL     1      -6.844   4.441  67.685  1.00  0.00    -0.055 A  
ENDBRANCH  14  15
BRANCH  14  21
HETATM   21  C   UNL     1      -8.561   8.269  69.589  1.00  0.00    -0.129 A  
HETATM   22  C   UNL     1     -10.851   8.197  71.236  1.00  0.00    -0.237 A  
HETATM   23 CL   UNL     1     -12.201   8.035  72.287  1.00  0.00    -0.368 Cl 
HETATM   24  C   UNL     1     -10.880   7.599  69.983  1.00  0.00    -0.250 A  
HETATM   25  C   UNL     1      -8.586   8.938  70.829  1.00  0.00    -0.236 A  
HETATM   26  C   UNL     1      -9.753   7.661  69.158  1.00  0.00    -0.164 A  
HETATM   27  C   UNL     1      -9.724   8.902  71.646  1.00  0.00    -0.379 A  
ENDBRANCH  14  21
ENDBRANCH  11  14
ENDBRANCH   7   8
ENDBRANCH   6   7
ENDBRANCH   5   6
ENDBRANCH   3   5
TORSDOF 7
ENDMDL
MODEL      193
REMARK 921   NORMALIZED FREE ENERGY PREDICTED BY IDOCK:   -3.25 KCAL/MOL
REMARK 922        TOTAL FREE ENERGY PREDICTED BY IDOCK:   -5.62 KCAL/MOL
REMARK 923 INTER-LIGAND FREE ENERGY PREDICTED BY IDOCK:   -5.04 KCAL/MOL
REMARK 924 INTRA-LIGAND FREE ENERGY PREDICTED BY IDOCK:   -0.58 KCAL/MOL
REMARK 927      BINDING AFFINITY PREDICTED BY RF-SCORE:    0.00 PKD
ROOT
HETATM    1  O   UNL     1     -12.139  15.502  70.450  1.00  0.00    -0.340 OA 
HETATM    2  C   UNL     1     -12.906  14.552  71.050  1.00  0.00    -0.350 C  
HETATM    3  C   UNL     1     -12.497  13.147  70.645  1.00  0.00    -0.286 C  
HETATM    4  O   UNL     1     -13.807  14.823  71.830  1.00  0.00    -0.372 OA 
ENDROOT
BRANCH   3   5
HETATM    5  O   UNL     1     -11.418  13.218  69.698  1.00  0.00    -0.258 OA 
BRANCH   5   6
HETATM    6  C   UNL     1     -11.850  12.805  68.388  1.00  0.00    -0.310 C  
BRANCH   6   7
HETATM    7  C   UNL     1     -10.858  11.759  67.847  1.00  0.00    -0.211 C  
BRANCH   7   8
HETATM    8  N   UNL     1      -9.952  11.184  68.856  1.00  0.00    -0.197 NA 
HETATM    9  C   UNL     1      -9.953   9.708  68.909  1.00  0.00    -0.178 C  
HETATM   10  C   UNL     1      -9.251   8.977  67.730  1.00  0.00    -0.140 C  
HETATM   11  N   UNL     1      -7.936   9.517  67.340  1.00  0.00    -0.106 NA 
HETATM   12  C   UNL     1      -7.888  10.978  67.378  1.00  0.00    -0.118 C  
HETATM   13  C   UNL     1      -8.558  11.612  68.619  1.00  0.00    -0.086 C  
BRANCH  11  14
HETATM   14  C   UNL     1      -7.358   8.859  66.132  1.00  0.00    -0.090 C  
BRANCH  14  15
HETATM   15  C   UNL     1      -7.794   9.460  64.770  1.00  0.00    -0.118 A  
HETATM   16  C   UNL     1      -9.136   9.786  64.521  1.00  0.00    -0.297 A  
HETATM   17  C   UNL     1      -6.860   9.770  63.757  1.00  0.00    -0.119 A  
HETATM   18  C   UNL     1      -9.522  10.406  63.321  1.00  0.00    -0.361 A  
HETATM   19  C   UNL     1      -8.572  10.708  62.352  1.00  0.00    -0.294 A  
HETATM   20  C   UNL     1      -7.238  10.388  62.567  1.00  0.00    -0.152 A  
ENDBRANCH  14  15
BRANCH  14  21
HETATM   21  C   UNL     1      -7.374   7.312  66.099  1.00  0.00    -0.075 A  
HETATM   22  C   UNL     1      -7.778   4.524  66.231  1.00  0.00    -0.094 A  
HETATM   23 CL   UNL     1      -8.127   2.848  66.396  1.00  0.00    -0.081 Cl 
HETATM   24  C   UNL     1      -6.957   5.149  67.160  1.00  0.00    -0.064 A  
HETATM   25  C   UNL     1      -8.135   6.642  65.122  1.00  0.00    -0.133 A  
HETATM   26  C   UNL     1      -6.736   6.526  67.075  1.00  0.00    -0.060 A  
HETATM   27  C   UNL     1      -8.334   5.256  65.187  1.00  0.00    -0.145 A  
ENDBRANCH  14  21
ENDBRANCH  11  14
ENDBRANCH   7   8
ENDBRANCH   6   7
ENDBRANCH   5   6
ENDBRANCH   3   5
TORSDOF 7
ENDMDL
MODEL      194
REMARK 921   NORMALIZED FREE ENERGY PREDICTED BY IDOCK:   -3.23 KCAL/MOL
REMARK 922        TOTAL FREE ENERGY PREDICTED BY IDOCK:   -5.59 KCAL/MOL
REMARK 923 INTER-LIGAND FREE ENERGY PREDICTED BY IDOCK:   -4.69 KCAL/MOL
REMARK 924 INTRA-LIGAND FREE ENERGY PREDICTED BY IDOCK:   -0.91 KCAL/MOL
REMARK 927      BINDING AFFINITY PREDICTED BY RF-SCORE:    0.00 PKD
ROOT
HETATM    1  O   UNL     1     -10.386   7.913  66.435  1.00  0.00    -0.173 OA 
HETATM    2  C   UNL     1     -10.541   6.885  67.313  1.00  0.00    -0.322 C  
HETATM    3  C   UNL     1     -10.116   7.264  68.720  1.00  0.00    -0.176 C  
HETATM    4  O   UNL     1     -10.984   5.794  66.984  1.00  0.00    -0.274 OA 
ENDROOT
BRANCH   3   5
HETATM    5  O   UNL     1      -9.628   8.616  68.723  1.00  0.00    -0.153 OA 
BRANCH   5   6
HETATM    6  C   UNL     1      -8.263   8.674  69.176  1.00  0.00    -0.117 C  
BRANCH   6   7
HETATM    7  C   UNL     1      -7.400   9.310  68.070  1.00  0.00    -0.080 C  
BRANCH   7   8
HETATM    8  N   UNL     1      -6.413  10.294  68.544  1.00  0.00    -0.052 NA 
HETATM    9  C   UNL     1      -5.943  11.236  67.508  1.00  0.00    -0.055 C  
HETATM   10  C   UNL     1      -6.955  12.330  67.063  1.00  0.00    -0.033 C  
HETATM   11  N   UNL     1      -7.669  13.016  68.156  1.00  0.00    -0.131 NA 
HETATM   12  C   UNL     1      -8.054  12.112  69.239  1.00  0.00     0.572 C  
HETATM   13  C   UNL     1      -6.960  11.101  69.653  1.00  0.00    -0.088 C  
BRANCH  11  14
HETATM   14  C   UNL     1      -8.710  13.971  67.676  1.00  0.00    -0.189 C  
BRANCH  14  15
HETATM   15  C   UNL     1      -8.185  15.357  67.216  1.00  0.00    -0.222 A  
HETATM   16  C   UNL     1      -6.895  15.791  67.558  1.00  0.00    -0.219 A  
HETATM   17  C   UNL     1      -8.946  16.204  66.381  1.00  0.00    -0.353 A  
HETATM   18  C   UNL     1      -6.386  17.008  67.076  1.00  0.00    -0.231 A  
HETATM   19  C   UNL     1      -7.161  17.809  66.244  1.00  0.00    -0.329 A  
HETATM   20  C   UNL     1      -8.444  17.410  65.897  1.00  0.00     0.015 A  
ENDBRANCH  14  15
BRANCH  14  21
HETATM   21  C   UNL     1      -9.988  14.108  68.538  1.00  0.00    -0.235 A  
HETATM   22  C   UNL     1     -12.103  14.145  70.404  1.00  0.00    -0.346 A  
HETATM   23 CL   UNL     1     -13.323  14.077  71.614  1.00  0.00    -0.423 Cl 
HETATM   24  C   UNL     1     -12.108  13.218  69.370  1.00  0.00    -0.301 A  
HETATM   25  C   UNL     1     -10.050  15.090  69.546  1.00  0.00    -0.176 A  
HETATM   26  C   UNL     1     -11.073  13.220  68.431  1.00  0.00    -0.299 A  
HETATM   27  C   UNL     1     -11.102  15.108  70.472  1.00  0.00    -0.294 A  
ENDBRANCH  14  21
ENDBRANCH  11  14
ENDBRANCH   7   8
ENDBRANCH   6   7
ENDBRANCH   5   6
ENDBRANCH   3   5
TORSDOF 7
ENDMDL
MODEL      195
REMARK 921   NORMALIZED FREE ENERGY PREDICTED BY IDOCK:   -3.23 KCAL/MOL
REMARK 922        TOTAL FREE ENERGY PREDICTED BY IDOCK:   -5.59 KCAL/MOL
REMARK 923 INTER-LIGAND FREE ENERGY PREDICTED BY IDOCK:   -4.76 KCAL/MOL
REMARK 924 INTRA-LIGAND FREE ENERGY PREDICTED BY IDOCK:   -0.84 KCAL/MOL
REMARK 927      BINDING AFFINITY PREDICTED BY RF-SCORE:    0.00 PKD
ROOT
HETATM    1  O   UNL     1     -11.381   6.764  66.968  1.00  0.00    -0.337 OA 
HETATM    2  C   UNL     1     -10.287   7.570  67.040  1.00  0.00    -0.324 C  
HETATM    3  C   UNL     1      -9.022   6.860  66.593  1.00  0.00    -0.145 C  
HETATM    4  O   UNL     1     -10.345   8.731  67.416  1.00  0.00    -0.240 OA 
ENDROOT
BRANCH   3   5
HETATM    5  O   UNL     1      -9.335   5.501  66.245  1.00  0.00    -0.149 OA 
BRANCH   5   6
HETATM    6  C   UNL     1      -8.139   4.707  66.128  1.00  0.00    -0.103 C  
BRANCH   6   7
HETATM    7  C   UNL     1      -8.019   3.806  67.370  1.00  0.00    -0.090 C  
BRANCH   7   8
HETATM    8  N   UNL     1      -6.743   3.915  68.095  1.00  0.00    -0.046 NA 
HETATM    9  C   UNL     1      -6.430   5.273  68.583  1.00  0.00    -0.040 C  
HETATM   10  C   UNL     1      -7.265   5.777  69.795  1.00  0.00    -0.069 C  
HETATM   11  N   UNL     1      -7.427   4.813  70.899  1.00  0.00    -0.062 NA 
HETATM   12  C   UNL     1      -7.639   3.444  70.432  1.00  0.00    -0.044 C  
HETATM   13  C   UNL     1      -6.720   3.013  69.265  1.00  0.00    -0.034 C  
BRANCH  11  14
HETATM   14  C   UNL     1      -8.330   5.299  71.983  1.00  0.00    -0.122 C  
BRANCH  14  15
HETATM   15  C   UNL     1      -8.954   4.195  72.877  1.00  0.00    -0.115 A  
HETATM   16  C   UNL     1     -10.311   3.858  72.769  1.00  0.00    -0.237 A  
HETATM   17  C   UNL     1      -8.176   3.439  73.781  1.00  0.00    -0.075 A  
HETATM   18  C   UNL     1     -10.861   2.805  73.518  1.00  0.00    -0.299 A  
HETATM   19  C   UNL     1     -10.060   2.073  74.388  1.00  0.00    -0.154 A  
HETATM   20  C   UNL     1      -8.716   2.391  74.524  1.00  0.00    -0.074 A  
ENDBRANCH  14  15
BRANCH  14  21
HETATM   21  C   UNL     1      -9.376   6.373  71.598  1.00  0.00    -0.147 A  
HETATM   22  C   UNL     1     -11.478   8.222  71.256  1.00  0.00    -0.274 A  
HETATM   23 CL   UNL     1     -12.825   9.285  71.147  1.00  0.00    -0.320 Cl 
HETATM   24  C   UNL     1     -11.499   7.015  70.569  1.00  0.00    -0.363 A  
HETATM   25  C   UNL     1      -9.339   7.637  72.218  1.00  0.00    -0.199 A  
HETATM   26  C   UNL     1     -10.442   6.113  70.719  1.00  0.00    -0.285 A  
HETATM   27  C   UNL     1     -10.384   8.556  72.046  1.00  0.00    -0.408 A  
ENDBRANCH  14  21
ENDBRANCH  11  14
ENDBRANCH   7   8
ENDBRANCH   6   7
ENDBRANCH   5   6
ENDBRANCH   3   5
TORSDOF 7
ENDMDL
MODEL      196
REMARK 921   NORMALIZED FREE ENERGY PREDICTED BY IDOCK:   -3.18 KCAL/MOL
REMARK 922        TOTAL FREE ENERGY PREDICTED BY IDOCK:   -5.51 KCAL/MOL
REMARK 923 INTER-LIGAND FREE ENERGY PREDICTED BY IDOCK:   -5.92 KCAL/MOL
REMARK 924 INTRA-LIGAND FREE ENERGY PREDICTED BY IDOCK:    0.41 KCAL/MOL
REMARK 927      BINDING AFFINITY PREDICTED BY RF-SCORE:    0.00 PKD
ROOT
HETATM    1  O   UNL     1     -11.644  11.211  70.095  1.00  0.00    -0.303 OA 
HETATM    2  C   UNL     1     -11.487  10.660  68.861  1.00  0.00    -0.265 C  
HETATM    3  C   UNL     1     -10.480   9.524  68.865  1.00  0.00    -0.216 C  
HETATM    4  O   UNL     1     -12.107  11.045  67.881  1.00  0.00    -0.600 OA 
ENDROOT
BRANCH   3   5
HETATM    5  O   UNL     1      -9.939   9.370  70.187  1.00  0.00    -0.197 OA 
BRANCH   5   6
HETATM    6  C   UNL     1      -8.506   9.515  70.182  1.00  0.00    -0.205 C  
BRANCH   6   7
HETATM    7  C   UNL     1      -7.986   9.239  68.759  1.00  0.00    -0.099 C  
BRANCH   7   8
HETATM    8  N   UNL     1      -6.791  10.008  68.376  1.00  0.00    -0.062 NA 
HETATM    9  C   UNL     1      -6.707  10.331  66.937  1.00  0.00    -0.081 C  
HETATM   10  C   UNL     1      -7.687  11.421  66.418  1.00  0.00    -0.051 C  
HETATM   11  N   UNL     1      -7.791  12.632  67.253  1.00  0.00    -0.172 NA 
HETATM   12  C   UNL     1      -7.775  12.337  68.686  1.00  0.00    -0.076 C  
HETATM   13  C   UNL     1      -6.726  11.286  69.115  1.00  0.00    -0.099 C  
BRANCH  11  14
HETATM   14  C   UNL     1      -8.827  13.594  66.779  1.00  0.00    -0.133 C  
BRANCH  14  15
HETATM   15  C   UNL     1      -9.314  14.625  67.831  1.00  0.00    -0.198 A  
HETATM   16  C   UNL     1      -8.948  15.976  67.742  1.00  0.00    -0.188 A  
HETATM   17  C   UNL     1     -10.196  14.267  68.874  1.00  0.00    -0.203 A  
HETATM   18  C   UNL     1      -9.453  16.927  68.644  1.00  0.00    -0.268 A  
HETATM   19  C   UNL     1     -10.330  16.539  69.651  1.00  0.00    -0.221 A  
HETATM   20  C   UNL     1     -10.701  15.207  69.770  1.00  0.00    -0.288 A  
ENDBRANCH  14  15
BRANCH  14  21
HETATM   21  C   UNL     1     -10.009  13.011  65.968  1.00  0.00    -0.277 A  
HETATM   22  C   UNL     1     -12.010  12.173  64.165  1.00  0.00    -0.408 A  
HETATM   23 CL   UNL     1     -13.186  11.758  62.982  1.00  0.00     0.177 Cl 
HETATM   24  C   UNL     1     -12.279  13.184  65.077  1.00  0.00    -0.488 A  
HETATM   25  C   UNL     1      -9.789  11.932  65.089  1.00  0.00    -0.243 A  
HETATM   26  C   UNL     1     -11.295  13.578  65.988  1.00  0.00    -0.327 A  
HETATM   27  C   UNL     1     -10.784  11.516  64.195  1.00  0.00    -0.428 A  
ENDBRANCH  14  21
ENDBRANCH  11  14
ENDBRANCH   7   8
ENDBRANCH   6   7
ENDBRANCH   5   6
ENDBRANCH   3   5
TORSDOF 7
ENDMDL
MODEL      197
REMARK 921   NORMALIZED FREE ENERGY PREDICTED BY IDOCK:   -3.15 KCAL/MOL
REMARK 922        TOTAL FREE ENERGY PREDICTED BY IDOCK:   -5.48 KCAL/MOL
REMARK 923 INTER-LIGAND FREE ENERGY PREDICTED BY IDOCK:   -5.82 KCAL/MOL
REMARK 924 INTRA-LIGAND FREE ENERGY PREDICTED BY IDOCK:    0.34 KCAL/MOL
REMARK 927      BINDING AFFINITY PREDICTED BY RF-SCORE:    0.00 PKD
ROOT
HETATM    1  O   UNL     1     -12.238  14.745  72.944  1.00  0.00    -0.292 OA 
HETATM    2  C   UNL     1     -13.427  14.635  72.291  1.00  0.00    -0.408 C  
HETATM    3  C   UNL     1     -13.420  15.363  70.959  1.00  0.00    -0.444 C  
HETATM    4  O   UNL     1     -14.374  14.008  72.742  1.00  0.00    -0.506 OA 
ENDROOT
BRANCH   3   5
HETATM    5  O   UNL     1     -12.146  16.004  70.773  1.00  0.00    -0.380 OA 
BRANCH   5   6
HETATM    6  C   UNL     1     -11.276  15.201  69.954  1.00  0.00    -0.283 C  
BRANCH   6   7
HETATM    7  C   UNL     1     -11.850  15.146  68.527  1.00  0.00    -0.281 C  
BRANCH   7   8
HETATM    8  N   UNL     1     -12.526  13.886  68.179  1.00  0.00     0.064 NA 
HETATM    9  C   UNL     1     -12.399  13.495  66.760  1.00  0.00    -0.274 C  
HETATM   10  C   UNL     1     -11.003  12.976  66.312  1.00  0.00    -0.284 C  
HETATM   11  N   UNL     1     -10.369  11.999  67.217  1.00  0.00    -0.210 NA 
HETATM   12  C   UNL     1     -10.571  12.318  68.630  1.00  0.00    -0.224 C  
HETATM   13  C   UNL     1     -12.007  12.765  68.989  1.00  0.00    -0.242 C  
BRANCH  11  14
HETATM   14  C   UNL     1      -8.986  11.621  66.806  1.00  0.00    -0.189 C  
BRANCH  14  15
HETATM   15  C   UNL     1      -8.853  11.012  65.385  1.00  0.00    -0.157 A  
HETATM   16  C   UNL     1      -7.726  10.259  65.024  1.00  0.00    -0.129 A  
HETATM   17  C   UNL     1      -9.881  11.127  64.424  1.00  0.00    -0.334 A  
HETATM   18  C   UNL     1      -7.638   9.638  63.767  1.00  0.00    -0.126 A  
HETATM   19  C   UNL     1      -8.678   9.763  62.852  1.00  0.00    -0.229 A  
HETATM   20  C   UNL     1      -9.801  10.510  63.178  1.00  0.00    -0.295 A  
ENDBRANCH  14  15
BRANCH  14  21
HETATM   21  C   UNL     1      -8.134  10.842  67.837  1.00  0.00    -0.112 A  
HETATM   22  C   UNL     1      -6.830   9.601  70.008  1.00  0.00    -0.085 A  
HETATM   23 CL   UNL     1      -6.102   8.928  71.413  1.00  0.00    -0.055 Cl 
HETATM   24  C   UNL     1      -6.271  10.725  69.416  1.00  0.00    -0.059 A  
HETATM   25  C   UNL     1      -8.637   9.653  68.403  1.00  0.00    -0.119 A  
HETATM   26  C   UNL     1      -6.905  11.321  68.322  1.00  0.00    -0.064 A  
HETATM   27  C   UNL     1      -7.987   9.037  69.481  1.00  0.00    -0.099 A  
ENDBRANCH  14  21
ENDBRANCH  11  14
ENDBRANCH   7   8
ENDBRANCH   6   7
ENDBRANCH   5   6
ENDBRANCH   3   5
TORSDOF 7
ENDMDL
MODEL      198
REMARK 921   NORMALIZED FREE ENERGY PREDICTED BY IDOCK:   -3.13 KCAL/MOL
REMARK 922        TOTAL FREE ENERGY PREDICTED BY IDOCK:   -5.44 KCAL/MOL
REMARK 923 INTER-LIGAND FREE ENERGY PREDICTED BY IDOCK:   -5.53 KCAL/MOL
REMARK 924 INTRA-LIGAND FREE ENERGY PREDICTED BY IDOCK:    0.09 KCAL/MOL
REMARK 927      BINDING AFFINITY PREDICTED BY RF-SCORE:    0.00 PKD
ROOT
HETATM    1  O   UNL     1      -5.829   9.371  72.081  1.00  0.00    -0.198 OA 
HETATM    2  C   UNL     1      -6.881   8.513  72.179  1.00  0.00    -0.080 C  
HETATM    3  C   UNL     1      -6.828   7.419  71.128  1.00  0.00    -0.050 C  
HETATM    4  O   UNL     1      -7.749   8.626  73.032  1.00  0.00    -0.361 OA 
ENDROOT
BRANCH   3   5
HETATM    5  O   UNL     1      -5.680   7.620  70.288  1.00  0.00    -0.023 OA 
BRANCH   5   6
HETATM    6  C   UNL     1      -6.034   7.531  68.895  1.00  0.00    -0.030 C  
BRANCH   6   7
HETATM    7  C   UNL     1      -7.557   7.712  68.759  1.00  0.00    -0.102 C  
BRANCH   7   8
HETATM    8  N   UNL     1      -8.089   7.493  67.404  1.00  0.00    -0.115 NA 
HETATM    9  C   UNL     1      -9.562   7.537  67.311  1.00  0.00    -0.156 C  
HETATM   10  C   UNL     1     -10.218   8.942  67.439  1.00  0.00    -0.249 C  
HETATM   11  N   UNL     1      -9.579  10.015  66.655  1.00  0.00    -0.178 NA 
HETATM   12  C   UNL     1      -8.119   9.927  66.655  1.00  0.00    -0.117 C  
HETATM   13  C   UNL     1      -7.560   8.498  66.460  1.00  0.00    -0.088 C  
BRANCH  11  14
HETATM   14  C   UNL     1     -10.169  11.362  66.901  1.00  0.00    -0.219 C  
BRANCH  14  15
HETATM   15  C   UNL     1     -10.871  12.018  65.683  1.00  0.00    -0.325 A  
HETATM   16  C   UNL     1     -10.364  11.857  64.385  1.00  0.00    -0.341 A  
HETATM   17  C   UNL     1     -12.079  12.737  65.815  1.00  0.00    -0.505 A  
HETATM   18  C   UNL     1     -11.041  12.379  63.270  1.00  0.00    -0.347 A  
HETATM   19  C   UNL     1     -12.236  13.071  63.439  1.00  0.00    -0.552 A  
HETATM   20  C   UNL     1     -12.756  13.254  64.713  1.00  0.00    -0.338 A  
ENDBRANCH  14  15
BRANCH  14  21
HETATM   21  C   UNL     1      -9.294  12.384  67.667  1.00  0.00    -0.188 A  
HETATM   22  C   UNL     1      -7.664  14.446  68.691  1.00  0.00    -0.138 A  
HETATM   23 CL   UNL     1      -6.647  15.740  69.187  1.00  0.00    -0.138 Cl 
HETATM   24  C   UNL     1      -7.106  13.215  68.374  1.00  0.00    -0.107 A  
HETATM   25  C   UNL     1      -9.848  13.613  68.074  1.00  0.00    -0.244 A  
HETATM   26  C   UNL     1      -7.920  12.187  67.893  1.00  0.00    -0.150 A  
HETATM   27  C   UNL     1      -9.038  14.636  68.584  1.00  0.00    -0.189 A  
ENDBRANCH  14  21
ENDBRANCH  11  14
ENDBRANCH   7   8
ENDBRANCH   6   7
ENDBRANCH   5   6
ENDBRANCH   3   5
TORSDOF 7
ENDMDL
MODEL      199
REMARK 921   NORMALIZED FREE ENERGY PREDICTED BY IDOCK:   -3.04 KCAL/MOL
REMARK 922        TOTAL FREE ENERGY PREDICTED BY IDOCK:   -5.32 KCAL/MOL
REMARK 923 INTER-LIGAND FREE ENERGY PREDICTED BY IDOCK:   -4.49 KCAL/MOL
REMARK 924 INTRA-LIGAND FREE ENERGY PREDICTED BY IDOCK:   -0.83 KCAL/MOL
REMARK 927      BINDING AFFINITY PREDICTED BY RF-SCORE:    0.00 PKD
ROOT
HETATM    1  O   UNL     1      -7.756   7.705  62.974  1.00  0.00    -0.112 OA 
HETATM    2  C   UNL     1      -7.061   8.860  62.787  1.00  0.00    -0.095 C  
HETATM    3  C   UNL     1      -7.928  10.089  62.992  1.00  0.00    -0.142 C  
HETATM    4  O   UNL     1      -5.874   8.878  62.500  1.00  0.00    -0.089 OA 
ENDROOT
BRANCH   3   5
HETATM    5  O   UNL     1      -9.272   9.680  63.297  1.00  0.00    -0.244 OA 
BRANCH   5   6
HETATM    6  C   UNL     1      -9.726  10.270  64.529  1.00  0.00    -0.329 C  
BRANCH   6   7
HETATM    7  C   UNL     1      -8.791   9.822  65.667  1.00  0.00    -0.154 C  
BRANCH   7   8
HETATM    8  N   UNL     1      -9.227  10.212  67.018  1.00  0.00    -0.145 NA 
HETATM    9  C   UNL     1     -10.624   9.855  67.337  1.00  0.00    -0.277 C  
HETATM   10  C   UNL     1     -10.911   8.346  67.581  1.00  0.00    -0.008 C  
HETATM   11  N   UNL     1      -9.947   7.650  68.455  1.00  0.00    -0.171 NA 
HETATM   12  C   UNL     1      -8.565   8.066  68.220  1.00  0.00    -0.130 C  
HETATM   13  C   UNL     1      -8.371   9.591  68.050  1.00  0.00    -0.118 C  
BRANCH  11  14
HETATM   14  C   UNL     1     -10.196   6.184  68.564  1.00  0.00    -0.185 C  
BRANCH  14  15
HETATM   15  C   UNL     1     -10.147   5.603  70.002  1.00  0.00    -0.295 A  
HETATM   16  C   UNL     1      -9.987   4.226  70.219  1.00  0.00    -0.203 A  
HETATM   17  C   UNL     1     -10.190   6.432  71.144  1.00  0.00    -0.224 A  
HETATM   18  C   UNL     1      -9.861   3.706  71.518  1.00  0.00    -0.227 A  
HETATM   19  C   UNL     1      -9.893   4.555  72.618  1.00  0.00    -0.201 A  
HETATM   20  C   UNL     1     -10.061   5.920  72.433  1.00  0.00    -0.203 A  
ENDBRANCH  14  15
BRANCH  14  21
HETATM   21  C   UNL     1      -9.458   5.268  67.558  1.00  0.00    -0.136 A  
HETATM   22  C   UNL     1      -8.304   3.279  65.925  1.00  0.00    -0.103 A  
HETATM   23 CL   UNL     1      -7.645   1.976  65.018  1.00  0.00    -0.066 Cl 
HETATM   24  C   UNL     1      -7.569   3.834  66.964  1.00  0.00    -0.080 A  
HETATM   25  C   UNL     1     -10.151   4.749  66.447  1.00  0.00    -0.291 A  
HETATM   26  C   UNL     1      -8.134   4.839  67.754  1.00  0.00    -0.093 A  
HETATM   27  C   UNL     1      -9.576   3.762  65.635  1.00  0.00    -0.166 A  
ENDBRANCH  14  21
ENDBRANCH  11  14
ENDBRANCH   7   8
ENDBRANCH   6   7
ENDBRANCH   5   6
ENDBRANCH   3   5
TORSDOF 7
ENDMDL
MODEL      200
REMARK 921   NORMALIZED FREE ENERGY PREDICTED BY IDOCK:   -3.03 KCAL/MOL
REMARK 922        TOTAL FREE ENERGY PREDICTED BY IDOCK:   -5.31 KCAL/MOL
REMARK 923 INTER-LIGAND FREE ENERGY PREDICTED BY IDOCK:   -5.13 KCAL/MOL
REMARK 924 INTRA-LIGAND FREE ENERGY PREDICTED BY IDOCK:   -0.18 KCAL/MOL
REMARK 927      BINDING AFFINITY PREDICTED BY RF-SCORE:    0.00 PKD
ROOT
HETATM    1  O   UNL     1     -10.462   9.883  65.991  1.00  0.00    -0.170 OA 
HETATM    2  C   UNL     1      -9.357  10.672  65.903  1.00  0.00    -0.190 C  
HETATM    3  C   UNL     1      -8.074   9.861  65.894  1.00  0.00    -0.121 C  
HETATM    4  O   UNL     1      -9.418  11.890  65.831  1.00  0.00    -0.232 OA 
ENDROOT
BRANCH   3   5
HETATM    5  O   UNL     1      -8.391   8.464  66.017  1.00  0.00    -0.112 OA 
BRANCH   5   6
HETATM    6  C   UNL     1      -7.251   7.712  66.474  1.00  0.00    -0.082 C  
BRANCH   6   7
HETATM    7  C   UNL     1      -7.710   6.736  67.573  1.00  0.00    -0.110 C  
BRANCH   7   8
HETATM    8  N   UNL     1      -6.670   6.362  68.545  1.00  0.00    -0.065 NA 
HETATM    9  C   UNL     1      -6.576   7.258  69.715  1.00  0.00    -0.040 C  
HETATM   10  C   UNL     1      -7.721   7.147  70.761  1.00  0.00    -0.094 C  
HETATM   11  N   UNL     1      -8.101   5.774  71.142  1.00  0.00    -0.115 NA 
HETATM   12  C   UNL     1      -8.103   4.850  70.009  1.00  0.00    -0.073 C  
HETATM   13  C   UNL     1      -6.892   4.995  69.058  1.00  0.00    -0.051 C  
BRANCH  11  14
HETATM   14  C   UNL     1      -9.279   5.717  72.056  1.00  0.00    -0.144 C  
BRANCH  14  15
HETATM   15  C   UNL     1      -9.792   4.292  72.396  1.00  0.00    -0.217 A  
HETATM   16  C   UNL     1      -9.662   3.240  71.478  1.00  0.00    -0.233 A  
HETATM   17  C   UNL     1     -10.342   3.978  73.658  1.00  0.00    -0.237 A  
HETATM   18  C   UNL     1     -10.050   1.932  71.812  1.00  0.00    -0.181 A  
HETATM   19  C   UNL     1     -10.575   1.658  73.070  1.00  0.00    -0.223 A  
HETATM   20  C   UNL     1     -10.725   2.682  73.995  1.00  0.00    -0.262 A  
ENDBRANCH  14  15
BRANCH  14  21
HETATM   21  C   UNL     1     -10.449   6.683  71.756  1.00  0.00    -0.233 A  
HETATM   22  C   UNL     1     -12.772   8.270  71.545  1.00  0.00    -0.305 A  
HETATM   23 CL   UNL     1     -14.245   9.155  71.507  1.00  0.00    -0.268 Cl 
HETATM   24  C   UNL     1     -12.616   7.159  70.727  1.00  0.00    -0.182 A  
HETATM   25  C   UNL     1     -10.595   7.861  72.515  1.00  0.00    -0.378 A  
HETATM   26  C   UNL     1     -11.452   6.391  70.814  1.00  0.00    -0.415 A  
HETATM   27  C   UNL     1     -11.749   8.649  72.408  1.00  0.00    -0.393 A  
ENDBRANCH  14  21
ENDBRANCH  11  14
ENDBRANCH   7   8
ENDBRANCH   6   7
ENDBRANCH   5   6
ENDBRANCH   3   5
TORSDOF 7
ENDMDL
MODEL      201
REMARK 921   NORMALIZED FREE ENERGY PREDICTED BY IDOCK:   -2.91 KCAL/MOL
REMARK 922        TOTAL FREE ENERGY PREDICTED BY IDOCK:   -5.13 KCAL/MOL
REMARK 923 INTER-LIGAND FREE ENERGY PREDICTED BY IDOCK:   -4.91 KCAL/MOL
REMARK 924 INTRA-LIGAND FREE ENERGY PREDICTED BY IDOCK:   -0.22 KCAL/MOL
REMARK 927      BINDING AFFINITY PREDICTED BY RF-SCORE:    0.00 PKD
ROOT
HETATM    1  O   UNL     1      -9.444   8.623  72.455  1.00  0.00    -0.284 OA 
HETATM    2  C   UNL     1      -9.185   7.428  73.051  1.00  0.00    -0.165 C  
HETATM    3  C   UNL     1      -7.696   7.162  73.178  1.00  0.00    -0.096 C  
HETATM    4  O   UNL     1     -10.067   6.678  73.441  1.00  0.00    -0.186 OA 
ENDROOT
BRANCH   3   5
HETATM    5  O   UNL     1      -6.965   8.252  72.590  1.00  0.00    -0.091 OA 
BRANCH   5   6
HETATM    6  C   UNL     1      -6.181   7.806  71.468  1.00  0.00    -0.035 C  
BRANCH   6   7
HETATM    7  C   UNL     1      -5.614   9.038  70.739  1.00  0.00    -0.034 C  
BRANCH   7   8
HETATM    8  N   UNL     1      -5.162   8.788  69.360  1.00  0.00    -0.034 NA 
HETATM    9  C   UNL     1      -5.811   7.637  68.702  1.00  0.00    -0.027 C  
HETATM   10  C   UNL     1      -7.294   7.833  68.277  1.00  0.00    -0.102 C  
HETATM   11  N   UNL     1      -7.595   9.105  67.594  1.00  0.00    -0.085 NA 
HETATM   12  C   UNL     1      -6.882  10.243  68.172  1.00  0.00    -0.066 C  
HETATM   13  C   UNL     1      -5.397   9.970  68.505  1.00  0.00    -0.039 C  
BRANCH  11  14
HETATM   14  C   UNL     1      -9.047   9.298  67.312  1.00  0.00    -0.126 C  
BRANCH  14  15
HETATM   15  C   UNL     1      -9.378  10.087  66.018  1.00  0.00    -0.224 A  
HETATM   16  C   UNL     1      -8.740   9.785  64.805  1.00  0.00    -0.216 A  
HETATM   17  C   UNL     1     -10.375  11.085  65.986  1.00  0.00    -0.311 A  
HETATM   18  C   UNL     1      -9.094  10.440  63.615  1.00  0.00    -0.277 A  
HETATM   19  C   UNL     1     -10.092  11.409  63.620  1.00  0.00    -0.421 A  
HETATM   20  C   UNL     1     -10.733  11.736  64.807  1.00  0.00    -0.355 A  
ENDBRANCH  14  15
BRANCH  14  21
HETATM   21  C   UNL     1      -9.939   9.749  68.493  1.00  0.00    -0.177 A  
HETATM   22  C   UNL     1     -11.891  10.507  70.383  1.00  0.00    -0.340 A  
HETATM   23 CL   UNL     1     -13.169  10.972  71.434  1.00  0.00    -0.402 Cl 
HETATM   24  C   UNL     1     -11.182  11.480  69.691  1.00  0.00    -0.276 A  
HETATM   25  C   UNL     1     -10.613   8.784  69.268  1.00  0.00    -0.210 A  
HETATM   26  C   UNL     1     -10.197  11.102  68.776  1.00  0.00    -0.219 A  
HETATM   27  C   UNL     1     -11.582   9.163  70.208  1.00  0.00    -0.116 A  
ENDBRANCH  14  21
ENDBRANCH  11  14
ENDBRANCH   7   8
ENDBRANCH   6   7
ENDBRANCH   5   6
ENDBRANCH   3   5
TORSDOF 7
ENDMDL
MODEL      202
REMARK 921   NORMALIZED FREE ENERGY PREDICTED BY IDOCK:   -2.74 KCAL/MOL
REMARK 922        TOTAL FREE ENERGY PREDICTED BY IDOCK:   -4.90 KCAL/MOL
REMARK 923 INTER-LIGAND FREE ENERGY PREDICTED BY IDOCK:   -4.88 KCAL/MOL
REMARK 924 INTRA-LIGAND FREE ENERGY PREDICTED BY IDOCK:   -0.02 KCAL/MOL
REMARK 927      BINDING AFFINITY PREDICTED BY RF-SCORE:    0.00 PKD
ROOT
HETATM    1  O   UNL     1     -12.383  12.900  65.592  1.00  0.00    -0.459 OA 
HETATM    2  C   UNL     1     -11.429  13.317  64.716  1.00  0.00    -0.327 C  
HETATM    3  C   UNL     1     -10.057  13.403  65.360  1.00  0.00    -0.254 C  
HETATM    4  O   UNL     1     -11.672  13.576  63.547  1.00  0.00    -0.333 OA 
ENDROOT
BRANCH   3   5
HETATM    5  O   UNL     1     -10.160  13.046  66.749  1.00  0.00    -0.238 OA 
BRANCH   5   6
HETATM    6  C   UNL     1      -8.880  13.139  67.404  1.00  0.00    -0.204 C  
BRANCH   6   7
HETATM    7  C   UNL     1      -8.006  11.954  66.952  1.00  0.00    -0.132 C  
BRANCH   7   8
HETATM    8  N   UNL     1      -7.021  11.497  67.946  1.00  0.00    -0.071 NA 
HETATM    9  C   UNL     1      -7.564  11.315  69.307  1.00  0.00    -0.019 C  
HETATM   10  C   UNL     1      -8.487  10.081  69.520  1.00  0.00    -0.176 C  
HETATM   11  N   UNL     1      -7.998   8.815  68.944  1.00  0.00    -0.103 NA 
HETATM   12  C   UNL     1      -7.367   8.993  67.636  1.00  0.00    -0.084 C  
HETATM   13  C   UNL     1      -6.419  10.210  67.539  1.00  0.00    -0.066 C  
BRANCH  11  14
HETATM   14  C   UNL     1      -8.970   7.690  69.071  1.00  0.00    -0.137 C  
BRANCH  14  15
HETATM   15  C   UNL     1      -9.907   7.755  70.306  1.00  0.00    -0.184 A  
HETATM   16  C   UNL     1      -9.874   6.756  71.291  1.00  0.00    -0.186 A  
HETATM   17  C   UNL     1     -10.777   8.845  70.527  1.00  0.00    -0.271 A  
HETATM   18  C   UNL     1     -10.661   6.852  72.450  1.00  0.00    -0.257 A  
HETATM   19  C   UNL     1     -11.496   7.948  72.640  1.00  0.00    -0.454 A  
HETATM   20  C   UNL     1     -11.558   8.945  71.677  1.00  0.00    -0.408 A  
ENDBRANCH  14  15
BRANCH  14  21
HETATM   21  C   UNL     1      -8.423   6.260  68.850  1.00  0.00    -0.120 A  
HETATM   22  C   UNL     1      -7.100   3.841  68.252  1.00  0.00    -0.051 A  
HETATM   23 CL   UNL     1      -6.213   2.438  67.806  1.00  0.00    -0.024 Cl 
HETATM   24  C   UNL     1      -8.158   4.266  67.460  1.00  0.00    -0.099 A  
HETATM   25  C   UNL     1      -7.401   5.765  69.684  1.00  0.00    -0.071 A  
HETATM   26  C   UNL     1      -8.830   5.450  67.775  1.00  0.00    -0.105 A  
HETATM   27  C   UNL     1      -6.746   4.563  69.387  1.00  0.00    -0.045 A  
ENDBRANCH  14  21
ENDBRANCH  11  14
ENDBRANCH   7   8
ENDBRANCH   6   7
ENDBRANCH   5   6
ENDBRANCH   3   5
TORSDOF 7
ENDMDL
MODEL      203
REMARK 921   NORMALIZED FREE ENERGY PREDICTED BY IDOCK:   -2.72 KCAL/MOL
REMARK 922        TOTAL FREE ENERGY PREDICTED BY IDOCK:   -4.87 KCAL/MOL
REMARK 923 INTER-LIGAND FREE ENERGY PREDICTED BY IDOCK:   -5.20 KCAL/MOL
REMARK 924 INTRA-LIGAND FREE ENERGY PREDICTED BY IDOCK:    0.33 KCAL/MOL
REMARK 927      BINDING AFFINITY PREDICTED BY RF-SCORE:    0.00 PKD
ROOT
HETATM    1  O   UNL     1      -5.142   9.770  67.719  1.00  0.00    -0.036 OA 
HETATM    2  C   UNL     1      -5.370   9.336  68.988  1.00  0.00    -0.037 C  
HETATM    3  C   UNL     1      -5.611   7.838  69.048  1.00  0.00    -0.026 C  
HETATM    4  O   UNL     1      -5.366  10.085  69.954  1.00  0.00    -0.036 OA 
ENDROOT
BRANCH   3   5
HETATM    5  O   UNL     1      -5.563   7.294  67.718  1.00  0.00    -0.023 OA 
BRANCH   5   6
HETATM    6  C   UNL     1      -6.768   7.597  66.990  1.00  0.00    -0.067 C  
BRANCH   6   7
HETATM    7  C   UNL     1      -7.495   6.278  66.667  1.00  0.00    -0.090 C  
BRANCH   7   8
HETATM    8  N   UNL     1      -8.634   6.409  65.744  1.00  0.00    -0.151 NA 
HETATM    9  C   UNL     1      -9.956   6.199  66.369  1.00  0.00    -0.075 C  
HETATM   10  C   UNL     1     -10.464   7.334  67.302  1.00  0.00    -0.310 C  
HETATM   11  N   UNL     1     -10.310   8.704  66.778  1.00  0.00    -0.287 NA 
HETATM   12  C   UNL     1      -9.047   8.901  66.068  1.00  0.00    -0.214 C  
HETATM   13  C   UNL     1      -8.656   7.747  65.117  1.00  0.00     0.001 C  
BRANCH  11  14
HETATM   14  C   UNL     1     -10.703   9.761  67.754  1.00  0.00    -0.272 C  
BRANCH  14  15
HETATM   15  C   UNL     1     -10.390  11.218  67.323  1.00  0.00    -0.236 A  
HETATM   16  C   UNL     1     -11.001  11.784  66.193  1.00  0.00    -0.355 A  
HETATM   17  C   UNL     1      -9.541  12.055  68.079  1.00  0.00    -0.199 A  
HETATM   18  C   UNL     1     -10.784  13.127  65.846  1.00  0.00    -0.287 A  
HETATM   19  C   UNL     1      -9.952  13.925  66.623  1.00  0.00    -0.279 A  
HETATM   20  C   UNL     1      -9.326  13.389  67.740  1.00  0.00    -0.211 A  
ENDBRANCH  14  15
BRANCH  14  21
HETATM   21  C   UNL     1     -10.337   9.519  69.237  1.00  0.00    -0.219 A  
HETATM   22  C   UNL     1      -9.744   8.669  71.861  1.00  0.00    -0.313 A  
HETATM   23 CL   UNL     1      -9.437   8.032  73.428  1.00  0.00    -0.338 Cl 
HETATM   24  C   UNL     1     -10.984   9.226  71.577  1.00  0.00    -0.446 A  
HETATM   25  C   UNL     1      -9.059   9.027  69.571  1.00  0.00    -0.151 A  
HETATM   26  C   UNL     1     -11.264   9.672  70.283  1.00  0.00    -0.324 A  
HETATM   27  C   UNL     1      -8.766   8.607  70.875  1.00  0.00    -0.216 A  
ENDBRANCH  14  21
ENDBRANCH  11  14
ENDBRANCH   7   8
ENDBRANCH   6   7
ENDBRANCH   5   6
ENDBRANCH   3   5
TORSDOF 7
ENDMDL
MODEL      204
REMARK 921   NORMALIZED FREE ENERGY PREDICTED BY IDOCK:   -2.70 KCAL/MOL
REMARK 922        TOTAL FREE ENERGY PREDICTED BY IDOCK:   -4.83 KCAL/MOL
REMARK 923 INTER-LIGAND FREE ENERGY PREDICTED BY IDOCK:   -4.95 KCAL/MOL
REMARK 924 INTRA-LIGAND FREE ENERGY PREDICTED BY IDOCK:    0.12 KCAL/MOL
REMARK 927      BINDING AFFINITY PREDICTED BY RF-SCORE:    0.00 PKD
ROOT
HETATM    1  O   UNL     1      -8.497   7.338  66.411  1.00  0.00    -0.117 OA 
HETATM    2  C   UNL     1      -8.335   8.436  65.624  1.00  0.00    -0.154 C  
HETATM    3  C   UNL     1      -6.999   9.118  65.860  1.00  0.00    -0.088 C  
HETATM    4  O   UNL     1      -9.178   8.805  64.820  1.00  0.00     0.011 OA 
ENDROOT
BRANCH   3   5
HETATM    5  O   UNL     1      -6.282   8.418  66.891  1.00  0.00    -0.053 OA 
BRANCH   5   6
HETATM    6  C   UNL     1      -5.873   9.317  67.939  1.00  0.00    -0.041 C  
BRANCH   6   7
HETATM    7  C   UNL     1      -6.345  10.739  67.585  1.00  0.00    -0.056 C  
BRANCH   7   8
HETATM    8  N   UNL     1      -6.858  11.523  68.721  1.00  0.00    -0.077 NA 
HETATM    9  C   UNL     1      -8.219  12.063  68.527  1.00  0.00    -0.113 C  
HETATM   10  C   UNL     1      -9.383  11.034  68.594  1.00  0.00    -0.194 C  
HETATM   11  N   UNL     1      -9.320  10.076  69.713  1.00  0.00    -0.221 NA 
HETATM   12  C   UNL     1      -7.962   9.606  69.983  1.00  0.00    -0.172 C  
HETATM   13  C   UNL     1      -6.881  10.711  69.955  1.00  0.00    -0.148 C  
BRANCH  11  14
HETATM   14  C   UNL     1     -10.391   9.039  69.667  1.00  0.00    -0.212 C  
BRANCH  14  15
HETATM   15  C   UNL     1     -11.582   9.264  70.637  1.00  0.00    -0.305 A  
HETATM   16  C   UNL     1     -11.919   8.303  71.602  1.00  0.00    -0.346 A  
HETATM   17  C   UNL     1     -12.326  10.464  70.638  1.00  0.00    -0.438 A  
HETATM   18  C   UNL     1     -12.943   8.538  72.535  1.00  0.00    -0.300 A  
HETATM   19  C   UNL     1     -13.645   9.738  72.514  1.00  0.00    -0.225 A  
HETATM   20  C   UNL     1     -13.340  10.702  71.564  1.00  0.00    -0.359 A  
ENDBRANCH  14  15
BRANCH  14  21
HETATM   21  C   UNL     1      -9.938   7.560  69.662  1.00  0.00    -0.184 A  
HETATM   22  C   UNL     1      -9.469   4.785  69.865  1.00  0.00    -0.161 A  
HETATM   23 CL   UNL     1      -9.285   3.089  70.078  1.00  0.00    -0.203 Cl 
HETATM   24  C   UNL     1      -8.834   5.660  70.735  1.00  0.00    -0.146 A  
HETATM   25  C   UNL     1     -10.505   6.658  68.740  1.00  0.00    -0.241 A  
HETATM   26  C   UNL     1      -9.046   7.036  70.614  1.00  0.00    -0.158 A  
HETATM   27  C   UNL     1     -10.270   5.280  68.841  1.00  0.00    -0.248 A  
ENDBRANCH  14  21
ENDBRANCH  11  14
ENDBRANCH   7   8
ENDBRANCH   6   7
ENDBRANCH   5   6
ENDBRANCH   3   5
TORSDOF 7
ENDMDL
MODEL      205
REMARK 921   NORMALIZED FREE ENERGY PREDICTED BY IDOCK:   -2.55 KCAL/MOL
REMARK 922        TOTAL FREE ENERGY PREDICTED BY IDOCK:   -4.63 KCAL/MOL
REMARK 923 INTER-LIGAND FREE ENERGY PREDICTED BY IDOCK:   -4.80 KCAL/MOL
REMARK 924 INTRA-LIGAND FREE ENERGY PREDICTED BY IDOCK:    0.17 KCAL/MOL
REMARK 927      BINDING AFFINITY PREDICTED BY RF-SCORE:    0.00 PKD
ROOT
HETATM    1  O   UNL     1      -9.432   5.446  71.143  1.00  0.00    -0.150 OA 
HETATM    2  C   UNL     1      -8.300   5.491  71.896  1.00  0.00    -0.119 C  
HETATM    3  C   UNL     1      -7.707   6.887  71.956  1.00  0.00    -0.094 C  
HETATM    4  O   UNL     1      -7.840   4.508  72.458  1.00  0.00    -0.083 OA 
ENDROOT
BRANCH   3   5
HETATM    5  O   UNL     1      -8.503   7.778  71.158  1.00  0.00    -0.109 OA 
BRANCH   5   6
HETATM    6  C   UNL     1      -8.212   7.620  69.756  1.00  0.00    -0.131 C  
BRANCH   6   7
HETATM    7  C   UNL     1      -7.321   8.789  69.300  1.00  0.00    -0.070 C  
BRANCH   7   8
HETATM    8  N   UNL     1      -7.821  10.126  69.658  1.00  0.00    -0.164 NA 
HETATM    9  C   UNL     1      -7.094  11.243  69.021  1.00  0.00    -0.116 C  
HETATM   10  C   UNL     1      -7.350  11.454  67.502  1.00  0.00    -0.112 C  
HETATM   11  N   UNL     1      -8.763  11.401  67.083  1.00  0.00    -0.150 NA 
HETATM   12  C   UNL     1      -9.524  10.363  67.779  1.00  0.00    -0.145 C  
HETATM   13  C   UNL     1      -9.247  10.271  69.297  1.00  0.00    -0.202 C  
BRANCH  11  14
HETATM   14  C   UNL     1      -8.949  11.491  65.606  1.00  0.00    -0.074 C  
BRANCH  14  15
HETATM   15  C   UNL     1     -10.242  12.208  65.137  1.00  0.00    -0.308 A  
HETATM   16  C   UNL     1     -10.396  13.594  65.292  1.00  0.00    -0.362 A  
HETATM   17  C   UNL     1     -11.281  11.518  64.476  1.00  0.00    -0.301 A  
HETATM   18  C   UNL     1     -11.529  14.260  64.795  1.00  0.00    -0.394 A  
HETATM   19  C   UNL     1     -12.526  13.548  64.137  1.00  0.00    -0.301 A  
HETATM   20  C   UNL     1     -12.405  12.174  63.979  1.00  0.00    -0.550 A  
ENDBRANCH  14  15
BRANCH  14  21
HETATM   21  C   UNL     1      -8.684  10.207  64.785  1.00  0.00    -0.202 A  
HETATM   22  C   UNL     1      -7.843   7.835  63.509  1.00  0.00    -0.129 A  
HETATM   23 CL   UNL     1      -7.209   6.409  62.789  1.00  0.00    -0.051 Cl 
HETATM   24  C   UNL     1      -7.662   9.061  62.882  1.00  0.00    -0.116 A  
HETATM   25  C   UNL     1      -8.930   8.945  65.361  1.00  0.00    -0.232 A  
HETATM   26  C   UNL     1      -8.105  10.231  63.504  1.00  0.00    -0.152 A  
HETATM   27  C   UNL     1      -8.513   7.768  64.726  1.00  0.00     0.015 A  
ENDBRANCH  14  21
ENDBRANCH  11  14
ENDBRANCH   7   8
ENDBRANCH   6   7
ENDBRANCH   5   6
ENDBRANCH   3   5
TORSDOF 7
ENDMDL
MODEL      206
REMARK 921   NORMALIZED FREE ENERGY PREDICTED BY IDOCK:   -2.45 KCAL/MOL
REMARK 922        TOTAL FREE ENERGY PREDICTED BY IDOCK:   -4.49 KCAL/MOL
REMARK 923 INTER-LIGAND FREE ENERGY PREDICTED BY IDOCK:   -3.88 KCAL/MOL
REMARK 924 INTRA-LIGAND FREE ENERGY PREDICTED BY IDOCK:   -0.62 KCAL/MOL
REMARK 927      BINDING AFFINITY PREDICTED BY RF-SCORE:    0.00 PKD
ROOT
HETATM    1  O   UNL     1     -11.742  12.398  69.874  1.00  0.00    -0.309 OA 
HETATM    2  C   UNL     1     -11.758  11.923  68.599  1.00  0.00    -0.323 C  
HETATM    3  C   UNL     1     -11.012  10.608  68.468  1.00  0.00    -0.248 C  
HETATM    4  O   UNL     1     -12.324  12.502  67.684  1.00  0.00    -0.295 OA 
ENDROOT
BRANCH   3   5
HETATM    5  O   UNL     1     -10.459  10.244  69.744  1.00  0.00    -0.241 OA 
BRANCH   5   6
HETATM    6  C   UNL     1      -9.064   9.905  69.628  1.00  0.00    -0.227 C  
BRANCH   6   7
HETATM    7  C   UNL     1      -8.881   8.974  68.415  1.00  0.00    -0.134 C  
BRANCH   7   8
HETATM    8  N   UNL     1      -7.504   8.891  67.901  1.00  0.00    -0.092 NA 
HETATM    9  C   UNL     1      -6.571   8.141  68.767  1.00  0.00    -0.053 C  
HETATM   10  C   UNL     1      -6.750   6.597  68.796  1.00  0.00    -0.057 C  
HETATM   11  N   UNL     1      -6.926   5.953  67.481  1.00  0.00    -0.067 NA 
HETATM   12  C   UNL     1      -7.769   6.733  66.575  1.00  0.00    -0.102 C  
HETATM   13  C   UNL     1      -7.475   8.251  66.570  1.00  0.00    -0.081 C  
BRANCH  11  14
HETATM   14  C   UNL     1      -7.211   4.491  67.569  1.00  0.00    -0.069 C  
BRANCH  14  15
HETATM   15  C   UNL     1      -7.619   3.808  66.237  1.00  0.00    -0.084 A  
HETATM   16  C   UNL     1      -6.649   3.292  65.364  1.00  0.00    -0.036 A  
HETATM   17  C   UNL     1      -8.971   3.614  65.881  1.00  0.00    -0.142 A  
HETATM   18  C   UNL     1      -7.016   2.601  64.197  1.00  0.00    -0.041 A  
HETATM   19  C   UNL     1      -8.359   2.417  63.887  1.00  0.00    -0.082 A  
HETATM   20  C   UNL     1      -9.340   2.926  64.727  1.00  0.00    -0.147 A  
ENDBRANCH  14  15
BRANCH  14  21
HETATM   21  C   UNL     1      -8.100   4.018  68.743  1.00  0.00    -0.075 A  
HETATM   22  C   UNL     1      -9.544   3.469  71.104  1.00  0.00    -0.170 A  
HETATM   23 CL   UNL     1     -10.341   3.220  72.607  1.00  0.00    -0.235 Cl 
HETATM   24  C   UNL     1      -8.425   2.712  70.785  1.00  0.00    -0.091 A  
HETATM   25  C   UNL     1      -9.285   4.716  69.048  1.00  0.00    -0.183 A  
HETATM   26  C   UNL     1      -7.728   2.967  69.601  1.00  0.00    -0.045 A  
HETATM   27  C   UNL     1     -10.003   4.441  70.221  1.00  0.00    -0.248 A  
ENDBRANCH  14  21
ENDBRANCH  11  14
ENDBRANCH   7   8
ENDBRANCH   6   7
ENDBRANCH   5   6
ENDBRANCH   3   5
TORSDOF 7
ENDMDL
MODEL      207
REMARK 921   NORMALIZED FREE ENERGY PREDICTED BY IDOCK:   -2.37 KCAL/MOL
REMARK 922        TOTAL FREE ENERGY PREDICTED BY IDOCK:   -4.38 KCAL/MOL
REMARK 923 INTER-LIGAND FREE ENERGY PREDICTED BY IDOCK:   -5.63 KCAL/MOL
REMARK 924 INTRA-LIGAND FREE ENERGY PREDICTED BY IDOCK:    1.25 KCAL/MOL
REMARK 927      BINDING AFFINITY PREDICTED BY RF-SCORE:    0.00 PKD
ROOT
HETATM    1  O   UNL     1     -11.378  11.176  64.339  1.00  0.00    -0.157 OA 
HETATM    2  C   UNL     1     -12.470  11.942  64.073  1.00  0.00    -0.313 C  
HETATM    3  C   UNL     1     -12.600  13.108  65.037  1.00  0.00    -0.438 C  
HETATM    4  O   UNL     1     -13.238  11.704  63.153  1.00  0.00    -0.471 OA 
ENDROOT
BRANCH   3   5
HETATM    5  O   UNL     1     -11.532  13.054  65.997  1.00  0.00    -0.310 OA 
BRANCH   5   6
HETATM    6  C   UNL     1     -10.903  14.341  66.145  1.00  0.00    -0.310 C  
BRANCH   6   7
HETATM    7  C   UNL     1      -9.388  14.133  66.328  1.00  0.00    -0.189 C  
BRANCH   7   8
HETATM    8  N   UNL     1      -8.929  14.124  67.727  1.00  0.00    -0.179 NA 
HETATM    9  C   UNL     1      -9.783  13.345  68.646  1.00  0.00    -0.080 C  
HETATM   10  C   UNL     1      -9.703  11.798  68.514  1.00  0.00    -0.178 C  
HETATM   11  N   UNL     1      -8.343  11.238  68.412  1.00  0.00    -0.145 NA 
HETATM   12  C   UNL     1      -7.454  12.053  67.584  1.00  0.00    -0.132 C  
HETATM   13  C   UNL     1      -7.561  13.576  67.831  1.00  0.00    -0.151 C  
BRANCH  11  14
HETATM   14  C   UNL     1      -8.322   9.767  68.170  1.00  0.00    -0.110 C  
BRANCH  14  15
HETATM   15  C   UNL     1      -8.250   9.335  66.681  1.00  0.00    -0.115 A  
HETATM   16  C   UNL     1      -8.414  10.272  65.650  1.00  0.00    -0.165 A  
HETATM   17  C   UNL     1      -7.948   8.009  66.302  1.00  0.00    -0.105 A  
HETATM   18  C   UNL     1      -8.268   9.902  64.302  1.00  0.00    -0.161 A  
HETATM   19  C   UNL     1      -7.956   8.589  63.967  1.00  0.00    -0.159 A  
HETATM   20  C   UNL     1      -7.799   7.639  64.967  1.00  0.00    -0.126 A  
ENDBRANCH  14  15
BRANCH  14  21
HETATM   21  C   UNL     1      -9.341   8.910  68.958  1.00  0.00    -0.144 A  
HETATM   22  C   UNL     1     -10.938   7.396  70.724  1.00  0.00    -0.255 A  
HETATM   23 CL   UNL     1     -11.806   6.473  71.886  1.00  0.00    -0.368 Cl 
HETATM   24  C   UNL     1     -10.105   6.752  69.818  1.00  0.00    -0.198 A  
HETATM   25  C   UNL     1     -10.255   9.536  69.829  1.00  0.00    -0.249 A  
HETATM   26  C   UNL     1      -9.337   7.504  68.926  1.00  0.00    -0.142 A  
HETATM   27  C   UNL     1     -11.049   8.782  70.705  1.00  0.00    -0.285 A  
ENDBRANCH  14  21
ENDBRANCH  11  14
ENDBRANCH   7   8
ENDBRANCH   6   7
ENDBRANCH   5   6
ENDBRANCH   3   5
TORSDOF 7
ENDMDL
MODEL      208
REMARK 921   NORMALIZED FREE ENERGY PREDICTED BY IDOCK:   -2.30 KCAL/MOL
REMARK 922        TOTAL FREE ENERGY PREDICTED BY IDOCK:   -4.28 KCAL/MOL
REMARK 923 INTER-LIGAND FREE ENERGY PREDICTED BY IDOCK:   -3.79 KCAL/MOL
REMARK 924 INTRA-LIGAND FREE ENERGY PREDICTED BY IDOCK:   -0.49 KCAL/MOL
REMARK 927      BINDING AFFINITY PREDICTED BY RF-SCORE:    0.00 PKD
ROOT
HETATM    1  O   UNL     1      -7.666  10.344  70.153  1.00  0.00    -0.122 OA 
HETATM    2  C   UNL     1      -6.336  10.491  70.403  1.00  0.00    -0.126 C  
HETATM    3  C   UNL     1      -5.767  11.741  69.758  1.00  0.00    -0.102 C  
HETATM    4  O   UNL     1      -5.699   9.698  71.080  1.00  0.00    -0.064 OA 
ENDROOT
BRANCH   3   5
HETATM    5  O   UNL     1      -6.803  12.413  69.023  1.00  0.00    -0.100 OA 
BRANCH   5   6
HETATM    6  C   UNL     1      -6.601  12.282  67.603  1.00  0.00    -0.122 C  
BRANCH   6   7
HETATM    7  C   UNL     1      -7.948  11.938  66.941  1.00  0.00    -0.132 C  
BRANCH   7   8
HETATM    8  N   UNL     1      -7.844  11.333  65.603  1.00  0.00     0.157 NA 
HETATM    9  C   UNL     1      -6.735  10.369  65.452  1.00  0.00    -0.113 C  
HETATM   10  C   UNL     1      -6.916   8.996  66.158  1.00  0.00    -0.085 C  
HETATM   11  N   UNL     1      -8.234   8.358  65.980  1.00  0.00    -0.107 NA 
HETATM   12  C   UNL     1      -9.339   9.315  66.028  1.00  0.00    -0.223 C  
HETATM   13  C   UNL     1      -9.091  10.625  65.245  1.00  0.00    -0.195 C  
BRANCH  11  14
HETATM   14  C   UNL     1      -8.398   7.104  66.771  1.00  0.00    -0.116 C  
BRANCH  14  15
HETATM   15  C   UNL     1      -8.994   5.899  65.996  1.00  0.00    -0.159 A  
HETATM   16  C   UNL     1     -10.293   5.441  66.260  1.00  0.00    -0.251 A  
HETATM   17  C   UNL     1      -8.289   5.261  64.951  1.00  0.00    -0.144 A  
HETATM   18  C   UNL     1     -10.866   4.404  65.506  1.00  0.00    -0.013 A  
HETATM   19  C   UNL     1     -10.146   3.809  64.475  1.00  0.00    -0.212 A  
HETATM   20  C   UNL     1      -8.855   4.234  64.198  1.00  0.00    -0.142 A  
ENDBRANCH  14  15
BRANCH  14  21
HETATM   21  C   UNL     1      -9.026   7.238  68.178  1.00  0.00    -0.132 A  
HETATM   22  C   UNL     1      -9.987   7.862  70.756  1.00  0.00    -0.184 A  
HETATM   23 CL   UNL     1     -10.488   8.347  72.327  1.00  0.00    -0.389 Cl 
HETATM   24  C   UNL     1      -8.877   7.042  70.611  1.00  0.00    -0.150 A  
HETATM   25  C   UNL     1     -10.199   7.999  68.351  1.00  0.00    -0.239 A  
HETATM   26  C   UNL     1      -8.420   6.711  69.333  1.00  0.00    -0.131 A  
HETATM   27  C   UNL     1     -10.676   8.308  69.633  1.00  0.00    -0.196 A  
ENDBRANCH  14  21
ENDBRANCH  11  14
ENDBRANCH   7   8
ENDBRANCH   6   7
ENDBRANCH   5   6
ENDBRANCH   3   5
TORSDOF 7
ENDMDL
MODEL      209
REMARK 921   NORMALIZED FREE ENERGY PREDICTED BY IDOCK:   -2.18 KCAL/MOL
REMARK 922        TOTAL FREE ENERGY PREDICTED BY IDOCK:   -4.10 KCAL/MOL
REMARK 923 INTER-LIGAND FREE ENERGY PREDICTED BY IDOCK:   -3.97 KCAL/MOL
REMARK 924 INTRA-LIGAND FREE ENERGY PREDICTED BY IDOCK:   -0.13 KCAL/MOL
REMARK 927      BINDING AFFINITY PREDICTED BY RF-SCORE:    0.00 PKD
ROOT
HETATM    1  O   UNL     1      -6.595  10.019  70.221  1.00  0.00    -0.096 OA 
HETATM    2  C   UNL     1      -7.607   9.311  70.792  1.00  0.00    -0.133 C  
HETATM    3  C   UNL     1      -7.095   8.240  71.738  1.00  0.00    -0.085 C  
HETATM    4  O   UNL     1      -8.785   9.539  70.562  1.00  0.00    -0.228 OA 
ENDROOT
BRANCH   3   5
HETATM    5  O   UNL     1      -5.657   8.252  71.738  1.00  0.00    -0.034 OA 
BRANCH   5   6
HETATM    6  C   UNL     1      -5.131   7.325  72.707  1.00  0.00    -0.037 C  
BRANCH   6   7
HETATM    7  C   UNL     1      -6.133   6.168  72.879  1.00  0.00    -0.049 C  
BRANCH   7   8
HETATM    8  N   UNL     1      -5.718   4.893  72.273  1.00  0.00    -0.012 NA 
HETATM    9  C   UNL     1      -6.618   3.758  72.558  1.00  0.00    -0.021 C  
HETATM   10  C   UNL     1      -7.989   3.765  71.824  1.00  0.00    -0.063 C  
HETATM   11  N   UNL     1      -7.937   4.084  70.385  1.00  0.00    -0.051 NA 
HETATM   12  C   UNL     1      -6.976   5.141  70.072  1.00  0.00    -0.056 C  
HETATM   13  C   UNL     1      -5.619   5.014  70.803  1.00  0.00    -0.012 C  
BRANCH  11  14
HETATM   14  C   UNL     1      -9.284   4.195  69.753  1.00  0.00    -0.143 C  
BRANCH  14  15
HETATM   15  C   UNL     1      -9.302   4.119  68.203  1.00  0.00    -0.212 A  
HETATM   16  C   UNL     1      -9.202   5.280  67.422  1.00  0.00    -0.116 A  
HETATM   17  C   UNL     1      -9.349   2.886  67.517  1.00  0.00    -0.218 A  
HETATM   18  C   UNL     1      -9.136   5.209  66.021  1.00  0.00    -0.149 A  
HETATM   19  C   UNL     1      -9.171   3.976  65.380  1.00  0.00    -0.150 A  
HETATM   20  C   UNL     1      -9.281   2.811  66.127  1.00  0.00    -0.083 A  
ENDBRANCH  14  15
BRANCH  14  21
HETATM   21  C   UNL     1     -10.217   5.312  70.276  1.00  0.00    -0.345 A  
HETATM   22  C   UNL     1     -12.235   7.086  71.137  1.00  0.00    -0.382 A  
HETATM   23 CL   UNL     1     -13.554   8.085  71.602  1.00  0.00    -0.387 Cl 
HETATM   24  C   UNL     1     -11.655   7.251  69.886  1.00  0.00    -0.021 A  
HETATM   25  C   UNL     1     -10.762   5.218  71.571  1.00  0.00    -0.221 A  
HETATM   26  C   UNL     1     -10.636   6.388  69.473  1.00  0.00    -0.308 A  
HETATM   27  C   UNL     1     -11.764   6.101  71.998  1.00  0.00    -0.354 A  
ENDBRANCH  14  21
ENDBRANCH  11  14
ENDBRANCH   7   8
ENDBRANCH   6   7
ENDBRANCH   5   6
ENDBRANCH   3   5
TORSDOF 7
ENDMDL
MODEL      210
REMARK 921   NORMALIZED FREE ENERGY PREDICTED BY IDOCK:   -2.14 KCAL/MOL
REMARK 922        TOTAL FREE ENERGY PREDICTED BY IDOCK:   -4.05 KCAL/MOL
REMARK 923 INTER-LIGAND FREE ENERGY PREDICTED BY IDOCK:   -4.08 KCAL/MOL
REMARK 924 INTRA-LIGAND FREE ENERGY PREDICTED BY IDOCK:    0.03 KCAL/MOL
REMARK 927      BINDING AFFINITY PREDICTED BY RF-SCORE:    0.00 PKD
ROOT
HETATM    1  O   UNL     1     -11.316   8.054  70.592  1.00  0.00    -0.269 OA 
HETATM    2  C   UNL     1     -11.316   7.132  71.593  1.00  0.00    -0.251 C  
HETATM    3  C   UNL     1     -10.410   5.953  71.286  1.00  0.00    -0.221 C  
HETATM    4  O   UNL     1     -11.970   7.265  72.616  1.00  0.00    -0.165 OA 
ENDROOT
BRANCH   3   5
HETATM    5  O   UNL     1      -9.822   6.129  69.986  1.00  0.00    -0.165 OA 
BRANCH   5   6
HETATM    6  C   UNL     1      -8.523   5.513  69.916  1.00  0.00    -0.116 C  
BRANCH   6   7
HETATM    7  C   UNL     1      -7.634   6.105  71.026  1.00  0.00    -0.097 C  
BRANCH   7   8
HETATM    8  N   UNL     1      -6.478   6.880  70.547  1.00  0.00    -0.049 NA 
HETATM    9  C   UNL     1      -5.971   6.467  69.223  1.00  0.00    -0.021 C  
HETATM   10  C   UNL     1      -6.850   6.849  67.999  1.00  0.00    -0.078 C  
HETATM   11  N   UNL     1      -7.360   8.233  67.991  1.00  0.00    -0.094 NA 
HETATM   12  C   UNL     1      -7.775   8.693  69.316  1.00  0.00    -0.096 C  
HETATM   13  C   UNL     1      -6.805   8.318  70.460  1.00  0.00    -0.037 C  
BRANCH  11  14
HETATM   14  C   UNL     1      -8.291   8.516  66.861  1.00  0.00    -0.109 C  
BRANCH  14  15
HETATM   15  C   UNL     1      -7.722   8.247  65.443  1.00  0.00    -0.103 A  
HETATM   16  C   UNL     1      -6.668   9.017  64.929  1.00  0.00    -0.069 A  
HETATM   17  C   UNL     1      -8.188   7.181  64.642  1.00  0.00    -0.027 A  
HETATM   18  C   UNL     1      -6.096   8.724  63.680  1.00  0.00    -0.077 A  
HETATM   19  C   UNL     1      -6.571   7.657  62.925  1.00  0.00    -0.070 A  
HETATM   20  C   UNL     1      -7.621   6.885  63.404  1.00  0.00    -0.100 A  
ENDBRANCH  14  15
BRANCH  14  21
HETATM   21  C   UNL     1      -9.074   9.850  66.913  1.00  0.00    -0.162 A  
HETATM   22  C   UNL     1     -10.741  12.115  66.700  1.00  0.00    -0.246 A  
HETATM   23 CL   UNL     1     -11.806  13.443  66.456  1.00  0.00    -0.416 Cl 
HETATM   24  C   UNL     1      -9.494  12.113  66.089  1.00  0.00    -0.231 A  
HETATM   25  C   UNL     1     -10.308   9.910  67.590  1.00  0.00    -0.275 A  
HETATM   26  C   UNL     1      -8.659  11.001  66.220  1.00  0.00    -0.167 A  
HETATM   27  C   UNL     1     -11.135  11.037  67.485  1.00  0.00    -0.366 A  
ENDBRANCH  14  21
ENDBRANCH  11  14
ENDBRANCH   7   8
ENDBRANCH   6   7
ENDBRANCH   5   6
ENDBRANCH   3   5
TORSDOF 7
ENDMDL
MODEL      211
REMARK 921   NORMALIZED FREE ENERGY PREDICTED BY IDOCK:   -2.06 KCAL/MOL
REMARK 922        TOTAL FREE ENERGY PREDICTED BY IDOCK:   -3.94 KCAL/MOL
REMARK 923 INTER-LIGAND FREE ENERGY PREDICTED BY IDOCK:   -3.07 KCAL/MOL
REMARK 924 INTRA-LIGAND FREE ENERGY PREDICTED BY IDOCK:   -0.87 KCAL/MOL
REMARK 927      BINDING AFFINITY PREDICTED BY RF-SCORE:    0.00 PKD
ROOT
HETATM    1  O   UNL     1      -7.351  10.764  70.119  1.00  0.00    -0.119 OA 
HETATM    2  C   UNL     1      -6.369  11.534  69.576  1.00  0.00    -0.116 C  
HETATM    3  C   UNL     1      -6.902  12.483  68.519  1.00  0.00    -0.083 C  
HETATM    4  O   UNL     1      -5.200  11.457  69.925  1.00  0.00    -0.053 OA 
ENDROOT
BRANCH   3   5
HETATM    5  O   UNL     1      -8.316  12.276  68.361  1.00  0.00    -0.167 OA 
BRANCH   5   6
HETATM    6  C   UNL     1      -8.614  11.686  67.081  1.00  0.00    -0.164 C  
BRANCH   6   7
HETATM    7  C   UNL     1      -9.433  10.402  67.306  1.00  0.00    -0.154 C  
BRANCH   7   8
HETATM    8  N   UNL     1      -9.721   9.629  66.087  1.00  0.00    -0.232 NA 
HETATM    9  C   UNL     1      -8.527   9.075  65.417  1.00  0.00    -0.160 C  
HETATM   10  C   UNL     1      -7.836   7.875  66.125  1.00  0.00    -0.094 C  
HETATM   11  N   UNL     1      -8.742   6.817  66.610  1.00  0.00    -0.122 NA 
HETATM   12  C   UNL     1      -9.976   7.346  67.187  1.00  0.00    -0.215 C  
HETATM   13  C   UNL     1     -10.623   8.496  66.380  1.00  0.00     0.341 C  
BRANCH  11  14
HETATM   14  C   UNL     1      -8.045   5.748  67.382  1.00  0.00    -0.102 C  
BRANCH  14  15
HETATM   15  C   UNL     1      -8.019   4.348  66.712  1.00  0.00    -0.098 A  
HETATM   16  C   UNL     1      -6.889   3.522  66.810  1.00  0.00    -0.054 A  
HETATM   17  C   UNL     1      -9.143   3.821  66.041  1.00  0.00    -0.152 A  
HETATM   18  C   UNL     1      -6.890   2.223  66.276  1.00  0.00    -0.043 A  
HETATM   19  C   UNL     1      -8.022   1.732  65.633  1.00  0.00    -0.074 A  
HETATM   20  C   UNL     1      -9.150   2.531  65.512  1.00  0.00    -0.116 A  
ENDBRANCH  14  15
BRANCH  14  21
HETATM   21  C   UNL     1      -8.369   5.646  68.891  1.00  0.00    -0.103 A  
HETATM   22  C   UNL     1      -9.360   5.541  71.531  1.00  0.00    -0.147 A  
HETATM   23 CL   UNL     1     -10.079   5.530  73.092  1.00  0.00    -0.191 Cl 
HETATM   24  C   UNL     1      -8.726   6.689  71.074  1.00  0.00    -0.138 A  
HETATM   25  C   UNL     1      -8.942   4.466  69.406  1.00  0.00    -0.148 A  
HETATM   26  C   UNL     1      -8.211   6.728  69.776  1.00  0.00    -0.127 A  
HETATM   27  C   UNL     1      -9.433   4.415  70.718  1.00  0.00    -0.243 A  
ENDBRANCH  14  21
ENDBRANCH  11  14
ENDBRANCH   7   8
ENDBRANCH   6   7
ENDBRANCH   5   6
ENDBRANCH   3   5
TORSDOF 7
ENDMDL
MODEL      212
REMARK 921   NORMALIZED FREE ENERGY PREDICTED BY IDOCK:   -2.05 KCAL/MOL
REMARK 922        TOTAL FREE ENERGY PREDICTED BY IDOCK:   -3.93 KCAL/MOL
REMARK 923 INTER-LIGAND FREE ENERGY PREDICTED BY IDOCK:   -4.19 KCAL/MOL
REMARK 924 INTRA-LIGAND FREE ENERGY PREDICTED BY IDOCK:    0.26 KCAL/MOL
REMARK 927      BINDING AFFINITY PREDICTED BY RF-SCORE:    0.00 PKD
ROOT
HETATM    1  O   UNL     1     -10.634  19.702  67.400  1.00  0.00    -0.447 OA 
HETATM    2  C   UNL     1      -9.373  19.435  66.962  1.00  0.00    -0.326 C  
HETATM    3  C   UNL     1      -9.317  18.179  66.111  1.00  0.00    -0.132 C  
HETATM    4  O   UNL     1      -8.416  20.146  67.228  1.00  0.00    -0.321 OA 
ENDROOT
BRANCH   3   5
HETATM    5  O   UNL     1     -10.629  17.596  66.034  1.00  0.00    -0.338 OA 
BRANCH   5   6
HETATM    6  C   UNL     1     -10.697  16.371  66.788  1.00  0.00    -0.180 C  
BRANCH   6   7
HETATM    7  C   UNL     1     -11.268  16.680  68.184  1.00  0.00    -0.202 C  
BRANCH   7   8
HETATM    8  N   UNL     1     -10.367  16.368  69.305  1.00  0.00    -0.274 NA 
HETATM    9  C   UNL     1     -10.811  15.241  70.151  1.00  0.00    -0.281 C  
HETATM   10  C   UNL     1     -10.679  13.822  69.530  1.00  0.00     0.116 C  
HETATM   11  N   UNL     1      -9.398  13.539  68.857  1.00  0.00     0.091 NA 
HETATM   12  C   UNL     1      -8.893  14.680  68.094  1.00  0.00    -0.173 C  
HETATM   13  C   UNL     1      -9.011  16.041  68.819  1.00  0.00    -0.226 C  
BRANCH  11  14
HETATM   14  C   UNL     1      -9.364  12.211  68.178  1.00  0.00    -0.204 C  
BRANCH  14  15
HETATM   15  C   UNL     1      -7.989  11.492  68.184  1.00  0.00    -0.136 A  
HETATM   16  C   UNL     1      -7.113  11.619  69.273  1.00  0.00    -0.055 A  
HETATM   17  C   UNL     1      -7.592  10.631  67.138  1.00  0.00    -0.099 A  
HETATM   18  C   UNL     1      -5.904  10.905  69.319  1.00  0.00    -0.042 A  
HETATM   19  C   UNL     1      -5.553  10.055  68.276  1.00  0.00    -0.038 A  
HETATM   20  C   UNL     1      -6.395   9.919  67.182  1.00  0.00    -0.068 A  
ENDBRANCH  14  15
BRANCH  14  21
HETATM   21  C   UNL     1     -10.048  12.112  66.794  1.00  0.00    -0.218 A  
HETATM   22  C   UNL     1     -11.410  12.333  64.334  1.00  0.00    -0.336 A  
HETATM   23 CL   UNL     1     -12.292  12.584  62.879  1.00  0.00    -0.038 Cl 
HETATM   24  C   UNL     1     -12.027  11.715  65.413  1.00  0.00     0.285 A  
HETATM   25  C   UNL     1      -9.416  12.659  65.661  1.00  0.00     0.013 A  
HETATM   26  C   UNL     1     -11.339  11.582  66.622  1.00  0.00    -0.285 A  
HETATM   27  C   UNL     1     -10.093  12.767  64.438  1.00  0.00    -0.275 A  
ENDBRANCH  14  21
ENDBRANCH  11  14
ENDBRANCH   7   8
ENDBRANCH   6   7
ENDBRANCH   5   6
ENDBRANCH   3   5
TORSDOF 7
ENDMDL
MODEL      213
REMARK 921   NORMALIZED FREE ENERGY PREDICTED BY IDOCK:   -2.05 KCAL/MOL
REMARK 922        TOTAL FREE ENERGY PREDICTED BY IDOCK:   -3.92 KCAL/MOL
REMARK 923 INTER-LIGAND FREE ENERGY PREDICTED BY IDOCK:   -4.87 KCAL/MOL
REMARK 924 INTRA-LIGAND FREE ENERGY PREDICTED BY IDOCK:    0.95 KCAL/MOL
REMARK 927      BINDING AFFINITY PREDICTED BY RF-SCORE:    0.00 PKD
ROOT
HETATM    1  O   UNL     1      -6.538  10.013  70.461  1.00  0.00    -0.118 OA 
HETATM    2  C   UNL     1      -7.703   9.452  70.884  1.00  0.00    -0.054 C  
HETATM    3  C   UNL     1      -7.475   8.376  71.930  1.00  0.00    -0.103 C  
HETATM    4  O   UNL     1      -8.796   9.799  70.461  1.00  0.00    -0.182 OA 
ENDROOT
BRANCH   3   5
HETATM    5  O   UNL     1      -6.064   8.226  72.160  1.00  0.00    -0.045 OA 
BRANCH   5   6
HETATM    6  C   UNL     1      -5.796   7.885  73.533  1.00  0.00    -0.056 C  
BRANCH   6   7
HETATM    7  C   UNL     1      -7.008   7.122  74.099  1.00  0.00    -0.084 C  
BRANCH   7   8
HETATM    8  N   UNL     1      -6.863   5.657  74.123  1.00  0.00    -0.080 NA 
HETATM    9  C   UNL     1      -8.071   4.930  74.561  1.00  0.00    -0.098 C  
HETATM   10  C   UNL     1      -9.252   4.887  73.551  1.00  0.00    -0.119 C  
HETATM   11  N   UNL     1      -8.886   4.568  72.158  1.00  0.00    -0.120 NA 
HETATM   12  C   UNL     1      -7.637   5.203  71.740  1.00  0.00    -0.106 C  
HETATM   13  C   UNL     1      -6.501   5.140  72.787  1.00  0.00    -0.048 C  
BRANCH  11  14
HETATM   14  C   UNL     1     -10.033   4.654  71.208  1.00  0.00    -0.198 C  
BRANCH  14  15
HETATM   15  C   UNL     1      -9.743   4.162  69.765  1.00  0.00    -0.278 A  
HETATM   16  C   UNL     1      -9.329   2.844  69.522  1.00  0.00    -0.199 A  
HETATM   17  C   UNL     1      -9.950   4.987  68.639  1.00  0.00    -0.215 A  
HETATM   18  C   UNL     1      -9.145   2.370  68.212  1.00  0.00    -0.225 A  
HETATM   19  C   UNL     1      -9.372   3.208  67.127  1.00  0.00    -0.197 A  
HETATM   20  C   UNL     1      -9.773   4.521  67.338  1.00  0.00    -0.218 A  
ENDBRANCH  14  15
BRANCH  14  21
HETATM   21  C   UNL     1     -10.845   5.971  71.204  1.00  0.00    -0.338 A  
HETATM   22  C   UNL     1     -11.955   8.564  71.266  1.00  0.00    -0.294 A  
HETATM   23 CL   UNL     1     -12.513  10.188  71.352  1.00  0.00    -0.487 Cl 
HETATM   24  C   UNL     1     -12.038   7.748  72.386  1.00  0.00    -0.297 A  
HETATM   25  C   UNL     1     -10.848   6.788  70.056  1.00  0.00    -0.311 A  
HETATM   26  C   UNL     1     -11.512   6.455  72.344  1.00  0.00    -0.320 A  
HETATM   27  C   UNL     1     -11.401   8.075  70.087  1.00  0.00    -0.081 A  
ENDBRANCH  14  21
ENDBRANCH  11  14
ENDBRANCH   7   8
ENDBRANCH   6   7
ENDBRANCH   5   6
ENDBRANCH   3   5
TORSDOF 7
ENDMDL
MODEL      214
REMARK 921   NORMALIZED FREE ENERGY PREDICTED BY IDOCK:   -1.90 KCAL/MOL
REMARK 922        TOTAL FREE ENERGY PREDICTED BY IDOCK:   -3.72 KCAL/MOL
REMARK 923 INTER-LIGAND FREE ENERGY PREDICTED BY IDOCK:   -4.25 KCAL/MOL
REMARK 924 INTRA-LIGAND FREE ENERGY PREDICTED BY IDOCK:    0.53 KCAL/MOL
REMARK 927      BINDING AFFINITY PREDICTED BY RF-SCORE:    0.00 PKD
ROOT
HETATM    1  O   UNL     1     -10.618   4.728  66.075  1.00  0.00    -0.311 OA 
HETATM    2  C   UNL     1     -10.568   5.743  66.980  1.00  0.00    -0.300 C  
HETATM    3  C   UNL     1      -9.146   6.206  67.243  1.00  0.00    -0.115 C  
HETATM    4  O   UNL     1     -11.567   6.216  67.500  1.00  0.00     0.210 OA 
ENDROOT
BRANCH   3   5
HETATM    5  O   UNL     1      -8.234   5.405  66.473  1.00  0.00    -0.108 OA 
BRANCH   5   6
HETATM    6  C   UNL     1      -8.013   5.978  65.170  1.00  0.00    -0.123 C  
BRANCH   6   7
HETATM    7  C   UNL     1      -8.275   7.494  65.245  1.00  0.00    -0.129 C  
BRANCH   7   8
HETATM    8  N   UNL     1      -7.091   8.339  65.022  1.00  0.00    -0.074 NA 
HETATM    9  C   UNL     1      -7.396   9.725  64.613  1.00  0.00    -0.134 C  
HETATM   10  C   UNL     1      -7.966  10.658  65.718  1.00  0.00    -0.152 C  
HETATM   11  N   UNL     1      -7.270  10.604  67.017  1.00  0.00    -0.097 NA 
HETATM   12  C   UNL     1      -6.872   9.247  67.391  1.00  0.00    -0.077 C  
HETATM   13  C   UNL     1      -6.259   8.416  66.240  1.00  0.00    -0.049 C  
BRANCH  11  14
HETATM   14  C   UNL     1      -7.924  11.426  68.075  1.00  0.00    -0.127 C  
BRANCH  14  15
HETATM   15  C   UNL     1      -8.813  10.642  69.077  1.00  0.00    -0.154 A  
HETATM   16  C   UNL     1     -10.201  10.549  68.891  1.00  0.00    -0.223 A  
HETATM   17  C   UNL     1      -8.264   9.936  70.169  1.00  0.00    -0.162 A  
HETATM   18  C   UNL     1     -10.998   9.773  69.748  1.00  0.00    -0.287 A  
HETATM   19  C   UNL     1     -10.419   9.080  70.805  1.00  0.00    -0.304 A  
HETATM   20  C   UNL     1      -9.050   9.162  71.020  1.00  0.00    -0.305 A  
ENDBRANCH  14  15
BRANCH  14  21
HETATM   21  C   UNL     1      -8.603  12.741  67.625  1.00  0.00    -0.181 A  
HETATM   22  C   UNL     1      -9.944  14.928  66.452  1.00  0.00    -0.275 A  
HETATM   23 CL   UNL     1     -10.762  16.192  65.622  1.00  0.00    -0.344 Cl 
HETATM   24  C   UNL     1      -8.558  14.858  66.402  1.00  0.00    -0.018 A  
HETATM   25  C   UNL     1     -10.000  12.880  67.734  1.00  0.00    -0.230 A  
HETATM   26  C   UNL     1      -7.895  13.788  67.008  1.00  0.00     0.105 A  
HETATM   27  C   UNL     1     -10.666  13.967  67.152  1.00  0.00    -0.283 A  
ENDBRANCH  14  21
ENDBRANCH  11  14
ENDBRANCH   7   8
ENDBRANCH   6   7
ENDBRANCH   5   6
ENDBRANCH   3   5
TORSDOF 7
ENDMDL
MODEL      215
REMARK 921   NORMALIZED FREE ENERGY PREDICTED BY IDOCK:   -1.89 KCAL/MOL
REMARK 922        TOTAL FREE ENERGY PREDICTED BY IDOCK:   -3.69 KCAL/MOL
REMARK 923 INTER-LIGAND FREE ENERGY PREDICTED BY IDOCK:   -3.47 KCAL/MOL
REMARK 924 INTRA-LIGAND FREE ENERGY PREDICTED BY IDOCK:   -0.22 KCAL/MOL
REMARK 927      BINDING AFFINITY PREDICTED BY RF-SCORE:    0.00 PKD
ROOT
HETATM    1  O   UNL     1      -7.790  19.999  69.251  1.00  0.00    -0.076 OA 
HETATM    2  C   UNL     1      -7.231  18.868  68.741  1.00  0.00    -0.318 C  
HETATM    3  C   UNL     1      -7.844  18.477  67.409  1.00  0.00    -0.235 C  
HETATM    4  O   UNL     1      -6.332  18.262  69.305  1.00  0.00    -0.241 OA 
ENDROOT
BRANCH   3   5
HETATM    5  O   UNL     1      -8.885  19.409  67.071  1.00  0.00    -0.283 OA 
BRANCH   5   6
HETATM    6  C   UNL     1     -10.142  18.733  66.877  1.00  0.00    -0.358 C  
BRANCH   6   7
HETATM    7  C   UNL     1      -9.910  17.215  66.982  1.00  0.00    -0.276 C  
BRANCH   7   8
HETATM    8  N   UNL     1     -10.621  16.555  68.090  1.00  0.00    -0.315 NA 
HETATM    9  C   UNL     1     -11.463  15.412  67.683  1.00  0.00    -0.251 C  
HETATM   10  C   UNL     1     -10.710  14.115  67.272  1.00  0.00    -0.279 C  
HETATM   11  N   UNL     1      -9.615  13.705  68.170  1.00  0.00    -0.216 NA 
HETATM   12  C   UNL     1      -8.830  14.837  68.663  1.00  0.00    -0.180 C  
HETATM   13  C   UNL     1      -9.670  16.058  69.106  1.00  0.00    -0.251 C  
BRANCH  11  14
HETATM   14  C   UNL     1      -8.849  12.525  67.673  1.00  0.00    -0.179 C  
BRANCH  14  15
HETATM   15  C   UNL     1      -9.171  12.083  66.221  1.00  0.00    -0.208 A  
HETATM   16  C   UNL     1      -8.170  12.045  65.239  1.00  0.00     1.386 A  
HETATM   17  C   UNL     1     -10.457  11.636  65.845  1.00  0.00    -0.300 A  
HETATM   18  C   UNL     1      -8.439  11.568  63.946  1.00  0.00     0.775 A  
HETATM   19  C   UNL     1      -9.714  11.123  63.615  1.00  0.00    -0.352 A  
HETATM   20  C   UNL     1     -10.727  11.159  64.564  1.00  0.00    -0.368 A  
ENDBRANCH  14  15
BRANCH  14  21
HETATM   21  C   UNL     1      -8.736  11.309  68.623  1.00  0.00    -0.136 A  
HETATM   22  C   UNL     1      -8.746   9.329  70.632  1.00  0.00    -0.234 A  
HETATM   23 CL   UNL     1      -8.796   8.217  71.942  1.00  0.00    -0.191 Cl 
HETATM   24  C   UNL     1      -7.618  10.115  70.440  1.00  0.00     0.079 A  
HETATM   25  C   UNL     1      -9.836  10.444  68.785  1.00  0.00    -0.190 A  
HETATM   26  C   UNL     1      -7.606  11.076  69.426  1.00  0.00    -0.058 A  
HETATM   27  C   UNL     1      -9.839   9.459  69.782  1.00  0.00    -0.218 A  
ENDBRANCH  14  21
ENDBRANCH  11  14
ENDBRANCH   7   8
ENDBRANCH   6   7
ENDBRANCH   5   6
ENDBRANCH   3   5
TORSDOF 7
ENDMDL
MODEL      216
REMARK 921   NORMALIZED FREE ENERGY PREDICTED BY IDOCK:   -1.81 KCAL/MOL
REMARK 922        TOTAL FREE ENERGY PREDICTED BY IDOCK:   -3.58 KCAL/MOL
REMARK 923 INTER-LIGAND FREE ENERGY PREDICTED BY IDOCK:   -4.79 KCAL/MOL
REMARK 924 INTRA-LIGAND FREE ENERGY PREDICTED BY IDOCK:    1.21 KCAL/MOL
REMARK 927      BINDING AFFINITY PREDICTED BY RF-SCORE:    0.00 PKD
ROOT
HETATM    1  O   UNL     1      -9.138  17.435  65.614  1.00  0.00    -0.459 OA 
HETATM    2  C   UNL     1     -10.270  16.686  65.515  1.00  0.00    -0.202 C  
HETATM    3  C   UNL     1     -10.330  15.597  66.570  1.00  0.00    -0.291 C  
HETATM    4  O   UNL     1     -11.128  16.893  64.670  1.00  0.00    -0.934 OA 
ENDROOT
BRANCH   3   5
HETATM    5  O   UNL     1      -9.138  15.642  67.371  1.00  0.00    -0.189 OA 
BRANCH   5   6
HETATM    6  C   UNL     1      -9.457  15.736  68.773  1.00  0.00    -0.219 C  
BRANCH   6   7
HETATM    7  C   UNL     1     -10.881  16.304  68.919  1.00  0.00    -0.317 C  
BRANCH   7   8
HETATM    8  N   UNL     1     -11.647  15.771  70.057  1.00  0.00    -0.335 NA 
HETATM    9  C   UNL     1     -12.884  15.058  69.682  1.00  0.00     0.180 C  
HETATM   10  C   UNL     1     -12.700  13.657  69.033  1.00  0.00     0.765 C  
HETATM   11  N   UNL     1     -11.729  12.770  69.700  1.00  0.00    -0.312 NA 
HETATM   12  C   UNL     1     -10.539  13.481  70.167  1.00  0.00     1.235 C  
HETATM   13  C   UNL     1     -10.827  14.836  70.854  1.00  0.00     0.195 C  
BRANCH  11  14
HETATM   14  C   UNL     1     -11.501  11.487  68.975  1.00  0.00    -0.291 C  
BRANCH  14  15
HETATM   15  C   UNL     1     -10.394  10.573  69.565  1.00  0.00    -0.251 A  
HETATM   16  C   UNL     1      -9.039  10.810  69.289  1.00  0.00    -0.056 A  
HETATM   17  C   UNL     1     -10.693   9.517  70.454  1.00  0.00    -0.341 A  
HETATM   18  C   UNL     1      -8.030  10.037  69.886  1.00  0.00    -0.184 A  
HETATM   19  C   UNL     1      -8.362   9.014  70.767  1.00  0.00    -0.228 A  
HETATM   20  C   UNL     1      -9.695   8.750  71.051  1.00  0.00    -0.292 A  
ENDBRANCH  14  15
BRANCH  14  21
HETATM   21  C   UNL     1     -11.414  11.556  67.432  1.00  0.00    -0.349 A  
HETATM   22  C   UNL     1     -10.856  11.811  64.678  1.00  0.00    -0.307 A  
HETATM   23 CL   UNL     1     -10.403  12.030  63.035  1.00  0.00    -0.257 Cl 
HETATM   24  C   UNL     1     -11.551  12.814  65.340  1.00  0.00    -0.393 A  
HETATM   25  C   UNL     1     -10.784  10.517  66.719  1.00  0.00    -0.252 A  
HETATM   26  C   UNL     1     -11.850  12.673  66.697  1.00  0.00    -0.449 A  
HETATM   27  C   UNL     1     -10.509  10.644  65.351  1.00  0.00    -0.254 A  
ENDBRANCH  14  21
ENDBRANCH  11  14
ENDBRANCH   7   8
ENDBRANCH   6   7
ENDBRANCH   5   6
ENDBRANCH   3   5
TORSDOF 7
ENDMDL
MODEL      217
REMARK 921   NORMALIZED FREE ENERGY PREDICTED BY IDOCK:   -0.93 KCAL/MOL
REMARK 922        TOTAL FREE ENERGY PREDICTED BY IDOCK:   -2.35 KCAL/MOL
REMARK 923 INTER-LIGAND FREE ENERGY PREDICTED BY IDOCK:   -1.78 KCAL/MOL
REMARK 924 INTRA-LIGAND FREE ENERGY PREDICTED BY IDOCK:   -0.57 KCAL/MOL
REMARK 927      BINDING AFFINITY PREDICTED BY RF-SCORE:    0.00 PKD
ROOT
HETATM    1  O   UNL     1     -10.548   5.131  65.759  1.00  0.00    -0.147 OA 
HETATM    2  C   UNL     1     -10.379   6.009  66.785  1.00  0.00    -0.238 C  
HETATM    3  C   UNL     1      -9.005   6.655  66.767  1.00  0.00    -0.133 C  
HETATM    4  O   UNL     1     -11.253   6.242  67.607  1.00  0.00    -0.327 OA 
ENDROOT
BRANCH   3   5
HETATM    5  O   UNL     1      -8.242   6.122  65.671  1.00  0.00    -0.127 OA 
BRANCH   5   6
HETATM    6  C   UNL     1      -8.345   6.966  64.509  1.00  0.00     0.089 C  
BRANCH   6   7
HETATM    7  C   UNL     1      -8.573   8.418  64.970  1.00  0.00    -0.106 C  
BRANCH   7   8
HETATM    8  N   UNL     1      -7.546   9.376  64.529  1.00  0.00    -0.106 NA 
HETATM    9  C   UNL     1      -7.762  10.761  64.995  1.00  0.00     0.139 C  
HETATM   10  C   UNL     1      -7.493  11.028  66.503  1.00  0.00    -0.145 C  
HETATM   11  N   UNL     1      -6.247  10.450  67.039  1.00  0.00    -0.065 NA 
HETATM   12  C   UNL     1      -5.967   9.115  66.510  1.00  0.00    -0.059 C  
HETATM   13  C   UNL     1      -6.205   8.964  64.989  1.00  0.00    -0.064 C  
BRANCH  11  14
HETATM   14  C   UNL     1      -6.093  10.632  68.512  1.00  0.00    -0.046 C  
BRANCH  14  15
HETATM   15  C   UNL     1      -7.079   9.822  69.393  1.00  0.00    -0.066 A  
HETATM   16  C   UNL     1      -6.658   9.231  70.593  1.00  0.00    -0.079 A  
HETATM   17  C   UNL     1      -8.448   9.703  69.066  1.00  0.00    -0.131 A  
HETATM   18  C   UNL     1      -7.565   8.566  71.434  1.00  0.00    -0.124 A  
HETATM   19  C   UNL     1      -8.909   8.482  71.086  1.00  0.00    -0.223 A  
HETATM   20  C   UNL     1      -9.352   9.048  69.898  1.00  0.00    -0.182 A  
ENDBRANCH  14  15
BRANCH  14  21
HETATM   21  C   UNL     1      -5.933  12.082  69.027  1.00  0.00    -0.068 A  
HETATM   22  C   UNL     1      -6.004  14.805  69.762  1.00  0.00    -0.123 A  
HETATM   23 CL   UNL     1      -6.145  16.481  70.118  1.00  0.00    -0.150 Cl 
HETATM   24  C   UNL     1      -5.191  14.391  68.715  1.00  0.00    -0.089 A  
HETATM   25  C   UNL     1      -6.685  12.516  70.137  1.00  0.00     0.514 A  
HETATM   26  C   UNL     1      -5.137  13.038  68.371  1.00  0.00    -0.071 A  
HETATM   27  C   UNL     1      -6.718  13.869  70.502  1.00  0.00     0.349 A  
ENDBRANCH  14  21
ENDBRANCH  11  14
ENDBRANCH   7   8
ENDBRANCH   6   7
ENDBRANCH   5   6
ENDBRANCH   3   5
TORSDOF 7
ENDMDL
MODEL      218
REMARK 921   NORMALIZED FREE ENERGY PREDICTED BY IDOCK:   -0.75 KCAL/MOL
REMARK 922        TOTAL FREE ENERGY PREDICTED BY IDOCK:   -2.09 KCAL/MOL
REMARK 923 INTER-LIGAND FREE ENERGY PREDICTED BY IDOCK:   -3.31 KCAL/MOL
REMARK 924 INTRA-LIGAND FREE ENERGY PREDICTED BY IDOCK:    1.22 KCAL/MOL
REMARK 927      BINDING AFFINITY PREDICTED BY RF-SCORE:    0.00 PKD
ROOT
HETATM    1  O   UNL     1      -9.660   7.877  65.988  1.00  0.00    -0.108 OA 
HETATM    2  C   UNL     1     -10.508   8.036  67.040  1.00  0.00    -0.340 C  
HETATM    3  C   UNL     1      -9.952   8.988  68.084  1.00  0.00    -0.175 C  
HETATM    4  O   UNL     1     -11.590   7.474  67.109  1.00  0.00     0.699 OA 
ENDROOT
BRANCH   3   5
HETATM    5  O   UNL     1      -8.648   9.436  67.676  1.00  0.00    -0.116 OA 
BRANCH   5   6
HETATM    6  C   UNL     1      -7.653   9.102  68.661  1.00  0.00    -0.084 C  
BRANCH   6   7
HETATM    7  C   UNL     1      -6.396   8.582  67.940  1.00  0.00    -0.057 C  
BRANCH   7   8
HETATM    8  N   UNL     1      -6.256   7.116  67.919  1.00  0.00    -0.041 NA 
HETATM    9  C   UNL     1      -5.431   6.566  69.014  1.00  0.00    -0.016 C  
HETATM   10  C   UNL     1      -6.072   6.576  70.430  1.00  0.00    -0.031 C  
HETATM   11  N   UNL     1      -7.469   6.108  70.499  1.00  0.00    -0.088 NA 
HETATM   12  C   UNL     1      -8.276   6.563  69.368  1.00  0.00    -0.119 C  
HETATM   13  C   UNL     1      -7.576   6.457  67.993  1.00  0.00    -0.103 C  
BRANCH  11  14
HETATM   14  C   UNL     1      -8.075   6.247  71.855  1.00  0.00    -0.109 C  
BRANCH  14  15
HETATM   15  C   UNL     1      -7.819   5.064  72.826  1.00  0.00    -0.098 A  
HETATM   16  C   UNL     1      -8.673   3.951  72.850  1.00  0.00    -0.102 A  
HETATM   17  C   UNL     1      -6.687   5.022  73.669  1.00  0.00    -0.070 A  
HETATM   18  C   UNL     1      -8.399   2.843  73.669  1.00  0.00    -0.073 A  
HETATM   19  C   UNL     1      -7.267   2.832  74.476  1.00  0.00    -0.042 A  
HETATM   20  C   UNL     1      -6.410   3.923  74.479  1.00  0.00    -0.034 A  
ENDBRANCH  14  15
BRANCH  14  21
HETATM   21  C   UNL     1      -9.545   6.725  71.921  1.00  0.00    -0.150 A  
HETATM   22  C   UNL     1     -12.161   7.747  71.652  1.00  0.00    -0.304 A  
HETATM   23 CL   UNL     1     -13.712   8.435  71.379  1.00  0.00    -0.316 Cl 
HETATM   24  C   UNL     1     -11.208   8.462  72.366  1.00  0.00    -0.438 A  
HETATM   25  C   UNL     1     -10.552   5.982  71.274  1.00  0.00    -0.302 A  
HETATM   26  C   UNL     1      -9.921   7.940  72.521  1.00  0.00    -0.312 A  
HETATM   27  C   UNL     1     -11.852   6.490  71.143  1.00  0.00    -0.383 A  
ENDBRANCH  14  21
ENDBRANCH  11  14
ENDBRANCH   7   8
ENDBRANCH   6   7
ENDBRANCH   5   6
ENDBRANCH   3   5
TORSDOF 7
ENDMDL
MODEL      219
REMARK 921   NORMALIZED FREE ENERGY PREDICTED BY IDOCK:   -0.50 KCAL/MOL
REMARK 922        TOTAL FREE ENERGY PREDICTED BY IDOCK:   -1.73 KCAL/MOL
REMARK 923 INTER-LIGAND FREE ENERGY PREDICTED BY IDOCK:   -1.88 KCAL/MOL
REMARK 924 INTRA-LIGAND FREE ENERGY PREDICTED BY IDOCK:    0.15 KCAL/MOL
REMARK 927      BINDING AFFINITY PREDICTED BY RF-SCORE:    0.00 PKD
ROOT
HETATM    1  O   UNL     1     -11.757  10.935  70.186  1.00  0.00    -0.288 OA 
HETATM    2  C   UNL     1     -11.996   9.707  70.721  1.00  0.00    -0.277 C  
HETATM    3  C   UNL     1     -11.157   8.625  70.067  1.00  0.00    -0.157 C  
HETATM    4  O   UNL     1     -12.791   9.525  71.631  1.00  0.00    -0.339 OA 
ENDROOT
BRANCH   3   5
HETATM    5  O   UNL     1     -10.357   9.206  69.024  1.00  0.00    -0.206 OA 
BRANCH   5   6
HETATM    6  C   UNL     1      -9.056   9.582  69.516  1.00  0.00    -0.185 C  
BRANCH   6   7
HETATM    7  C   UNL     1      -8.780  11.043  69.117  1.00  0.00     0.011 C  
BRANCH   7   8
HETATM    8  N   UNL     1      -7.602  11.238  68.256  1.00  0.00    -0.107 NA 
HETATM    9  C   UNL     1      -7.850  11.006  66.818  1.00  0.00    -0.149 C  
HETATM   10  C   UNL     1      -8.683  12.092  66.080  1.00  0.00     0.099 C  
HETATM   11  N   UNL     1      -8.296  13.488  66.359  1.00  0.00     0.469 NA 
HETATM   12  C   UNL     1      -7.950  13.712  67.762  1.00  0.00    -0.172 C  
HETATM   13  C   UNL     1      -7.069  12.609  68.392  1.00  0.00    -0.101 C  
BRANCH  11  14
HETATM   14  C   UNL     1      -9.196  14.492  65.721  1.00  0.00     0.167 C  
BRANCH  14  15
HETATM   15  C   UNL     1      -9.339  15.838  66.480  1.00  0.00    -0.312 A  
HETATM   16  C   UNL     1     -10.573  16.237  67.016  1.00  0.00    -0.284 A  
HETATM   17  C   UNL     1      -8.232  16.678  66.726  1.00  0.00    -0.274 A  
HETATM   18  C   UNL     1     -10.689  17.414  67.774  1.00  0.00    -0.332 A  
HETATM   19  C   UNL     1      -9.573  18.210  68.006  1.00  0.00    -0.304 A  
HETATM   20  C   UNL     1      -8.342  17.845  67.480  1.00  0.00    -0.228 A  
ENDBRANCH  14  15
BRANCH  14  21
HETATM   21  C   UNL     1     -10.564  13.984  65.207  1.00  0.00    -0.376 A  
HETATM   22  C   UNL     1     -12.887  12.671  64.293  1.00  0.00    -0.215 A  
HETATM   23 CL   UNL     1     -14.229  11.760  63.723  1.00  0.00     2.282 Cl 
HETATM   24  C   UNL     1     -12.032  13.278  63.384  1.00  0.00    -0.491 A  
HETATM   25  C   UNL     1     -11.490  13.433  66.114  1.00  0.00    -0.354 A  
HETATM   26  C   UNL     1     -10.897  13.952  63.841  1.00  0.00     0.428 A  
HETATM   27  C   UNL     1     -12.645  12.782  65.659  1.00  0.00    -0.188 A  
ENDBRANCH  14  21
ENDBRANCH  11  14
ENDBRANCH   7   8
ENDBRANCH   6   7
ENDBRANCH   5   6
ENDBRANCH   3   5
TORSDOF 7
ENDMDL
MODEL      220
REMARK 921   NORMALIZED FREE ENERGY PREDICTED BY IDOCK:   -0.29 KCAL/MOL
REMARK 922        TOTAL FREE ENERGY PREDICTED BY IDOCK:   -1.44 KCAL/MOL
REMARK 923 INTER-LIGAND FREE ENERGY PREDICTED BY IDOCK:   -2.99 KCAL/MOL
REMARK 924 INTRA-LIGAND FREE ENERGY PREDICTED BY IDOCK:    1.55 KCAL/MOL
REMARK 927      BINDING AFFINITY PREDICTED BY RF-SCORE:    0.00 PKD
ROOT
HETATM    1  O   UNL     1     -10.121   9.215  71.573  1.00  0.00    -0.319 OA 
HETATM    2  C   UNL     1     -10.747   8.358  72.425  1.00  0.00    -0.335 C  
HETATM    3  C   UNL     1      -9.835   7.902  73.550  1.00  0.00    -0.141 C  
HETATM    4  O   UNL     1     -11.912   8.019  72.286  1.00  0.00    -0.329 OA 
ENDROOT
BRANCH   3   5
HETATM    5  O   UNL     1      -8.533   8.487  73.376  1.00  0.00    -0.367 OA 
BRANCH   5   6
HETATM    6  C   UNL     1      -7.804   7.827  72.325  1.00  0.00    -0.108 C  
BRANCH   6   7
HETATM    7  C   UNL     1      -6.340   7.654  72.771  1.00  0.00    -0.061 C  
BRANCH   7   8
HETATM    8  N   UNL     1      -5.336   8.070  71.778  1.00  0.00    -0.034 NA 
HETATM    9  C   UNL     1      -5.663   7.700  70.385  1.00  0.00    -0.023 C  
HETATM   10  C   UNL     1      -6.803   8.513  69.708  1.00  0.00    -0.043 C  
HETATM   11  N   UNL     1      -6.739   9.974  69.894  1.00  0.00    -0.083 NA 
HETATM   12  C   UNL     1      -6.319  10.357  71.242  1.00  0.00     0.427 C  
HETATM   13  C   UNL     1      -5.139   9.533  71.807  1.00  0.00    -0.070 C  
BRANCH  11  14
HETATM   14  C   UNL     1      -7.914  10.697  69.327  1.00  0.00    -0.135 C  
BRANCH  14  15
HETATM   15  C   UNL     1      -8.803   9.872  68.360  1.00  0.00    -0.120 A  
HETATM   16  C   UNL     1     -10.156  10.192  68.173  1.00  0.00    -0.178 A  
HETATM   17  C   UNL     1      -8.279   8.819  67.579  1.00  0.00    -0.110 A  
HETATM   18  C   UNL     1     -10.944   9.500  67.238  1.00  0.00    -0.062 A  
HETATM   19  C   UNL     1     -10.390   8.477  66.477  1.00  0.00    -0.215 A  
HETATM   20  C   UNL     1      -9.056   8.132  66.648  1.00  0.00    -0.202 A  
ENDBRANCH  14  15
BRANCH  14  21
HETATM   21  C   UNL     1      -7.667  12.127  68.789  1.00  0.00    -0.034 A  
HETATM   22  C   UNL     1      -7.072  14.819  68.195  1.00  0.00    -0.121 A  
HETATM   23 CL   UNL     1      -6.692  16.480  67.965  1.00  0.00    -0.139 Cl 
HETATM   24  C   UNL     1      -8.378  14.446  68.482  1.00  0.00    -0.157 A  
HETATM   25  C   UNL     1      -6.367  12.517  68.413  1.00  0.00    -0.064 A  
HETATM   26  C   UNL     1      -8.674  13.107  68.749  1.00  0.00     0.159 A  
HETATM   27  C   UNL     1      -6.072  13.855  68.116  1.00  0.00    -0.128 A  
ENDBRANCH  14  21
ENDBRANCH  11  14
ENDBRANCH   7   8
ENDBRANCH   6   7
ENDBRANCH   5   6
ENDBRANCH   3   5
TORSDOF 7
ENDMDL
MODEL      221
REMARK 921   NORMALIZED FREE ENERGY PREDICTED BY IDOCK:   -0.08 KCAL/MOL
REMARK 922        TOTAL FREE ENERGY PREDICTED BY IDOCK:   -1.14 KCAL/MOL
REMARK 923 INTER-LIGAND FREE ENERGY PREDICTED BY IDOCK:   -2.41 KCAL/MOL
REMARK 924 INTRA-LIGAND FREE ENERGY PREDICTED BY IDOCK:    1.27 KCAL/MOL
REMARK 927      BINDING AFFINITY PREDICTED BY RF-SCORE:    0.00 PKD
ROOT
HETATM    1  O   UNL     1     -12.422  12.106  65.373  1.00  0.00    -0.523 OA 
HETATM    2  C   UNL     1     -11.214  11.528  65.131  1.00  0.00    -0.146 C  
HETATM    3  C   UNL     1     -10.539  11.058  66.407  1.00  0.00    -0.251 C  
HETATM    4  O   UNL     1     -10.753  11.404  64.007  1.00  0.00    -0.341 OA 
ENDROOT
BRANCH   3   5
HETATM    5  O   UNL     1     -11.365  11.392  67.535  1.00  0.00    -0.296 OA 
BRANCH   5   6
HETATM    6  C   UNL     1     -10.856  12.548  68.227  1.00  0.00    -0.234 C  
BRANCH   6   7
HETATM    7  C   UNL     1      -9.974  13.356  67.257  1.00  0.00    -0.232 C  
BRANCH   7   8
HETATM    8  N   UNL     1      -8.755  13.924  67.856  1.00  0.00    -0.173 NA 
HETATM    9  C   UNL     1      -8.392  13.351  69.167  1.00  0.00     0.510 C  
HETATM   10  C   UNL     1      -7.821  11.905  69.152  1.00  0.00     0.212 C  
HETATM   11  N   UNL     1      -6.794  11.639  68.127  1.00  0.00    -0.065 NA 
HETATM   12  C   UNL     1      -7.088  12.283  66.848  1.00  0.00     0.053 C  
HETATM   13  C   UNL     1      -7.592  13.740  66.962  1.00  0.00     0.248 C  
BRANCH  11  14
HETATM   14  C   UNL     1      -6.363  10.212  68.075  1.00  0.00    -0.057 C  
BRANCH  14  15
HETATM   15  C   UNL     1      -6.703   9.458  66.762  1.00  0.00    -0.072 A  
HETATM   16  C   UNL     1      -7.519   8.317  66.775  1.00  0.00    -0.087 A  
HETATM   17  C   UNL     1      -6.269   9.923  65.501  1.00  0.00    -0.084 A  
HETATM   18  C   UNL     1      -7.896   7.680  65.581  1.00  0.00    -0.109 A  
HETATM   19  C   UNL     1      -7.461   8.175  64.356  1.00  0.00    -0.103 A  
HETATM   20  C   UNL     1      -6.643   9.296  64.314  1.00  0.00    -0.086 A  
ENDBRANCH  14  15
BRANCH  14  21
HETATM   21  C   UNL     1      -6.659   9.342  69.320  1.00  0.00    -0.049 A  
HETATM   22  C   UNL     1      -7.453   8.072  71.711  1.00  0.00    -0.081 A  
HETATM   23 CL   UNL     1      -7.990   7.417  73.206  1.00  0.00    -0.121 Cl 
HETATM   24  C   UNL     1      -6.229   8.724  71.646  1.00  0.00    -0.071 A  
HETATM   25  C   UNL     1      -7.857   8.604  69.387  1.00  0.00    -0.096 A  
HETATM   26  C   UNL     1      -5.826   9.328  70.452  1.00  0.00    -0.038 A  
HETATM   27  C   UNL     1      -8.250   7.972  70.575  1.00  0.00    -0.118 A  
ENDBRANCH  14  21
ENDBRANCH  11  14
ENDBRANCH   7   8
ENDBRANCH   6   7
ENDBRANCH   5   6
ENDBRANCH   3   5
TORSDOF 7
ENDMDL
MODEL      222
REMARK 921   NORMALIZED FREE ENERGY PREDICTED BY IDOCK:    0.09 KCAL/MOL
REMARK 922        TOTAL FREE ENERGY PREDICTED BY IDOCK:   -0.90 KCAL/MOL
REMARK 923 INTER-LIGAND FREE ENERGY PREDICTED BY IDOCK:   -6.45 KCAL/MOL
REMARK 924 INTRA-LIGAND FREE ENERGY PREDICTED BY IDOCK:    5.55 KCAL/MOL
REMARK 927      BINDING AFFINITY PREDICTED BY RF-SCORE:    0.00 PKD
ROOT
HETATM    1  O   UNL     1      -9.035   9.342  63.526  1.00  0.00    -0.220 OA 
HETATM    2  C   UNL     1      -7.720   9.004  63.435  1.00  0.00    -0.124 C  
HETATM    3  C   UNL     1      -6.913   9.517  64.614  1.00  0.00    -0.102 C  
HETATM    4  O   UNL     1      -7.267   8.352  62.505  1.00  0.00    -0.093 OA 
ENDROOT
BRANCH   3   5
HETATM    5  O   UNL     1      -7.774  10.258  65.494  1.00  0.00    -0.140 OA 
BRANCH   5   6
HETATM    6  C   UNL     1      -9.123  10.294  64.992  1.00  0.00    -0.207 C  
BRANCH   6   7
HETATM    7  C   UNL     1      -9.292  11.550  64.117  1.00  0.00    -0.001 C  
BRANCH   7   8
HETATM    8  N   UNL     1     -10.655  12.104  64.083  1.00  0.00    -0.332 NA 
HETATM    9  C   UNL     1     -11.518  11.674  65.203  1.00  0.00    -0.111 C  
HETATM   10  C   UNL     1     -11.201  12.295  66.593  1.00  0.00    -0.316 C  
HETATM   11  N   UNL     1     -10.968  13.751  66.599  1.00  0.00    -0.294 NA 
HETATM   12  C   UNL     1     -10.198  14.209  65.443  1.00  0.00    -0.358 C  
HETATM   13  C   UNL     1     -10.627  13.581  64.096  1.00  0.00    -0.158 C  
BRANCH  11  14
HETATM   14  C   UNL     1     -10.554  14.280  67.931  1.00  0.00    -0.240 C  
BRANCH  14  15
HETATM   15  C   UNL     1     -11.294  13.672  69.152  1.00  0.00    -0.335 A  
HETATM   16  C   UNL     1     -12.152  14.454  69.939  1.00  0.00    -0.398 A  
HETATM   17  C   UNL     1     -11.193  12.302  69.479  1.00  0.00    -0.185 A  
HETATM   18  C   UNL     1     -12.887  13.888  70.994  1.00  0.00    -0.394 A  
HETATM   19  C   UNL     1     -12.773  12.531  71.278  1.00  0.00    -0.350 A  
HETATM   20  C   UNL     1     -11.923  11.736  70.522  1.00  0.00    -0.383 A  
ENDBRANCH  14  15
BRANCH  14  21
HETATM   21  C   UNL     1     -10.410  15.815  68.064  1.00  0.00    -0.252 A  
HETATM   22  C   UNL     1      -9.772  18.562  68.120  1.00  0.00    -0.339 A  
HETATM   23 CL   UNL     1      -9.257  20.202  68.120  1.00  0.00    -0.313 Cl 
HETATM   24  C   UNL     1      -9.602  17.789  69.260  1.00  0.00     0.060 A  
HETATM   25  C   UNL     1     -10.650  16.639  66.948  1.00  0.00    -0.229 A  
HETATM   26  C   UNL     1      -9.945  16.435  69.238  1.00  0.00    -0.259 A  
HETATM   27  C   UNL     1     -10.334  18.004  66.977  1.00  0.00    -0.377 A  
ENDBRANCH  14  21
ENDBRANCH  11  14
ENDBRANCH   7   8
ENDBRANCH   6   7
ENDBRANCH   5   6
ENDBRANCH   3   5
TORSDOF 7
ENDMDL
MODEL      223
REMARK 921   NORMALIZED FREE ENERGY PREDICTED BY IDOCK:    1.26 KCAL/MOL
REMARK 922        TOTAL FREE ENERGY PREDICTED BY IDOCK:    0.74 KCAL/MOL
REMARK 923 INTER-LIGAND FREE ENERGY PREDICTED BY IDOCK:   -2.93 KCAL/MOL
REMARK 924 INTRA-LIGAND FREE ENERGY PREDICTED BY IDOCK:    3.67 KCAL/MOL
REMARK 927      BINDING AFFINITY PREDICTED BY RF-SCORE:    0.00 PKD
ROOT
HETATM    1  O   UNL     1      -9.826   7.018  72.074  1.00  0.00    -0.160 OA 
HETATM    2  C   UNL     1     -10.099   8.195  72.699  1.00  0.00    -0.309 C  
HETATM    3  C   UNL     1     -11.366   8.843  72.171  1.00  0.00    -0.299 C  
HETATM    4  O   UNL     1      -9.395   8.652  73.587  1.00  0.00     0.133 OA 
ENDROOT
BRANCH   3   5
HETATM    5  O   UNL     1     -11.913   8.033  71.117  1.00  0.00    -0.293 OA 
BRANCH   5   6
HETATM    6  C   UNL     1     -10.872   7.524  70.261  1.00  0.00    -0.246 C  
BRANCH   6   7
HETATM    7  C   UNL     1     -10.183   8.711  69.561  1.00  0.00    -0.209 C  
BRANCH   7   8
HETATM    8  N   UNL     1     -10.424  10.022  70.184  1.00  0.00    -0.279 NA 
HETATM    9  C   UNL     1      -9.220  10.866  70.321  1.00  0.00     1.731 C  
HETATM   10  C   UNL     1      -8.664  11.489  69.010  1.00  0.00     0.146 C  
HETATM   11  N   UNL     1      -9.670  12.098  68.120  1.00  0.00    -0.203 NA 
HETATM   12  C   UNL     1     -10.909  11.325  68.050  1.00  0.00    -0.218 C  
HETATM   13  C   UNL     1     -11.417  10.799  69.413  1.00  0.00    -0.295 C  
BRANCH  11  14
HETATM   14  C   UNL     1      -9.105  12.577  66.825  1.00  0.00    -0.214 C  
BRANCH  14  15
HETATM   15  C   UNL     1      -9.871  13.747  66.153  1.00  0.00    -0.310 A  
HETATM   16  C   UNL     1     -11.205  13.597  65.746  1.00  0.00    -0.302 A  
HETATM   17  C   UNL     1      -9.290  15.023  65.988  1.00  0.00    -0.304 A  
HETATM   18  C   UNL     1     -11.928  14.677  65.212  1.00  0.00    -0.302 A  
HETATM   19  C   UNL     1     -11.326  15.923  65.077  1.00  0.00    -0.195 A  
HETATM   20  C   UNL     1     -10.004  16.098  65.462  1.00  0.00    -0.251 A  
ENDBRANCH  14  15
BRANCH  14  21
HETATM   21  C   UNL     1      -8.702  11.497  65.792  1.00  0.00    -0.007 A  
HETATM   22  C   UNL     1      -7.625   9.768  63.841  1.00  0.00    -0.133 A  
HETATM   23 CL   UNL     1      -6.880   8.811  62.622  1.00  0.00    -0.094 Cl 
HETATM   24  C   UNL     1      -8.634  10.657  63.497  1.00  0.00    -0.124 A  
HETATM   25  C   UNL     1      -7.737  10.529  66.133  1.00  0.00    -0.142 A  
HETATM   26  C   UNL     1      -9.185  11.493  64.472  1.00  0.00     0.063 A  
HETATM   27  C   UNL     1      -7.203   9.670  65.163  1.00  0.00    -0.115 A  
ENDBRANCH  14  21
ENDBRANCH  11  14
ENDBRANCH   7   8
ENDBRANCH   6   7
ENDBRANCH   5   6
ENDBRANCH   3   5
TORSDOF 7
ENDMDL
MODEL      224
REMARK 921   NORMALIZED FREE ENERGY PREDICTED BY IDOCK:    1.86 KCAL/MOL
REMARK 922        TOTAL FREE ENERGY PREDICTED BY IDOCK:    1.58 KCAL/MOL
REMARK 923 INTER-LIGAND FREE ENERGY PREDICTED BY IDOCK:    0.48 KCAL/MOL
REMARK 924 INTRA-LIGAND FREE ENERGY PREDICTED BY IDOCK:    1.10 KCAL/MOL
REMARK 927      BINDING AFFINITY PREDICTED BY RF-SCORE:    0.00 PKD
ROOT
HETATM    1  O   UNL     1     -10.239   9.262  71.517  1.00  0.00    -0.330 OA 
HETATM    2  C   UNL     1     -10.763   8.596  72.581  1.00  0.00    -0.004 C  
HETATM    3  C   UNL     1      -9.690   8.120  73.544  1.00  0.00     0.090 C  
HETATM    4  O   UNL     1     -11.964   8.422  72.728  1.00  0.00    -0.367 OA 
ENDROOT
BRANCH   3   5
HETATM    5  O   UNL     1      -8.396   8.485  73.034  1.00  0.00    -0.358 OA 
BRANCH   5   6
HETATM    6  C   UNL     1      -7.756   7.364  72.394  1.00  0.00    -0.088 C  
BRANCH   6   7
HETATM    7  C   UNL     1      -6.249   7.412  72.705  1.00  0.00    -0.051 C  
BRANCH   7   8
HETATM    8  N   UNL     1      -5.373   7.024  71.587  1.00  0.00    -0.028 NA 
HETATM    9  C   UNL     1      -5.892   5.917  70.759  1.00  0.00    -0.021 C  
HETATM   10  C   UNL     1      -7.087   6.257  69.824  1.00  0.00    -0.072 C  
HETATM   11  N   UNL     1      -6.956   7.510  69.057  1.00  0.00    -0.071 NA 
HETATM   12  C   UNL     1      -6.351   8.591  69.833  1.00  0.00    -0.034 C  
HETATM   13  C   UNL     1      -5.131   8.168  70.684  1.00  0.00    -0.022 C  
BRANCH  11  14
HETATM   14  C   UNL     1      -8.174   7.852  68.267  1.00  0.00    -0.124 C  
BRANCH  14  15
HETATM   15  C   UNL     1      -9.280   6.764  68.238  1.00  0.00    -0.122 A  
HETATM   16  C   UNL     1     -10.621   7.103  68.000  1.00  0.00    -0.251 A  
HETATM   17  C   UNL     1      -8.981   5.391  68.378  1.00  0.00    -0.113 A  
HETATM   18  C   UNL     1     -11.612   6.113  67.893  1.00  0.00     0.821 A  
HETATM   19  C   UNL     1     -11.277   4.770  68.023  1.00  0.00     2.450 A  
HETATM   20  C   UNL     1      -9.960   4.406  68.269  1.00  0.00    -0.066 A  
ENDBRANCH  14  15
BRANCH  14  21
HETATM   21  C   UNL     1      -7.953   8.471  66.866  1.00  0.00    -0.095 A  
HETATM   22  C   UNL     1      -7.141   9.506  64.371  1.00  0.00    -0.108 A  
HETATM   23 CL   UNL     1      -6.518  10.127  62.894  1.00  0.00    -0.129 Cl 
HETATM   24  C   UNL     1      -7.369  10.366  65.436  1.00  0.00    -0.124 A  
HETATM   25  C   UNL     1      -7.795   7.629  65.747  1.00  0.00    -0.106 A  
HETATM   26  C   UNL     1      -7.798   9.853  66.663  1.00  0.00    -0.110 A  
HETATM   27  C   UNL     1      -7.392   8.145  64.508  1.00  0.00    -0.088 A  
ENDBRANCH  14  21
ENDBRANCH  11  14
ENDBRANCH   7   8
ENDBRANCH   6   7
ENDBRANCH   5   6
ENDBRANCH   3   5
TORSDOF 7
ENDMDL
MODEL      225
REMARK 921   NORMALIZED FREE ENERGY PREDICTED BY IDOCK:    2.35 KCAL/MOL
REMARK 922        TOTAL FREE ENERGY PREDICTED BY IDOCK:    2.28 KCAL/MOL
REMARK 923 INTER-LIGAND FREE ENERGY PREDICTED BY IDOCK:   -0.70 KCAL/MOL
REMARK 924 INTRA-LIGAND FREE ENERGY PREDICTED BY IDOCK:    2.98 KCAL/MOL
REMARK 927      BINDING AFFINITY PREDICTED BY RF-SCORE:    0.00 PKD
ROOT
HETATM    1  O   UNL     1     -10.786  11.773  70.242  1.00  0.00     0.510 OA 
HETATM    2  C   UNL     1     -11.150  11.203  69.061  1.00  0.00    -0.242 C  
HETATM    3  C   UNL     1     -10.858   9.714  69.030  1.00  0.00    -0.183 C  
HETATM    4  O   UNL     1     -11.660  11.837  68.150  1.00  0.00    -0.292 OA 
ENDROOT
BRANCH   3   5
HETATM    5  O   UNL     1     -10.237   9.323  70.266  1.00  0.00    -0.196 OA 
BRANCH   5   6
HETATM    6  C   UNL     1      -9.258  10.293  70.684  1.00  0.00     1.079 C  
BRANCH   6   7
HETATM    7  C   UNL     1      -8.339  10.613  69.491  1.00  0.00     0.003 C  
BRANCH   7   8
HETATM    8  N   UNL     1      -6.898  10.580  69.792  1.00  0.00    -0.122 NA 
HETATM    9  C   UNL     1      -6.495   9.522  70.740  1.00  0.00    -0.097 C  
HETATM   10  C   UNL     1      -6.506   8.067  70.193  1.00  0.00    -0.036 C  
HETATM   11  N   UNL     1      -5.894   7.883  68.864  1.00  0.00    -0.034 NA 
HETATM   12  C   UNL     1      -6.203   8.975  67.941  1.00  0.00    -0.051 C  
HETATM   13  C   UNL     1      -6.105  10.388  68.560  1.00  0.00    -0.043 C  
BRANCH  11  14
HETATM   14  C   UNL     1      -6.034   6.496  68.333  1.00  0.00    -0.021 C  
BRANCH  14  15
HETATM   15  C   UNL     1      -6.237   6.386  66.798  1.00  0.00    -0.040 A  
HETATM   16  C   UNL     1      -7.061   7.291  66.112  1.00  0.00    -0.070 A  
HETATM   17  C   UNL     1      -5.554   5.425  66.022  1.00  0.00    -0.013 A  
HETATM   18  C   UNL     1      -7.183   7.246  64.713  1.00  0.00    -0.072 A  
HETATM   19  C   UNL     1      -6.484   6.293  63.981  1.00  0.00    -0.030 A  
HETATM   20  C   UNL     1      -5.670   5.378  64.634  1.00  0.00    -0.017 A  
ENDBRANCH  14  15
BRANCH  14  21
HETATM   21  C   UNL     1      -6.980   5.542  69.099  1.00  0.00    -0.063 A  
HETATM   22  C   UNL     1      -8.797   4.137  70.737  1.00  0.00    -0.086 A  
HETATM   23 CL   UNL     1      -9.903   3.386  71.819  1.00  0.00    -0.238 Cl 
HETATM   24  C   UNL     1      -7.432   4.021  70.960  1.00  0.00    -0.041 A  
HETATM   25  C   UNL     1      -8.365   5.576  68.843  1.00  0.00    -0.102 A  
HETATM   26  C   UNL     1      -6.533   4.696  70.129  1.00  0.00    -0.035 A  
HETATM   27  C   UNL     1      -9.267   4.876  69.656  1.00  0.00    -0.172 A  
ENDBRANCH  14  21
ENDBRANCH  11  14
ENDBRANCH   7   8
ENDBRANCH   6   7
ENDBRANCH   5   6
ENDBRANCH   3   5
TORSDOF 7
ENDMDL
MODEL      226
REMARK 921   NORMALIZED FREE ENERGY PREDICTED BY IDOCK:    2.61 KCAL/MOL
REMARK 922        TOTAL FREE ENERGY PREDICTED BY IDOCK:    2.65 KCAL/MOL
REMARK 923 INTER-LIGAND FREE ENERGY PREDICTED BY IDOCK:   -1.51 KCAL/MOL
REMARK 924 INTRA-LIGAND FREE ENERGY PREDICTED BY IDOCK:    4.16 KCAL/MOL
REMARK 927      BINDING AFFINITY PREDICTED BY RF-SCORE:    0.00 PKD
ROOT
HETATM    1  O   UNL     1     -11.006  18.834  64.614  1.00  0.00    -0.043 OA 
HETATM    2  C   UNL     1     -10.077  19.711  65.083  1.00  0.00     1.005 C  
HETATM    3  C   UNL     1      -9.273  19.132  66.233  1.00  0.00    -0.313 C  
HETATM    4  O   UNL     1      -9.922  20.826  64.609  1.00  0.00     1.033 OA 
ENDROOT
BRANCH   3   5
HETATM    5  O   UNL     1      -9.749  17.809  66.530  1.00  0.00    -0.295 OA 
BRANCH   5   6
HETATM    6  C   UNL     1     -10.699  17.365  65.542  1.00  0.00    -0.078 C  
BRANCH   6   7
HETATM    7  C   UNL     1     -10.428  15.883  65.226  1.00  0.00    -0.377 C  
BRANCH   7   8
HETATM    8  N   UNL     1     -11.029  14.928  66.172  1.00  0.00    -0.330 NA 
HETATM    9  C   UNL     1     -10.211  13.725  66.428  1.00  0.00    -0.292 C  
HETATM   10  C   UNL     1      -8.941  13.930  67.302  1.00  0.00    -0.221 C  
HETATM   11  N   UNL     1      -9.131  14.742  68.518  1.00  0.00    -0.182 NA 
HETATM   12  C   UNL     1     -10.019  15.885  68.305  1.00  0.00    -0.222 C  
HETATM   13  C   UNL     1     -11.287  15.568  67.478  1.00  0.00    -0.232 C  
BRANCH  11  14
HETATM   14  C   UNL     1      -7.863  15.008  69.258  1.00  0.00    -0.190 C  
BRANCH  14  15
HETATM   15  C   UNL     1      -7.003  16.178  68.711  1.00  0.00    -0.148 A  
HETATM   16  C   UNL     1      -6.045  15.962  67.709  1.00  0.00    -0.167 A  
HETATM   17  C   UNL     1      -7.192  17.509  69.141  1.00  0.00    -0.161 A  
HETATM   18  C   UNL     1      -5.321  17.030  67.153  1.00  0.00    -0.182 A  
HETATM   19  C   UNL     1      -5.545  18.330  67.592  1.00  0.00    -0.150 A  
HETATM   20  C   UNL     1      -6.480  18.572  68.590  1.00  0.00    -0.240 A  
ENDBRANCH  14  15
BRANCH  14  21
HETATM   21  C   UNL     1      -6.989  13.784  69.619  1.00  0.00     0.119 A  
HETATM   22  C   UNL     1      -5.759  11.367  70.396  1.00  0.00    -0.151 A  
HETATM   23 CL   UNL     1      -5.125   9.860  70.928  1.00  0.00    -0.045 Cl 
HETATM   24  C   UNL     1      -5.729  12.464  71.246  1.00  0.00     0.237 A  
HETATM   25  C   UNL     1      -6.933  12.682  68.742  1.00  0.00    -0.096 A  
HETATM   26  C   UNL     1      -6.315  13.668  70.847  1.00  0.00     0.292 A  
HETATM   27  C   UNL     1      -6.320  11.483  69.129  1.00  0.00    -0.078 A  
ENDBRANCH  14  21
ENDBRANCH  11  14
ENDBRANCH   7   8
ENDBRANCH   6   7
ENDBRANCH   5   6
ENDBRANCH   3   5
TORSDOF 7
ENDMDL
MODEL      227
REMARK 921   NORMALIZED FREE ENERGY PREDICTED BY IDOCK:    2.84 KCAL/MOL
REMARK 922        TOTAL FREE ENERGY PREDICTED BY IDOCK:    2.97 KCAL/MOL
REMARK 923 INTER-LIGAND FREE ENERGY PREDICTED BY IDOCK:   -2.08 KCAL/MOL
REMARK 924 INTRA-LIGAND FREE ENERGY PREDICTED BY IDOCK:    5.05 KCAL/MOL
REMARK 927      BINDING AFFINITY PREDICTED BY RF-SCORE:    0.00 PKD
ROOT
HETATM    1  O   UNL     1     -10.919   7.810  70.978  1.00  0.00    -0.237 OA 
HETATM    2  C   UNL     1     -11.487   7.452  72.162  1.00  0.00    -0.282 C  
HETATM    3  C   UNL     1     -11.321   5.971  72.453  1.00  0.00    -0.301 C  
HETATM    4  O   UNL     1     -12.050   8.252  72.894  1.00  0.00    -0.290 OA 
ENDROOT
BRANCH   3   5
HETATM    5  O   UNL     1     -10.628   5.345  71.360  1.00  0.00    -0.236 OA 
BRANCH   5   6
HETATM    6  C   UNL     1      -9.893   4.190  71.805  1.00  0.00    -0.182 C  
BRANCH   6   7
HETATM    7  C   UNL     1      -8.916   4.621  72.914  1.00  0.00    -0.118 C  
BRANCH   7   8
HETATM    8  N   UNL     1      -7.741   5.374  72.446  1.00  0.00    -0.100 NA 
HETATM    9  C   UNL     1      -6.853   4.620  71.539  1.00  0.00    -0.038 C  
HETATM   10  C   UNL     1      -7.385   4.379  70.098  1.00  0.00    -0.046 C  
HETATM   11  N   UNL     1      -7.986   5.553  69.438  1.00  0.00    -0.093 NA 
HETATM   12  C   UNL     1      -8.790   6.367  70.349  1.00  0.00    -0.151 C  
HETATM   13  C   UNL     1      -8.149   6.604  71.736  1.00  0.00    -0.103 C  
BRANCH  11  14
HETATM   14  C   UNL     1      -8.586   5.244  68.108  1.00  0.00    -0.099 C  
BRANCH  14  15
HETATM   15  C   UNL     1      -7.680   4.445  67.135  1.00  0.00    -0.089 A  
HETATM   16  C   UNL     1      -6.700   5.091  66.366  1.00  0.00    -0.054 A  
HETATM   17  C   UNL     1      -7.751   3.038  67.033  1.00  0.00    -0.075 A  
HETATM   18  C   UNL     1      -5.823   4.362  65.546  1.00  0.00    -0.022 A  
HETATM   19  C   UNL     1      -5.914   2.976  65.481  1.00  0.00    -0.019 A  
HETATM   20  C   UNL     1      -6.881   2.311  66.223  1.00  0.00    -0.043 A  
ENDBRANCH  14  15
BRANCH  14  21
HETATM   21  C   UNL     1      -9.318   6.398  67.382  1.00  0.00    -0.119 A  
HETATM   22  C   UNL     1     -10.282   8.707  66.080  1.00  0.00     0.287 A  
HETATM   23 CL   UNL     1     -10.757  10.177  65.325  1.00  0.00     0.143 Cl 
HETATM   24  C   UNL     1     -10.553   8.507  67.427  1.00  0.00    -0.304 A  
HETATM   25  C   UNL     1      -9.128   6.584  65.998  1.00  0.00    -0.111 A  
HETATM   26  C   UNL     1     -10.098   7.349  68.062  1.00  0.00    -0.216 A  
HETATM   27  C   UNL     1      -9.609   7.731  65.352  1.00  0.00     0.824 A  
ENDBRANCH  14  21
ENDBRANCH  11  14
ENDBRANCH   7   8
ENDBRANCH   6   7
ENDBRANCH   5   6
ENDBRANCH   3   5
TORSDOF 7
ENDMDL
MODEL      228
REMARK 921   NORMALIZED FREE ENERGY PREDICTED BY IDOCK:    5.04 KCAL/MOL
REMARK 922        TOTAL FREE ENERGY PREDICTED BY IDOCK:    6.07 KCAL/MOL
REMARK 923 INTER-LIGAND FREE ENERGY PREDICTED BY IDOCK:    6.07 KCAL/MOL
REMARK 924 INTRA-LIGAND FREE ENERGY PREDICTED BY IDOCK:   -0.00 KCAL/MOL
REMARK 927      BINDING AFFINITY PREDICTED BY RF-SCORE:    0.00 PKD
ROOT
HETATM    1  O   UNL     1      -8.018  11.669  71.059  1.00  0.00     4.605 OA 
HETATM    2  C   UNL     1      -6.731  11.230  71.017  1.00  0.00     1.777 C  
HETATM    3  C   UNL     1      -5.743  12.368  70.833  1.00  0.00    -0.038 C  
HETATM    4  O   UNL     1      -6.430  10.051  71.128  1.00  0.00    -0.308 OA 
ENDROOT
BRANCH   3   5
HETATM    5  O   UNL     1      -6.460  13.608  70.719  1.00  0.00     0.071 OA 
BRANCH   5   6
HETATM    6  C   UNL     1      -6.474  14.075  69.356  1.00  0.00    -0.118 C  
BRANCH   6   7
HETATM    7  C   UNL     1      -5.126  13.727  68.699  1.00  0.00    -0.084 C  
BRANCH   7   8
HETATM    8  N   UNL     1      -5.214  13.297  67.294  1.00  0.00    -0.329 NA 
HETATM    9  C   UNL     1      -5.318  11.836  67.106  1.00  0.00    -0.113 C  
HETATM   10  C   UNL     1      -6.681  11.189  67.484  1.00  0.00    -0.075 C  
HETATM   11  N   UNL     1      -7.878  11.898  66.996  1.00  0.00    -0.162 NA 
HETATM   12  C   UNL     1      -7.752  13.353  67.083  1.00  0.00     0.019 C  
HETATM   13  C   UNL     1      -6.383  13.908  66.627  1.00  0.00     2.553 C  
BRANCH  11  14
HETATM   14  C   UNL     1      -9.158  11.307  67.482  1.00  0.00    -0.151 C  
BRANCH  14  15
HETATM   15  C   UNL     1      -9.301   9.774  67.289  1.00  0.00    -0.161 A  
HETATM   16  C   UNL     1      -9.978   8.987  68.234  1.00  0.00    -0.198 A  
HETATM   17  C   UNL     1      -8.824   9.119  66.133  1.00  0.00    -0.187 A  
HETATM   18  C   UNL     1     -10.181   7.613  68.023  1.00  0.00    -0.248 A  
HETATM   19  C   UNL     1      -9.709   7.005  66.865  1.00  0.00    -0.228 A  
HETATM   20  C   UNL     1      -9.027   7.757  65.919  1.00  0.00    -0.155 A  
ENDBRANCH  14  15
BRANCH  14  21
HETATM   21  C   UNL     1     -10.463  12.048  67.106  1.00  0.00    -0.244 A  
HETATM   22  C   UNL     1     -12.598  13.637  66.170  1.00  0.00    -0.335 A  
HETATM   23 CL   UNL     1     -13.806  14.689  65.546  1.00  0.00     1.716 Cl 
HETATM   24  C   UNL     1     -12.029  13.902  67.408  1.00  0.00    -0.436 A  
HETATM   25  C   UNL     1     -11.112  11.750  65.892  1.00  0.00    -0.355 A  
HETATM   26  C   UNL     1     -10.990  13.096  67.882  1.00  0.00    -0.271 A  
HETATM   27  C   UNL     1     -12.174  12.539  65.428  1.00  0.00    -0.475 A  
ENDBRANCH  14  21
ENDBRANCH  11  14
ENDBRANCH   7   8
ENDBRANCH   6   7
ENDBRANCH   5   6
ENDBRANCH   3   5
TORSDOF 7
ENDMDL
MODEL      229
REMARK 921   NORMALIZED FREE ENERGY PREDICTED BY IDOCK:    5.34 KCAL/MOL
REMARK 922        TOTAL FREE ENERGY PREDICTED BY IDOCK:    6.49 KCAL/MOL
REMARK 923 INTER-LIGAND FREE ENERGY PREDICTED BY IDOCK:    6.45 KCAL/MOL
REMARK 924 INTRA-LIGAND FREE ENERGY PREDICTED BY IDOCK:    0.04 KCAL/MOL
REMARK 927      BINDING AFFINITY PREDICTED BY RF-SCORE:    0.00 PKD
ROOT
HETATM    1  O   UNL     1      -9.382  17.342  65.790  1.00  0.00    -0.514 OA 
HETATM    2  C   UNL     1     -10.664  16.956  66.033  1.00  0.00    -0.125 C  
HETATM    3  C   UNL     1     -10.779  16.108  67.286  1.00  0.00    -0.277 C  
HETATM    4  O   UNL     1     -11.599  17.279  65.315  1.00  0.00     0.514 OA 
ENDROOT
BRANCH   3   5
HETATM    5  O   UNL     1      -9.473  15.918  67.855  1.00  0.00    -0.211 OA 
BRANCH   5   6
HETATM    6  C   UNL     1      -9.545  15.791  69.288  1.00  0.00    -0.270 C  
BRANCH   6   7
HETATM    7  C   UNL     1     -10.880  16.387  69.771  1.00  0.00    -0.343 C  
BRANCH   7   8
HETATM    8  N   UNL     1     -11.364  15.861  71.058  1.00  0.00    -0.384 NA 
HETATM    9  C   UNL     1     -12.545  14.980  70.955  1.00  0.00    -0.356 C  
HETATM   10  C   UNL     1     -12.297  13.563  70.365  1.00  0.00    -0.327 C  
HETATM   11  N   UNL     1     -11.119  12.851  70.895  1.00  0.00     2.023 NA 
HETATM   12  C   UNL     1      -9.968  13.730  71.098  1.00  0.00     5.600 C  
HETATM   13  C   UNL     1     -10.306  15.093  71.747  1.00  0.00     1.516 C  
BRANCH  11  14
HETATM   14  C   UNL     1     -10.857  11.549  70.217  1.00  0.00     0.820 C  
BRANCH  14  15
HETATM   15  C   UNL     1     -10.880  11.588  68.666  1.00  0.00    -0.253 A  
HETATM   16  C   UNL     1     -12.072  11.375  67.956  1.00  0.00     0.024 A  
HETATM   17  C   UNL     1      -9.731  11.905  67.909  1.00  0.00    -0.192 A  
HETATM   18  C   UNL     1     -12.115  11.490  66.557  1.00  0.00     0.879 A  
HETATM   19  C   UNL     1     -10.965  11.818  65.846  1.00  0.00    -0.354 A  
HETATM   20  C   UNL     1      -9.770  12.023  66.521  1.00  0.00    -0.230 A  
ENDBRANCH  14  15
BRANCH  14  21
HETATM   21  C   UNL     1     -11.602  10.309  70.763  1.00  0.00    -0.446 A  
HETATM   22  C   UNL     1     -13.280   8.168  71.511  1.00  0.00    -0.284 A  
HETATM   23 CL   UNL     1     -14.404   6.928  71.904  1.00  0.00    -0.441 Cl 
HETATM   24  C   UNL     1     -13.161   9.276  72.339  1.00  0.00    -0.501 A  
HETATM   25  C   UNL     1     -11.677   9.138  69.983  1.00  0.00     0.130 A  
HETATM   26  C   UNL     1     -12.308  10.322  71.980  1.00  0.00    -0.079 A  
HETATM   27  C   UNL     1     -12.510   8.074  70.356  1.00  0.00     0.533 A  
ENDBRANCH  14  21
ENDBRANCH  11  14
ENDBRANCH   7   8
ENDBRANCH   6   7
ENDBRANCH   5   6
ENDBRANCH   3   5
TORSDOF 7
ENDMDL
MODEL      230
REMARK 921   NORMALIZED FREE ENERGY PREDICTED BY IDOCK:    5.83 KCAL/MOL
REMARK 922        TOTAL FREE ENERGY PREDICTED BY IDOCK:    7.18 KCAL/MOL
REMARK 923 INTER-LIGAND FREE ENERGY PREDICTED BY IDOCK:    2.51 KCAL/MOL
REMARK 924 INTRA-LIGAND FREE ENERGY PREDICTED BY IDOCK:    4.68 KCAL/MOL
REMARK 927      BINDING AFFINITY PREDICTED BY RF-SCORE:    0.00 PKD
ROOT
HETATM    1  O   UNL     1     -10.077  19.035  64.965  1.00  0.00     0.574 OA 
HETATM    2  C   UNL     1      -8.934  19.533  65.511  1.00  0.00     0.642 C  
HETATM    3  C   UNL     1      -8.447  18.697  66.681  1.00  0.00    -0.292 C  
HETATM    4  O   UNL     1      -8.378  20.534  65.084  1.00  0.00     0.405 OA 
ENDROOT
BRANCH   3   5
HETATM    5  O   UNL     1      -9.364  17.614  66.908  1.00  0.00    -0.249 OA 
BRANCH   5   6
HETATM    6  C   UNL     1     -10.675  17.929  66.400  1.00  0.00    -0.109 C  
BRANCH   6   7
HETATM    7  C   UNL     1     -11.207  16.715  65.616  1.00  0.00     0.292 C  
BRANCH   7   8
HETATM    8  N   UNL     1     -11.768  15.638  66.448  1.00  0.00     0.300 NA 
HETATM    9  C   UNL     1     -11.298  14.284  66.093  1.00  0.00    -0.342 C  
HETATM   10  C   UNL     1      -9.832  13.941  66.480  1.00  0.00    -0.290 C  
HETATM   11  N   UNL     1      -9.426  14.330  67.843  1.00  0.00    -0.207 NA 
HETATM   12  C   UNL     1      -9.967  15.628  68.248  1.00  0.00    -0.213 C  
HETATM   13  C   UNL     1     -11.450  15.852  67.875  1.00  0.00    -0.187 C  
BRANCH  11  14
HETATM   14  C   UNL     1      -7.982  14.088  68.125  1.00  0.00    -0.149 C  
BRANCH  14  15
HETATM   15  C   UNL     1      -7.030  15.269  67.796  1.00  0.00    -0.185 A  
HETATM   16  C   UNL     1      -6.651  16.188  68.786  1.00  0.00    -0.129 A  
HETATM   17  C   UNL     1      -6.453  15.429  66.518  1.00  0.00     1.848 A  
HETATM   18  C   UNL     1      -5.726  17.209  68.514  1.00  0.00    -0.141 A  
HETATM   19  C   UNL     1      -5.168  17.327  67.246  1.00  0.00    -0.160 A  
HETATM   20  C   UNL     1      -5.532  16.438  66.244  1.00  0.00     1.108 A  
ENDBRANCH  14  15
BRANCH  14  21
HETATM   21  C   UNL     1      -7.390  12.738  67.657  1.00  0.00    -0.144 A  
HETATM   22  C   UNL     1      -6.696  10.115  66.885  1.00  0.00    -0.079 A  
HETATM   23 CL   UNL     1      -6.388   8.475  66.470  1.00  0.00    -0.057 Cl 
HETATM   24  C   UNL     1      -6.335  10.585  68.140  1.00  0.00    -0.058 A  
HETATM   25  C   UNL     1      -7.671  12.264  66.360  1.00  0.00     0.470 A  
HETATM   26  C   UNL     1      -6.656  11.894  68.509  1.00  0.00    -0.061 A  
HETATM   27  C   UNL     1      -7.324  10.961  65.977  1.00  0.00    -0.081 A  
ENDBRANCH  14  21
ENDBRANCH  11  14
ENDBRANCH   7   8
ENDBRANCH   6   7
ENDBRANCH   5   6
ENDBRANCH   3   5
TORSDOF 7
ENDMDL
MODEL      231
REMARK 921   NORMALIZED FREE ENERGY PREDICTED BY IDOCK:    5.99 KCAL/MOL
REMARK 922        TOTAL FREE ENERGY PREDICTED BY IDOCK:    7.40 KCAL/MOL
REMARK 923 INTER-LIGAND FREE ENERGY PREDICTED BY IDOCK:    5.48 KCAL/MOL
REMARK 924 INTRA-LIGAND FREE ENERGY PREDICTED BY IDOCK:    1.92 KCAL/MOL
REMARK 927      BINDING AFFINITY PREDICTED BY RF-SCORE:    0.00 PKD
ROOT
HETATM    1  O   UNL     1      -7.793  11.542  70.987  1.00  0.00     3.915 OA 
HETATM    2  C   UNL     1      -6.852  10.559  70.948  1.00  0.00     0.655 C  
HETATM    3  C   UNL     1      -5.481  11.093  70.575  1.00  0.00    -0.124 C  
HETATM    4  O   UNL     1      -7.106   9.390  71.198  1.00  0.00    -0.244 OA 
ENDROOT
BRANCH   3   5
HETATM    5  O   UNL     1      -5.570  12.507  70.332  1.00  0.00    -0.133 OA 
BRANCH   5   6
HETATM    6  C   UNL     1      -5.656  12.786  68.921  1.00  0.00    -0.071 C  
BRANCH   6   7
HETATM    7  C   UNL     1      -5.898  11.465  68.169  1.00  0.00    -0.045 C  
BRANCH   7   8
HETATM    8  N   UNL     1      -6.981  11.508  67.174  1.00  0.00    -0.127 NA 
HETATM    9  C   UNL     1      -8.307  11.119  67.695  1.00  0.00    -0.122 C  
HETATM   10  C   UNL     1      -9.005  12.143  68.633  1.00  0.00    -0.000 C  
HETATM   11  N   UNL     1      -8.979  13.545  68.175  1.00  0.00    -0.184 NA 
HETATM   12  C   UNL     1      -7.703  13.919  67.564  1.00  0.00    -0.179 C  
HETATM   13  C   UNL     1      -7.118  12.862  66.599  1.00  0.00     1.005 C  
BRANCH  11  14
HETATM   14  C   UNL     1      -9.555  14.503  69.161  1.00  0.00    -0.027 C  
BRANCH  14  15
HETATM   15  C   UNL     1     -11.065  14.318  69.469  1.00  0.00    -0.244 A  
HETATM   16  C   UNL     1     -11.686  13.070  69.312  1.00  0.00    -0.375 A  
HETATM   17  C   UNL     1     -11.857  15.369  69.982  1.00  0.00    -0.368 A  
HETATM   18  C   UNL     1     -13.032  12.878  69.667  1.00  0.00     1.057 A  
HETATM   19  C   UNL     1     -13.776  13.933  70.182  1.00  0.00     1.596 A  
HETATM   20  C   UNL     1     -13.191  15.182  70.339  1.00  0.00    -0.169 A  
ENDBRANCH  14  15
BRANCH  14  21
HETATM   21  C   UNL     1      -9.193  15.997  68.985  1.00  0.00    -0.244 A  
HETATM   22  C   UNL     1      -8.297  18.592  68.336  1.00  0.00    -0.334 A  
HETATM   23 CL   UNL     1      -7.662  20.116  67.858  1.00  0.00    -0.320 Cl 
HETATM   24  C   UNL     1      -7.697  17.892  69.374  1.00  0.00     0.255 A  
HETATM   25  C   UNL     1      -9.838  16.761  67.993  1.00  0.00    -0.265 A  
HETATM   26  C   UNL     1      -8.161  16.618  69.712  1.00  0.00     0.834 A  
HETATM   27  C   UNL     1      -9.393  18.051  67.672  1.00  0.00    -0.259 A  
ENDBRANCH  14  21
ENDBRANCH  11  14
ENDBRANCH   7   8
ENDBRANCH   6   7
ENDBRANCH   5   6
ENDBRANCH   3   5
TORSDOF 7
ENDMDL
MODEL      232
REMARK 921   NORMALIZED FREE ENERGY PREDICTED BY IDOCK:    7.18 KCAL/MOL
REMARK 922        TOTAL FREE ENERGY PREDICTED BY IDOCK:    9.08 KCAL/MOL
REMARK 923 INTER-LIGAND FREE ENERGY PREDICTED BY IDOCK:    5.28 KCAL/MOL
REMARK 924 INTRA-LIGAND FREE ENERGY PREDICTED BY IDOCK:    3.80 KCAL/MOL
REMARK 927      BINDING AFFINITY PREDICTED BY RF-SCORE:    0.00 PKD
ROOT
HETATM    1  O   UNL     1     -10.377  10.507  70.752  1.00  0.00     0.351 OA 
HETATM    2  C   UNL     1     -10.435   9.279  71.335  1.00  0.00    -0.338 C  
HETATM    3  C   UNL     1      -9.957   8.179  70.404  1.00  0.00    -0.188 C  
HETATM    4  O   UNL     1     -10.822   9.108  72.482  1.00  0.00     0.095 OA 
ENDROOT
BRANCH   3   5
HETATM    5  O   UNL     1      -9.603   8.751  69.133  1.00  0.00    -0.159 OA 
BRANCH   5   6
HETATM    6  C   UNL     1      -8.318   9.399  69.196  1.00  0.00    -0.125 C  
BRANCH   6   7
HETATM    7  C   UNL     1      -8.533  10.896  69.484  1.00  0.00     0.211 C  
BRANCH   7   8
HETATM    8  N   UNL     1      -9.382  11.599  68.508  1.00  0.00    -0.190 NA 
HETATM    9  C   UNL     1      -9.918  12.891  68.982  1.00  0.00     0.247 C  
HETATM   10  C   UNL     1      -8.902  14.064  69.078  1.00  0.00     0.177 C  
HETATM   11  N   UNL     1      -8.007  14.226  67.917  1.00  0.00    -0.138 NA 
HETATM   12  C   UNL     1      -7.546  12.949  67.372  1.00  0.00    -0.148 C  
HETATM   13  C   UNL     1      -8.642  11.865  67.257  1.00  0.00    -0.170 C  
BRANCH  11  14
HETATM   14  C   UNL     1      -6.975  15.286  68.105  1.00  0.00    -0.126 C  
BRANCH  14  15
HETATM   15  C   UNL     1      -6.648  15.646  69.579  1.00  0.00    -0.179 A  
HETATM   16  C   UNL     1      -5.647  16.578  69.890  1.00  0.00    -0.193 A  
HETATM   17  C   UNL     1      -7.383  15.110  70.659  1.00  0.00     0.898 A  
HETATM   18  C   UNL     1      -5.404  16.967  71.218  1.00  0.00     0.075 A  
HETATM   19  C   UNL     1      -6.157  16.428  72.254  1.00  0.00     2.596 A  
HETATM   20  C   UNL     1      -7.147  15.495  71.977  1.00  0.00     4.039 A  
ENDBRANCH  14  15
BRANCH  14  21
HETATM   21  C   UNL     1      -7.102  16.555  67.229  1.00  0.00    -0.205 A  
HETATM   22  C   UNL     1      -7.255  19.082  65.985  1.00  0.00    -0.268 A  
HETATM   23 CL   UNL     1      -7.350  20.677  65.351  1.00  0.00    -0.022 Cl 
HETATM   24  C   UNL     1      -8.419  18.411  66.334  1.00  0.00    -0.264 A  
HETATM   25  C   UNL     1      -5.940  17.220  66.790  1.00  0.00    -0.232 A  
HETATM   26  C   UNL     1      -8.340  17.146  66.924  1.00  0.00    -0.252 A  
HETATM   27  C   UNL     1      -6.017  18.475  66.171  1.00  0.00    -0.205 A  
ENDBRANCH  14  21
ENDBRANCH  11  14
ENDBRANCH   7   8
ENDBRANCH   6   7
ENDBRANCH   5   6
ENDBRANCH   3   5
TORSDOF 7
ENDMDL
MODEL      233
REMARK 921   NORMALIZED FREE ENERGY PREDICTED BY IDOCK:   13.77 KCAL/MOL
REMARK 922        TOTAL FREE ENERGY PREDICTED BY IDOCK:   18.38 KCAL/MOL
REMARK 923 INTER-LIGAND FREE ENERGY PREDICTED BY IDOCK:    5.07 KCAL/MOL
REMARK 924 INTRA-LIGAND FREE ENERGY PREDICTED BY IDOCK:   13.31 KCAL/MOL
REMARK 927      BINDING AFFINITY PREDICTED BY RF-SCORE:    0.00 PKD
ROOT
HETATM    1  O   UNL     1     -11.025  12.897  64.123  1.00  0.00    -0.363 OA 
HETATM    2  C   UNL     1     -11.855  11.821  64.192  1.00  0.00    -0.256 C  
HETATM    3  C   UNL     1     -11.211  10.564  63.638  1.00  0.00     1.733 C  
HETATM    4  O   UNL     1     -12.982  11.884  64.660  1.00  0.00    -0.343 OA 
ENDROOT
BRANCH   3   5
HETATM    5  O   UNL     1      -9.893  10.875  63.156  1.00  0.00    -0.313 OA 
BRANCH   5   6
HETATM    6  C   UNL     1      -8.919  10.783  64.213  1.00  0.00    -0.158 C  
BRANCH   6   7
HETATM    7  C   UNL     1      -8.585  12.203  64.704  1.00  0.00     1.600 C  
BRANCH   7   8
HETATM    8  N   UNL     1      -9.737  13.115  64.795  1.00  0.00     0.039 NA 
HETATM    9  C   UNL     1     -10.754  12.717  65.790  1.00  0.00    -0.272 C  
HETATM   10  C   UNL     1     -10.367  12.910  67.283  1.00  0.00    -0.234 C  
HETATM   11  N   UNL     1      -9.742  14.203  67.616  1.00  0.00    -0.224 NA 
HETATM   12  C   UNL     1      -8.804  14.660  66.591  1.00  0.00    -0.209 C  
HETATM   13  C   UNL     1      -9.302  14.484  65.138  1.00  0.00     0.819 C  
BRANCH  11  14
HETATM   14  C   UNL     1      -9.283  14.294  69.033  1.00  0.00     0.044 C  
BRANCH  14  15
HETATM   15  C   UNL     1      -7.873  13.713  69.317  1.00  0.00     0.358 A  
HETATM   16  C   UNL     1      -6.862  14.510  69.874  1.00  0.00    -0.097 A  
HETATM   17  C   UNL     1      -7.568  12.352  69.098  1.00  0.00     0.223 A  
HETATM   18  C   UNL     1      -5.610  13.968  70.209  1.00  0.00    -0.125 A  
HETATM   19  C   UNL     1      -5.351  12.620  69.991  1.00  0.00    -0.102 A  
HETATM   20  C   UNL     1      -6.329  11.809  69.432  1.00  0.00    -0.114 A  
ENDBRANCH  14  15
BRANCH  14  21
HETATM   21  C   UNL     1     -10.296  13.883  70.127  1.00  0.00     1.184 A  
HETATM   22  C   UNL     1     -12.437  13.169  71.821  1.00  0.00     0.056 A  
HETATM   23 CL   UNL     1     -13.825  12.776  72.755  1.00  0.00    -0.047 Cl 
HETATM   24  C   UNL     1     -11.931  14.462  71.850  1.00  0.00    -0.157 A  
HETATM   25  C   UNL     1     -10.773  12.558  70.177  1.00  0.00     1.380 A  
HETATM   26  C   UNL     1     -10.853  14.805  71.031  1.00  0.00     0.210 A  
HETATM   27  C   UNL     1     -11.835  12.204  71.019  1.00  0.00     0.436 A  
ENDBRANCH  14  21
ENDBRANCH  11  14
ENDBRANCH   7   8
ENDBRANCH   6   7
ENDBRANCH   5   6
ENDBRANCH   3   5
TORSDOF 7
ENDMDL
MODEL      234
REMARK 921   NORMALIZED FREE ENERGY PREDICTED BY IDOCK:   18.54 KCAL/MOL
REMARK 922        TOTAL FREE ENERGY PREDICTED BY IDOCK:   25.10 KCAL/MOL
REMARK 923 INTER-LIGAND FREE ENERGY PREDICTED BY IDOCK:   16.75 KCAL/MOL
REMARK 924 INTRA-LIGAND FREE ENERGY PREDICTED BY IDOCK:    8.35 KCAL/MOL
REMARK 927      BINDING AFFINITY PREDICTED BY RF-SCORE:    0.00 PKD
ROOT
HETATM    1  O   UNL     1     -10.867  19.183  69.035  1.00  0.00     0.542 OA 
HETATM    2  C   UNL     1     -10.204  19.945  69.947  1.00  0.00     0.398 C  
HETATM    3  C   UNL     1      -8.783  19.461  70.172  1.00  0.00     1.316 C  
HETATM    4  O   UNL     1     -10.713  20.908  70.500  1.00  0.00     1.354 OA 
ENDROOT
BRANCH   3   5
HETATM    5  O   UNL     1      -8.544  18.293  69.369  1.00  0.00     0.182 OA 
BRANCH   5   6
HETATM    6  C   UNL     1      -9.369  17.192  69.796  1.00  0.00     0.861 C  
BRANCH   6   7
HETATM    7  C   UNL     1     -10.648  17.754  70.444  1.00  0.00     1.459 C  
BRANCH   7   8
HETATM    8  N   UNL     1     -11.397  16.794  71.272  1.00  0.00     0.095 NA 
HETATM    9  C   UNL     1     -12.261  15.872  70.508  1.00  0.00    -0.281 C  
HETATM   10  C   UNL     1     -11.535  14.754  69.707  1.00  0.00    -0.291 C  
HETATM   11  N   UNL     1     -10.469  14.041  70.435  1.00  0.00     1.022 NA 
HETATM   12  C   UNL     1      -9.664  14.928  71.275  1.00  0.00     2.473 C  
HETATM   13  C   UNL     1     -10.479  15.966  72.081  1.00  0.00     2.241 C  
BRANCH  11  14
HETATM   14  C   UNL     1      -9.726  13.062  69.590  1.00  0.00     1.616 C  
BRANCH  14  15
HETATM   15  C   UNL     1      -8.302  13.499  69.155  1.00  0.00     0.459 A  
HETATM   16  C   UNL     1      -7.704  12.968  68.003  1.00  0.00    -0.145 A  
HETATM   17  C   UNL     1      -7.581  14.494  69.851  1.00  0.00     0.251 A  
HETATM   18  C   UNL     1      -6.450  13.421  67.560  1.00  0.00    -0.129 A  
HETATM   19  C   UNL     1      -5.776  14.412  68.264  1.00  0.00    -0.118 A  
HETATM   20  C   UNL     1      -6.339  14.949  69.413  1.00  0.00    -0.124 A  
ENDBRANCH  14  15
BRANCH  14  21
HETATM   21  C   UNL     1     -10.501  12.413  68.419  1.00  0.00    -0.245 A  
HETATM   22  C   UNL     1     -11.969  11.625  66.143  1.00  0.00     0.506 A  
HETATM   23 CL   UNL     1     -12.896  11.274  64.738  1.00  0.00     1.922 Cl 
HETATM   24  C   UNL     1     -12.596  11.701  67.379  1.00  0.00     2.262 A  
HETATM   25  C   UNL     1      -9.871  12.248  67.170  1.00  0.00    -0.207 A  
HETATM   26  C   UNL     1     -11.860  12.064  68.510  1.00  0.00    -0.369 A  
HETATM   27  C   UNL     1     -10.601  11.855  66.040  1.00  0.00    -0.304 A  
ENDBRANCH  14  21
ENDBRANCH  11  14
ENDBRANCH   7   8
ENDBRANCH   6   7
ENDBRANCH   5   6
ENDBRANCH   3   5
TORSDOF 7
ENDMDL
MODEL      235
REMARK 921   NORMALIZED FREE ENERGY PREDICTED BY IDOCK:   20.54 KCAL/MOL
REMARK 922        TOTAL FREE ENERGY PREDICTED BY IDOCK:   27.91 KCAL/MOL
REMARK 923 INTER-LIGAND FREE ENERGY PREDICTED BY IDOCK:   16.47 KCAL/MOL
REMARK 924 INTRA-LIGAND FREE ENERGY PREDICTED BY IDOCK:   11.45 KCAL/MOL
REMARK 927      BINDING AFFINITY PREDICTED BY RF-SCORE:    0.00 PKD
ROOT
HETATM    1  O   UNL     1     -10.680  13.247  65.981  1.00  0.00    -0.273 OA 
HETATM    2  C   UNL     1      -9.447  13.805  65.838  1.00  0.00    -0.040 C  
HETATM    3  C   UNL     1      -9.523  15.279  65.481  1.00  0.00    -0.106 C  
HETATM    4  O   UNL     1      -8.413  13.174  65.994  1.00  0.00     0.623 OA 
ENDROOT
BRANCH   3   5
HETATM    5  O   UNL     1     -10.901  15.669  65.360  1.00  0.00    -0.358 OA 
BRANCH   5   6
HETATM    6  C   UNL     1     -11.759  14.518  65.250  1.00  0.00    -0.361 C  
BRANCH   6   7
HETATM    7  C   UNL     1     -11.565  13.636  66.497  1.00  0.00    -0.366 C  
BRANCH   7   8
HETATM    8  N   UNL     1     -12.763  13.479  67.338  1.00  0.00     0.417 NA 
HETATM    9  C   UNL     1     -12.497  12.943  68.688  1.00  0.00     0.489 C  
HETATM   10  C   UNL     1     -11.808  13.912  69.690  1.00  0.00    -0.327 C  
HETATM   11  N   UNL     1     -12.362  15.278  69.735  1.00  0.00    -0.289 NA 
HETATM   12  C   UNL     1     -12.724  15.788  68.413  1.00  0.00     1.492 C  
HETATM   13  C   UNL     1     -13.460  14.771  67.511  1.00  0.00     5.068 C  
BRANCH  11  14
HETATM   14  C   UNL     1     -11.596  16.201  70.622  1.00  0.00    -0.321 C  
BRANCH  14  15
HETATM   15  C   UNL     1     -12.278  16.550  71.971  1.00  0.00    -0.033 A  
HETATM   16  C   UNL     1     -13.307  15.750  72.489  1.00  0.00    -0.578 A  
HETATM   17  C   UNL     1     -11.850  17.637  72.764  1.00  0.00     1.954 A  
HETATM   18  C   UNL     1     -13.871  16.016  73.748  1.00  0.00     0.724 A  
HETATM   19  C   UNL     1     -13.414  17.087  74.507  1.00  0.00     2.236 A  
HETATM   20  C   UNL     1     -12.404  17.903  74.015  1.00  0.00     1.767 A  
ENDBRANCH  14  15
BRANCH  14  21
HETATM   21  C   UNL     1     -10.971  17.453  69.963  1.00  0.00     0.889 A  
HETATM   22  C   UNL     1      -9.630  19.463  68.507  1.00  0.00    -0.405 A  
HETATM   23 CL   UNL     1      -8.735  20.591  67.567  1.00  0.00    -0.374 Cl 
HETATM   24  C   UNL     1      -9.150  19.071  69.750  1.00  0.00     0.709 A  
HETATM   25  C   UNL     1     -11.482  17.927  68.738  1.00  0.00     1.639 A  
HETATM   26  C   UNL     1      -9.832  18.095  70.481  1.00  0.00     2.463 A  
HETATM   27  C   UNL     1     -10.816  18.927  68.017  1.00  0.00    -0.173 A  
ENDBRANCH  14  21
ENDBRANCH  11  14
ENDBRANCH   7   8
ENDBRANCH   6   7
ENDBRANCH   5   6
ENDBRANCH   3   5
TORSDOF 7
ENDMDL
MODEL      236
REMARK 921   NORMALIZED FREE ENERGY PREDICTED BY IDOCK:   27.64 KCAL/MOL
REMARK 922        TOTAL FREE ENERGY PREDICTED BY IDOCK:   37.92 KCAL/MOL
REMARK 923 INTER-LIGAND FREE ENERGY PREDICTED BY IDOCK:   21.43 KCAL/MOL
REMARK 924 INTRA-LIGAND FREE ENERGY PREDICTED BY IDOCK:   16.48 KCAL/MOL
REMARK 927      BINDING AFFINITY PREDICTED BY RF-SCORE:    0.00 PKD
ROOT
HETATM    1  O   UNL     1     -11.412  17.919  70.495  1.00  0.00     2.435 OA 
HETATM    2  C   UNL     1     -10.444  18.869  70.601  1.00  0.00     2.137 C  
HETATM    3  C   UNL     1      -9.270  18.596  69.678  1.00  0.00     0.675 C  
HETATM    4  O   UNL     1     -10.538  19.828  71.352  1.00  0.00     2.036 OA 
ENDROOT
BRANCH   3   5
HETATM    5  O   UNL     1      -9.499  17.370  68.964  1.00  0.00    -0.221 OA 
BRANCH   5   6
HETATM    6  C   UNL     1     -10.368  16.492  69.705  1.00  0.00    -0.221 C  
BRANCH   6   7
HETATM    7  C   UNL     1     -10.915  17.254  70.926  1.00  0.00     1.263 C  
BRANCH   7   8
HETATM    8  N   UNL     1     -11.960  16.543  71.682  1.00  0.00    -0.211 NA 
HETATM    9  C   UNL     1     -12.962  15.856  70.842  1.00  0.00    -0.010 C  
HETATM   10  C   UNL     1     -12.484  14.567  70.116  1.00  0.00    -0.321 C  
HETATM   11  N   UNL     1     -11.711  13.622  70.942  1.00  0.00     0.004 NA 
HETATM   12  C   UNL     1     -10.782  14.292  71.853  1.00  0.00     2.973 C  
HETATM   13  C   UNL     1     -11.368  15.527  72.576  1.00  0.00    -0.200 C  
BRANCH  11  14
HETATM   14  C   UNL     1     -11.175  12.462  70.174  1.00  0.00     0.434 C  
BRANCH  14  15
HETATM   15  C   UNL     1     -11.437  11.067  70.801  1.00  0.00    -0.002 A  
HETATM   16  C   UNL     1     -10.835  10.695  72.013  1.00  0.00     4.161 A  
HETATM   17  C   UNL     1     -12.338  10.146  70.224  1.00  0.00    -0.211 A  
HETATM   18  C   UNL     1     -11.133   9.467  72.625  1.00  0.00     1.440 A  
HETATM   19  C   UNL     1     -12.036   8.591  72.034  1.00  0.00    -0.428 A  
HETATM   20  C   UNL     1     -12.639   8.928  70.830  1.00  0.00     0.091 A  
ENDBRANCH  14  15
BRANCH  14  21
HETATM   21  C   UNL     1      -9.728  12.579  69.640  1.00  0.00     1.625 A  
HETATM   22  C   UNL     1      -7.194  12.480  68.403  1.00  0.00    -0.111 A  
HETATM   23 CL   UNL     1      -5.689  12.303  67.592  1.00  0.00    -0.098 Cl 
HETATM   24  C   UNL     1      -7.389  11.866  69.633  1.00  0.00     0.434 A  
HETATM   25  C   UNL     1      -9.482  13.263  68.433  1.00  0.00    -0.172 A  
HETATM   26  C   UNL     1      -8.637  11.941  70.257  1.00  0.00     4.098 A  
HETATM   27  C   UNL     1      -8.222  13.214  67.820  1.00  0.00    -0.168 A  
ENDBRANCH  14  21
ENDBRANCH  11  14
ENDBRANCH   7   8
ENDBRANCH   6   7
ENDBRANCH   5   6
ENDBRANCH   3   5
TORSDOF 7
ENDMDL
MODEL      237
REMARK 921   NORMALIZED FREE ENERGY PREDICTED BY IDOCK:   29.61 KCAL/MOL
REMARK 922        TOTAL FREE ENERGY PREDICTED BY IDOCK:   40.69 KCAL/MOL
REMARK 923 INTER-LIGAND FREE ENERGY PREDICTED BY IDOCK:    9.59 KCAL/MOL
REMARK 924 INTRA-LIGAND FREE ENERGY PREDICTED BY IDOCK:   31.10 KCAL/MOL
REMARK 927      BINDING AFFINITY PREDICTED BY RF-SCORE:    0.00 PKD
ROOT
HETATM    1  O   UNL     1     -11.297  13.813  64.828  1.00  0.00    -0.334 OA 
HETATM    2  C   UNL     1     -10.021  14.265  64.684  1.00  0.00     0.236 C  
HETATM    3  C   UNL     1      -9.967  15.623  64.008  1.00  0.00     4.087 C  
HETATM    4  O   UNL     1      -9.048  13.635  65.072  1.00  0.00     0.932 OA 
ENDROOT
BRANCH   3   5
HETATM    5  O   UNL     1     -11.301  16.042  63.673  1.00  0.00    -0.361 OA 
BRANCH   5   6
HETATM    6  C   UNL     1     -11.969  15.053  62.867  1.00  0.00     3.130 C  
BRANCH   6   7
HETATM    7  C   UNL     1     -11.430  13.661  63.244  1.00  0.00     0.592 C  
BRANCH   7   8
HETATM    8  N   UNL     1     -12.336  12.848  64.071  1.00  0.00    -0.577 NA 
HETATM    9  C   UNL     1     -11.669  11.780  64.842  1.00  0.00    -0.118 C  
HETATM   10  C   UNL     1     -10.820  12.240  66.062  1.00  0.00    -0.275 C  
HETATM   11  N   UNL     1     -11.457  13.241  66.937  1.00  0.00    -0.322 NA 
HETATM   12  C   UNL     1     -12.207  14.252  66.192  1.00  0.00    -0.410 C  
HETATM   13  C   UNL     1     -13.069  13.692  65.037  1.00  0.00    -0.000 C  
BRANCH  11  14
HETATM   14  C   UNL     1     -10.562  13.736  68.023  1.00  0.00    -0.252 C  
BRANCH  14  15
HETATM   15  C   UNL     1     -11.079  13.514  69.469  1.00  0.00    -0.111 A  
HETATM   16  C   UNL     1     -12.031  12.523  69.751  1.00  0.00    -0.359 A  
HETATM   17  C   UNL     1     -10.567  14.242  70.565  1.00  0.00     0.856 A  
HETATM   18  C   UNL     1     -12.441  12.264  71.069  1.00  0.00    -0.361 A  
HETATM   19  C   UNL     1     -11.905  12.993  72.125  1.00  0.00     2.250 A  
HETATM   20  C   UNL     1     -10.968  13.986  71.874  1.00  0.00     2.961 A  
ENDBRANCH  14  15
BRANCH  14  21
HETATM   21  C   UNL     1      -9.960  15.151  67.848  1.00  0.00    -0.221 A  
HETATM   22  C   UNL     1      -9.223  17.823  67.327  1.00  0.00    -0.253 A  
HETATM   23 CL   UNL     1      -8.879  19.459  66.925  1.00  0.00    -0.322 Cl 
HETATM   24  C   UNL     1      -8.731  16.801  66.527  1.00  0.00    -0.310 A  
HETATM   25  C   UNL     1     -10.378  16.197  68.693  1.00  0.00    -0.252 A  
HETATM   26  C   UNL     1      -9.075  15.475  66.804  1.00  0.00    -0.282 A  
HETATM   27  C   UNL     1     -10.010  17.525  68.434  1.00  0.00    -0.335 A  
ENDBRANCH  14  21
ENDBRANCH  11  14
ENDBRANCH   7   8
ENDBRANCH   6   7
ENDBRANCH   5   6
ENDBRANCH   3   5
TORSDOF 7
ENDMDL
MODEL      238
REMARK 921   NORMALIZED FREE ENERGY PREDICTED BY IDOCK:   30.27 KCAL/MOL
REMARK 922        TOTAL FREE ENERGY PREDICTED BY IDOCK:   41.63 KCAL/MOL
REMARK 923 INTER-LIGAND FREE ENERGY PREDICTED BY IDOCK:   32.70 KCAL/MOL
REMARK 924 INTRA-LIGAND FREE ENERGY PREDICTED BY IDOCK:    8.93 KCAL/MOL
REMARK 927      BINDING AFFINITY PREDICTED BY RF-SCORE:    0.00 PKD
ROOT
HETATM    1  O   UNL     1     -10.386  10.517  70.767  1.00  0.00     0.351 OA 
HETATM    2  C   UNL     1     -10.366   9.323  71.419  1.00  0.00    -0.321 C  
HETATM    3  C   UNL     1      -9.828   8.202  70.548  1.00  0.00    -0.186 C  
HETATM    4  O   UNL     1     -10.734   9.196  72.578  1.00  0.00     0.108 OA 
ENDROOT
BRANCH   3   5
HETATM    5  O   UNL     1      -9.517   8.720  69.244  1.00  0.00    -0.158 OA 
BRANCH   5   6
HETATM    6  C   UNL     1      -8.344   9.554  69.283  1.00  0.00    -0.129 C  
BRANCH   6   7
HETATM    7  C   UNL     1      -8.783  11.018  69.465  1.00  0.00     0.373 C  
BRANCH   7   8
HETATM    8  N   UNL     1     -10.210  11.274  69.205  1.00  0.00    -0.101 NA 
HETATM    9  C   UNL     1     -10.720  12.536  69.779  1.00  0.00     0.652 C  
HETATM   10  C   UNL     1     -10.264  13.845  69.076  1.00  0.00    -0.059 C  
HETATM   11  N   UNL     1     -10.339  13.835  67.603  1.00  0.00    -0.237 NA 
HETATM   12  C   UNL     1      -9.931  12.556  67.022  1.00  0.00    -0.214 C  
HETATM   13  C   UNL     1     -10.484  11.311  67.754  1.00  0.00    -0.187 C  
BRANCH  11  14
HETATM   14  C   UNL     1      -9.782  15.066  66.971  1.00  0.00    -0.236 C  
BRANCH  14  15
HETATM   15  C   UNL     1      -9.407  16.209  67.951  1.00  0.00    -0.212 A  
HETATM   16  C   UNL     1      -9.737  16.130  69.313  1.00  0.00    -0.242 A  
HETATM   17  C   UNL     1      -8.662  17.334  67.536  1.00  0.00    -0.212 A  
HETATM   18  C   UNL     1      -9.327  17.123  70.218  1.00  0.00     2.312 A  
HETATM   19  C   UNL     1      -8.583  18.210  69.774  1.00  0.00     1.273 A  
HETATM   20  C   UNL     1      -8.251  18.319  68.431  1.00  0.00    -0.326 A  
ENDBRANCH  14  15
BRANCH  14  21
HETATM   21  C   UNL     1     -10.517  15.610  65.723  1.00  0.00    -0.383 A  
HETATM   22  C   UNL     1     -11.923  16.950  63.677  1.00  0.00     4.041 A  
HETATM   23 CL   UNL     1     -12.817  17.857  62.523  1.00  0.00    19.750 Cl 
HETATM   24  C   UNL     1     -12.570  15.998  64.453  1.00  0.00     0.929 A  
HETATM   25  C   UNL     1      -9.863  16.518  64.868  1.00  0.00     1.230 A  
HETATM   26  C   UNL     1     -11.864  15.315  65.447  1.00  0.00     0.082 A  
HETATM   27  C   UNL     1     -10.563  17.182  63.851  1.00  0.00     4.802 A  
ENDBRANCH  14  21
ENDBRANCH  11  14
ENDBRANCH   7   8
ENDBRANCH   6   7
ENDBRANCH   5   6
ENDBRANCH   3   5
TORSDOF 7
ENDMDL
MODEL      239
REMARK 921   NORMALIZED FREE ENERGY PREDICTED BY IDOCK:   30.82 KCAL/MOL
REMARK 922        TOTAL FREE ENERGY PREDICTED BY IDOCK:   42.40 KCAL/MOL
REMARK 923 INTER-LIGAND FREE ENERGY PREDICTED BY IDOCK:    3.47 KCAL/MOL
REMARK 924 INTRA-LIGAND FREE ENERGY PREDICTED BY IDOCK:   38.93 KCAL/MOL
REMARK 927      BINDING AFFINITY PREDICTED BY RF-SCORE:    0.00 PKD
ROOT
HETATM    1  O   UNL     1     -10.793  11.885  70.394  1.00  0.00     0.830 OA 
HETATM    2  C   UNL     1     -10.964  11.123  69.279  1.00  0.00    -0.247 C  
HETATM    3  C   UNL     1     -11.063   9.644  69.606  1.00  0.00    -0.193 C  
HETATM    4  O   UNL     1     -11.038  11.600  68.157  1.00  0.00    -0.210 OA 
ENDROOT
BRANCH   3   5
HETATM    5  O   UNL     1     -10.911   9.457  71.023  1.00  0.00    -0.281 OA 
BRANCH   5   6
HETATM    6  C   UNL     1      -9.995  10.420  71.577  1.00  0.00     3.375 C  
BRANCH   6   7
HETATM    7  C   UNL     1      -8.701  10.410  70.743  1.00  0.00     1.928 C  
BRANCH   7   8
HETATM    8  N   UNL     1      -8.881  10.058  69.325  1.00  0.00    -0.166 NA 
HETATM    9  C   UNL     1     -10.137  10.553  68.726  1.00  0.00    -0.191 C  
HETATM   10  C   UNL     1     -10.212  12.082  68.450  1.00  0.00    -0.209 C  
HETATM   11  N   UNL     1      -9.021  12.671  67.809  1.00  0.00    -0.179 NA 
HETATM   12  C   UNL     1      -7.768  12.118  68.322  1.00  0.00    -0.135 C  
HETATM   13  C   UNL     1      -7.769  10.582  68.505  1.00  0.00    -0.104 C  
BRANCH  11  14
HETATM   14  C   UNL     1      -9.093  14.154  67.673  1.00  0.00    -0.194 C  
BRANCH  14  15
HETATM   15  C   UNL     1      -7.734  14.899  67.753  1.00  0.00    -0.174 A  
HETATM   16  C   UNL     1      -6.742  14.496  68.659  1.00  0.00    -0.088 A  
HETATM   17  C   UNL     1      -7.411  15.960  66.879  1.00  0.00    -0.233 A  
HETATM   18  C   UNL     1      -5.481  15.115  68.679  1.00  0.00    -0.092 A  
HETATM   19  C   UNL     1      -5.195  16.147  67.793  1.00  0.00    -0.146 A  
HETATM   20  C   UNL     1      -6.161  16.574  66.893  1.00  0.00    -0.116 A  
ENDBRANCH  14  15
BRANCH  14  21
HETATM   21  C   UNL     1     -10.187  14.883  68.488  1.00  0.00    -0.235 A  
HETATM   22  C   UNL     1     -12.251  15.837  70.158  1.00  0.00    -0.314 A  
HETATM   23 CL   UNL     1     -13.538  16.289  71.204  1.00  0.00     1.423 Cl 
HETATM   24  C   UNL     1     -12.519  15.534  68.830  1.00  0.00     0.331 A  
HETATM   25  C   UNL     1      -9.925  15.276  69.815  1.00  0.00    -0.210 A  
HETATM   26  C   UNL     1     -11.489  15.089  67.998  1.00  0.00    -0.357 A  
HETATM   27  C   UNL     1     -10.951  15.751  70.643  1.00  0.00    -0.341 A  
ENDBRANCH  14  21
ENDBRANCH  11  14
ENDBRANCH   7   8
ENDBRANCH   6   7
ENDBRANCH   5   6
ENDBRANCH   3   5
TORSDOF 7
ENDMDL
MODEL      240
REMARK 921   NORMALIZED FREE ENERGY PREDICTED BY IDOCK:   38.93 KCAL/MOL
REMARK 922        TOTAL FREE ENERGY PREDICTED BY IDOCK:   53.83 KCAL/MOL
REMARK 923 INTER-LIGAND FREE ENERGY PREDICTED BY IDOCK:   35.98 KCAL/MOL
REMARK 924 INTRA-LIGAND FREE ENERGY PREDICTED BY IDOCK:   17.84 KCAL/MOL
REMARK 927      BINDING AFFINITY PREDICTED BY RF-SCORE:    0.00 PKD
ROOT
HETATM    1  O   UNL     1     -10.025  11.025  64.648  1.00  0.00    -0.252 OA 
HETATM    2  C   UNL     1     -10.153   9.672  64.704  1.00  0.00     0.601 C  
HETATM    3  C   UNL     1      -9.191   9.046  65.697  1.00  0.00    -0.225 C  
HETATM    4  O   UNL     1     -10.964   9.056  64.029  1.00  0.00     6.448 OA 
ENDROOT
BRANCH   3   5
HETATM    5  O   UNL     1      -8.377  10.074  66.286  1.00  0.00    -0.123 OA 
BRANCH   5   6
HETATM    6  C   UNL     1      -8.649  11.356  65.689  1.00  0.00     0.044 C  
BRANCH   6   7
HETATM    7  C   UNL     1      -9.190  11.134  64.265  1.00  0.00    -0.106 C  
BRANCH   7   8
HETATM    8  N   UNL     1      -9.345  12.359  63.463  1.00  0.00     0.157 NA 
HETATM    9  C   UNL     1     -10.284  13.347  64.031  1.00  0.00     0.288 C  
HETATM   10  C   UNL     1      -9.791  14.122  65.286  1.00  0.00    -0.164 C  
HETATM   11  N   UNL     1      -8.414  14.645  65.209  1.00  0.00     2.977 NA 
HETATM   12  C   UNL     1      -7.489  13.717  64.558  1.00  0.00    14.448 C  
HETATM   13  C   UNL     1      -8.047  13.041  63.284  1.00  0.00     8.379 C  
BRANCH  11  14
HETATM   14  C   UNL     1      -7.947  15.276  66.478  1.00  0.00     0.206 C  
BRANCH  14  15
HETATM   15  C   UNL     1      -8.459  14.612  67.783  1.00  0.00    -0.178 A  
HETATM   16  C   UNL     1      -9.801  14.228  67.919  1.00  0.00    -0.226 A  
HETATM   17  C   UNL     1      -7.591  14.302  68.853  1.00  0.00    -0.113 A  
HETATM   18  C   UNL     1     -10.251  13.553  69.066  1.00  0.00     0.025 A  
HETATM   19  C   UNL     1      -9.364  13.252  70.094  1.00  0.00     3.565 A  
HETATM   20  C   UNL     1      -8.032  13.629  69.991  1.00  0.00     1.774 A  
ENDBRANCH  14  15
BRANCH  14  21
HETATM   21  C   UNL     1      -8.018  16.819  66.562  1.00  0.00    -0.334 A  
HETATM   22  C   UNL     1      -7.777  19.607  66.920  1.00  0.00    -0.262 A  
HETATM   23 CL   UNL     1      -7.529  21.281  67.223  1.00  0.00    -0.187 Cl 
HETATM   24  C   UNL     1      -8.590  18.868  67.769  1.00  0.00    -0.318 A  
HETATM   25  C   UNL     1      -7.267  17.604  65.666  1.00  0.00     0.083 A  
HETATM   26  C   UNL     1      -8.729  17.492  67.572  1.00  0.00    -0.225 A  
HETATM   27  C   UNL     1      -7.149  18.989  65.843  1.00  0.00    -0.294 A  
ENDBRANCH  14  21
ENDBRANCH  11  14
ENDBRANCH   7   8
ENDBRANCH   6   7
ENDBRANCH   5   6
ENDBRANCH   3   5
TORSDOF 7
ENDMDL
MODEL      241
REMARK 921   NORMALIZED FREE ENERGY PREDICTED BY IDOCK:   40.25 KCAL/MOL
REMARK 922        TOTAL FREE ENERGY PREDICTED BY IDOCK:   55.69 KCAL/MOL
REMARK 923 INTER-LIGAND FREE ENERGY PREDICTED BY IDOCK:   28.95 KCAL/MOL
REMARK 924 INTRA-LIGAND FREE ENERGY PREDICTED BY IDOCK:   26.74 KCAL/MOL
REMARK 927      BINDING AFFINITY PREDICTED BY RF-SCORE:    0.00 PKD
ROOT
HETATM    1  O   UNL     1     -12.660  10.985  66.349  1.00  0.00     2.558 OA 
HETATM    2  C   UNL     1     -11.735  10.399  65.541  1.00  0.00     2.605 C  
HETATM    3  C   UNL     1     -11.479   8.952  65.919  1.00  0.00     4.819 C  
HETATM    4  O   UNL     1     -11.194  10.989  64.617  1.00  0.00    -0.105 OA 
ENDROOT
BRANCH   3   5
HETATM    5  O   UNL     1     -12.275   8.610  67.066  1.00  0.00     4.894 OA 
BRANCH   5   6
HETATM    6  C   UNL     1     -12.353   9.712  67.990  1.00  0.00     4.426 C  
BRANCH   6   7
HETATM    7  C   UNL     1     -12.793  10.972  67.222  1.00  0.00     5.674 C  
BRANCH   7   8
HETATM    8  N   UNL     1     -12.000  12.179  67.505  1.00  0.00    -0.553 NA 
HETATM    9  C   UNL     1     -11.438  12.236  68.870  1.00  0.00    -0.304 C  
HETATM   10  C   UNL     1     -10.251  11.276  69.166  1.00  0.00    -0.100 C  
HETATM   11  N   UNL     1      -9.198  11.231  68.134  1.00  0.00    -0.164 NA 
HETATM   12  C   UNL     1      -9.734  11.274  66.774  1.00  0.00    -0.193 C  
HETATM   13  C   UNL     1     -10.869  12.302  66.562  1.00  0.00    -0.259 C  
BRANCH  11  14
HETATM   14  C   UNL     1      -8.144  10.212  68.407  1.00  0.00    -0.104 C  
BRANCH  14  15
HETATM   15  C   UNL     1      -8.393   8.810  67.791  1.00  0.00    -0.118 A  
HETATM   16  C   UNL     1      -7.963   7.646  68.446  1.00  0.00    -0.123 A  
HETATM   17  C   UNL     1      -9.119   8.640  66.591  1.00  0.00    -0.203 A  
HETATM   18  C   UNL     1      -8.259   6.372  67.933  1.00  0.00    -0.115 A  
HETATM   19  C   UNL     1      -8.988   6.244  66.756  1.00  0.00    -0.128 A  
HETATM   20  C   UNL     1      -9.417   7.378  66.081  1.00  0.00    -0.076 A  
ENDBRANCH  14  15
BRANCH  14  21
HETATM   21  C   UNL     1      -7.627  10.107  69.862  1.00  0.00    -0.174 A  
HETATM   22  C   UNL     1      -6.748   9.499  72.472  1.00  0.00     0.856 A  
HETATM   23 CL   UNL     1      -6.263   9.004  74.046  1.00  0.00    -0.050 Cl 
HETATM   24  C   UNL     1      -8.035   9.980  72.269  1.00  0.00     3.935 A  
HETATM   25  C   UNL     1      -6.301   9.696  70.105  1.00  0.00    -0.069 A  
HETATM   26  C   UNL     1      -8.458  10.307  70.978  1.00  0.00     2.099 A  
HETATM   27  C   UNL     1      -5.866   9.396  71.402  1.00  0.00    -0.075 A  
ENDBRANCH  14  21
ENDBRANCH  11  14
ENDBRANCH   7   8
ENDBRANCH   6   7
ENDBRANCH   5   6
ENDBRANCH   3   5
TORSDOF 7
ENDMDL
MODEL      242
REMARK 921   NORMALIZED FREE ENERGY PREDICTED BY IDOCK:   49.84 KCAL/MOL
REMARK 922        TOTAL FREE ENERGY PREDICTED BY IDOCK:   69.20 KCAL/MOL
REMARK 923 INTER-LIGAND FREE ENERGY PREDICTED BY IDOCK:   47.33 KCAL/MOL
REMARK 924 INTRA-LIGAND FREE ENERGY PREDICTED BY IDOCK:   21.87 KCAL/MOL
REMARK 927      BINDING AFFINITY PREDICTED BY RF-SCORE:    0.00 PKD
ROOT
HETATM    1  O   UNL     1      -9.283  18.359  65.168  1.00  0.00     1.017 OA 
HETATM    2  C   UNL     1      -8.077  18.229  65.784  1.00  0.00     0.215 C  
HETATM    3  C   UNL     1      -8.002  16.978  66.640  1.00  0.00    -0.267 C  
HETATM    4  O   UNL     1      -7.170  19.036  65.639  1.00  0.00    -0.411 OA 
ENDROOT
BRANCH   3   5
HETATM    5  O   UNL     1      -9.261  16.287  66.587  1.00  0.00    -0.212 OA 
BRANCH   5   6
HETATM    6  C   UNL     1     -10.152  16.905  65.638  1.00  0.00    -0.150 C  
BRANCH   6   7
HETATM    7  C   UNL     1     -11.101  15.830  65.078  1.00  0.00    -0.370 C  
BRANCH   7   8
HETATM    8  N   UNL     1     -11.862  15.085  66.094  1.00  0.00    -0.117 NA 
HETATM    9  C   UNL     1     -11.283  13.775  66.454  1.00  0.00    -0.316 C  
HETATM   10  C   UNL     1      -9.990  13.808  67.316  1.00  0.00    -0.239 C  
HETATM   11  N   UNL     1     -10.012  14.738  68.461  1.00  0.00    -0.221 NA 
HETATM   12  C   UNL     1     -10.672  16.006  68.149  1.00  0.00    -0.311 C  
HETATM   13  C   UNL     1     -11.984  15.867  67.342  1.00  0.00     0.676 C  
BRANCH  11  14
HETATM   14  C   UNL     1      -8.711  14.820  69.185  1.00  0.00    -0.085 C  
BRANCH  14  15
HETATM   15  C   UNL     1      -7.497  15.267  68.328  1.00  0.00    -0.112 A  
HETATM   16  C   UNL     1      -7.322  16.612  67.968  1.00  0.00    -0.162 A  
HETATM   17  C   UNL     1      -6.486  14.362  67.937  1.00  0.00    -0.175 A  
HETATM   18  C   UNL     1      -6.183  17.033  67.263  1.00  0.00    -0.197 A  
HETATM   19  C   UNL     1      -5.201  16.115  66.907  1.00  0.00     0.301 A  
HETATM   20  C   UNL     1      -5.352  14.776  67.241  1.00  0.00     0.570 A  
ENDBRANCH  14  15
BRANCH  14  21
HETATM   21  C   UNL     1      -8.346  13.636  70.111  1.00  0.00     2.629 A  
HETATM   22  C   UNL     1      -8.097  11.415  71.832  1.00  0.00    11.948 A  
HETATM   23 CL   UNL     1      -8.078  10.071  72.904  1.00  0.00     4.637 Cl 
HETATM   24  C   UNL     1      -7.981  12.702  72.341  1.00  0.00    16.091 A  
HETATM   25  C   UNL     1      -8.376  12.320  69.608  1.00  0.00     1.653 A  
HETATM   26  C   UNL     1      -8.077  13.799  71.481  1.00  0.00     7.510 A  
HETATM   27  C   UNL     1      -8.251  11.218  70.464  1.00  0.00     3.434 A  
ENDBRANCH  14  21
ENDBRANCH  11  14
ENDBRANCH   7   8
ENDBRANCH   6   7
ENDBRANCH   5   6
ENDBRANCH   3   5
TORSDOF 7
ENDMDL
MODEL      243
REMARK 921   NORMALIZED FREE ENERGY PREDICTED BY IDOCK:   56.83 KCAL/MOL
REMARK 922        TOTAL FREE ENERGY PREDICTED BY IDOCK:   79.05 KCAL/MOL
REMARK 923 INTER-LIGAND FREE ENERGY PREDICTED BY IDOCK:   26.16 KCAL/MOL
REMARK 924 INTRA-LIGAND FREE ENERGY PREDICTED BY IDOCK:   52.89 KCAL/MOL
REMARK 927      BINDING AFFINITY PREDICTED BY RF-SCORE:    0.00 PKD
ROOT
HETATM    1  O   UNL     1     -11.064   9.285  71.585  1.00  0.00    -0.349 OA 
HETATM    2  C   UNL     1     -11.423   7.999  71.844  1.00  0.00    -0.291 C  
HETATM    3  C   UNL     1     -10.472   7.323  72.815  1.00  0.00    -0.260 C  
HETATM    4  O   UNL     1     -12.409   7.474  71.348  1.00  0.00    -0.320 OA 
ENDROOT
BRANCH   3   5
HETATM    5  O   UNL     1      -9.421   8.238  73.168  1.00  0.00    -0.257 OA 
BRANCH   5   6
HETATM    6  C   UNL     1      -8.661   8.627  72.008  1.00  0.00    -0.146 C  
BRANCH   6   7
HETATM    7  C   UNL     1      -8.363  10.135  72.095  1.00  0.00     5.072 C  
BRANCH   7   8
HETATM    8  N   UNL     1      -9.077  10.966  71.112  1.00  0.00     4.209 NA 
HETATM    9  C   UNL     1      -8.780  10.638  69.703  1.00  0.00     0.157 C  
HETATM   10  C   UNL     1      -9.388   9.314  69.161  1.00  0.00    -0.157 C  
HETATM   11  N   UNL     1     -10.805   9.081  69.498  1.00  0.00    -0.207 NA 
HETATM   12  C   UNL     1     -11.140   9.492  70.861  1.00  0.00    -0.336 C  
HETATM   13  C   UNL     1     -10.540  10.852  71.288  1.00  0.00     2.868 C  
BRANCH  11  14
HETATM   14  C   UNL     1     -11.308   7.747  69.059  1.00  0.00     0.525 C  
BRANCH  14  15
HETATM   15  C   UNL     1     -12.275   7.040  70.044  1.00  0.00     0.155 A  
HETATM   16  C   UNL     1     -12.912   7.755  71.070  1.00  0.00    -0.068 A  
HETATM   17  C   UNL     1     -12.610   5.674  69.912  1.00  0.00     5.149 A  
HETATM   18  C   UNL     1     -13.851   7.137  71.912  1.00  0.00    -0.308 A  
HETATM   19  C   UNL     1     -14.165   5.793  71.742  1.00  0.00     1.635 A  
HETATM   20  C   UNL     1     -13.543   5.058  70.743  1.00  0.00    10.217 A  
ENDBRANCH  14  15
BRANCH  14  21
HETATM   21  C   UNL     1     -10.268   6.759  68.480  1.00  0.00    -0.186 A  
HETATM   22  C   UNL     1      -8.528   4.679  67.701  1.00  0.00    -0.103 A  
HETATM   23 CL   UNL     1      -7.509   3.344  67.337  1.00  0.00    -0.066 Cl 
HETATM   24  C   UNL     1      -8.078   5.673  68.559  1.00  0.00    -0.103 A  
HETATM   25  C   UNL     1     -10.673   5.784  67.547  1.00  0.00    -0.320 A  
HETATM   26  C   UNL     1      -8.933   6.718  68.921  1.00  0.00    -0.131 A  
HETATM   27  C   UNL     1      -9.807   4.752  67.160  1.00  0.00    -0.222 A  
ENDBRANCH  14  21
ENDBRANCH  11  14
ENDBRANCH   7   8
ENDBRANCH   6   7
ENDBRANCH   5   6
ENDBRANCH   3   5
TORSDOF 7
ENDMDL
