MODEL        1
REMARK 921   NORMALIZED FREE ENERGY PREDICTED BY IDOCK:   -6.83 KCAL/MOL
REMARK 922        TOTAL FREE ENERGY PREDICTED BY IDOCK:   -9.25 KCAL/MOL
REMARK 923 INTER-LIGAND FREE ENERGY PREDICTED BY IDOCK:   -8.43 KCAL/MOL
REMARK 924 INTRA-LIGAND FREE ENERGY PREDICTED BY IDOCK:   -0.82 KCAL/MOL
REMARK 927      BINDING AFFINITY PREDICTED BY RF-SCORE:    0.00 PKD
ROOT
HETATM    1  N   UNL     1     -12.720   7.359  70.744  1.00  0.00    -0.585 NA 
HETATM    2  H1  UNL     1     -12.251   6.594  70.261  1.00  0.00     0.000 HD 
HETATM    3  H2  UNL     1     -13.591   7.606  70.275  1.00  0.00     0.000 HD 
HETATM    4  CA  UNL     1     -11.847   8.565  70.917  1.00  0.00    -0.217 C  
HETATM    5  C   UNL     1     -10.601   8.146  71.717  1.00  0.00    -0.250 C  
HETATM    6  OXT UNL     1      -9.755   8.908  72.151  1.00  0.00    -0.306 OA 
HETATM    7  O   UNL     1     -10.553   6.798  71.881  1.00  0.00    -0.207 OA 
ENDROOT
BRANCH   4   8
HETATM    8  C   UNL     1     -12.555   9.721  71.645  1.00  0.00    -0.509 C  
BRANCH   8   9
HETATM    9  C   UNL     1     -12.351  11.054  70.965  1.00  0.00    -0.490 A  
HETATM   10  C   UNL     1     -12.786  12.242  71.561  1.00  0.00    -0.384 A  
HETATM   11  C   UNL     1     -12.636  13.465  70.894  1.00  0.00    -0.327 A  
HETATM   12  I   UNL     1     -13.429  15.167  71.853  1.00  0.00    -0.715 I  
HETATM   13  C   UNL     1     -12.054  13.535  69.612  1.00  0.00    -0.306 A  
HETATM   14  C   UNL     1     -11.705  12.328  68.983  1.00  0.00    -0.324 A  
HETATM   15  C   UNL     1     -11.800  11.111  69.681  1.00  0.00    -0.419 A  
HETATM   16  I   UNL     1     -11.255  12.107  66.927  1.00  0.00    -0.409 I  
BRANCH  13  17
HETATM   17  O   UNL     1     -12.018  14.789  69.044  1.00  0.00    -0.305 OA 
BRANCH  17  18
HETATM   18  C   UNL     1     -10.864  15.534  68.991  1.00  0.00    -0.249 A  
HETATM   19  C   UNL     1     -11.030  16.794  68.408  1.00  0.00    -0.325 A  
HETATM   20  C   UNL     1      -9.919  17.592  68.140  1.00  0.00    -0.330 A  
HETATM   21  I   UNL     1     -10.229  19.439  67.217  1.00  0.00    -0.647 I  
HETATM   22  C   UNL     1      -8.637  17.135  68.456  1.00  0.00    -0.258 A  
HETATM   23  C   UNL     1      -8.485  15.911  69.120  1.00  0.00    -0.254 A  
HETATM   24  O   UNL     1      -7.528  17.858  68.103  1.00  0.00    -0.233 OA 
HETATM   25  H   UNL     1      -6.656  17.547  68.318  1.00  0.00     0.000 HD 
HETATM   26  I   UNL     1      -6.592  15.138  69.578  1.00  0.00    -0.185 I  
HETATM   27  C   UNL     1      -9.604  15.128  69.430  1.00  0.00    -0.195 A  
ENDBRANCH  17  18
ENDBRANCH  13  17
ENDBRANCH   8   9
ENDBRANCH   4   8
TORSDOF 4
ENDMDL
MODEL        2
REMARK 921   NORMALIZED FREE ENERGY PREDICTED BY IDOCK:   -6.73 KCAL/MOL
REMARK 922        TOTAL FREE ENERGY PREDICTED BY IDOCK:   -9.13 KCAL/MOL
REMARK 923 INTER-LIGAND FREE ENERGY PREDICTED BY IDOCK:   -8.49 KCAL/MOL
REMARK 924 INTRA-LIGAND FREE ENERGY PREDICTED BY IDOCK:   -0.64 KCAL/MOL
REMARK 927      BINDING AFFINITY PREDICTED BY RF-SCORE:    0.00 PKD
ROOT
HETATM    1  N   UNL     1     -13.590   7.902  71.073  1.00  0.00    -0.566 NA 
HETATM    2  H1  UNL     1     -13.353   7.020  70.621  1.00  0.00     0.000 HD 
HETATM    3  H2  UNL     1     -14.342   8.376  70.574  1.00  0.00     0.000 HD 
HETATM    4  CA  UNL     1     -12.409   8.808  71.245  1.00  0.00    -0.270 C  
HETATM    5  C   UNL     1     -11.355   8.071  72.089  1.00  0.00    -0.328 C  
HETATM    6  OXT UNL     1     -10.335   8.568  72.531  1.00  0.00    -0.315 OA 
HETATM    7  O   UNL     1     -11.703   6.771  72.284  1.00  0.00    -0.281 OA 
ENDROOT
BRANCH   4   8
HETATM    8  C   UNL     1     -12.768  10.140  71.928  1.00  0.00    -0.493 C  
BRANCH   8   9
HETATM    9  C   UNL     1     -12.575  11.333  71.022  1.00  0.00    -0.495 A  
HETATM   10  C   UNL     1     -12.049  11.184  69.736  1.00  0.00    -0.414 A  
HETATM   11  C   UNL     1     -11.828  12.307  68.927  1.00  0.00    -0.303 A  
HETATM   12  I   UNL     1     -10.931  11.957  67.051  1.00  0.00    -0.387 I  
HETATM   13  C   UNL     1     -12.120  13.609  69.381  1.00  0.00    -0.314 A  
HETATM   14  C   UNL     1     -12.562  13.756  70.707  1.00  0.00    -0.340 A  
HETATM   15  C   UNL     1     -12.840  12.623  71.492  1.00  0.00    -0.368 A  
HETATM   16  I   UNL     1     -12.631  15.581  71.776  1.00  0.00    -0.603 I  
BRANCH  13  17
HETATM   17  O   UNL     1     -11.804  14.627  68.511  1.00  0.00    -0.325 OA 
BRANCH  17  18
HETATM   18  C   UNL     1     -10.688  15.412  68.679  1.00  0.00    -0.246 A  
HETATM   19  C   UNL     1     -10.869  16.743  68.289  1.00  0.00    -0.366 A  
HETATM   20  C   UNL     1      -9.781  17.614  68.251  1.00  0.00    -0.315 A  
HETATM   21  I   UNL     1     -10.105  19.573  67.604  1.00  0.00    -0.626 I  
HETATM   22  C   UNL     1      -8.507  17.159  68.606  1.00  0.00    -0.258 A  
HETATM   23  C   UNL     1      -8.350  15.850  69.081  1.00  0.00    -0.253 A  
HETATM   24  O   UNL     1      -7.412  17.969  68.472  1.00  0.00    -0.261 OA 
HETATM   25  H   UNL     1      -6.546  17.659  68.713  1.00  0.00     0.000 HD 
HETATM   26  I   UNL     1      -6.466  15.084  69.582  1.00  0.00    -0.168 I  
HETATM   27  C   UNL     1      -9.451  14.988  69.162  1.00  0.00    -0.195 A  
ENDBRANCH  17  18
ENDBRANCH  13  17
ENDBRANCH   8   9
ENDBRANCH   4   8
TORSDOF 4
ENDMDL
MODEL        3
REMARK 921   NORMALIZED FREE ENERGY PREDICTED BY IDOCK:   -6.68 KCAL/MOL
REMARK 922        TOTAL FREE ENERGY PREDICTED BY IDOCK:   -9.07 KCAL/MOL
REMARK 923 INTER-LIGAND FREE ENERGY PREDICTED BY IDOCK:   -8.41 KCAL/MOL
REMARK 924 INTRA-LIGAND FREE ENERGY PREDICTED BY IDOCK:   -0.65 KCAL/MOL
REMARK 927      BINDING AFFINITY PREDICTED BY RF-SCORE:    0.00 PKD
ROOT
HETATM    1  N   UNL     1     -10.243   9.197  71.371  1.00  0.00    -0.327 NA 
HETATM    2  H1  UNL     1      -9.794   8.968  72.258  1.00  0.00     0.000 HD 
HETATM    3  H2  UNL     1      -9.638   9.784  70.798  1.00  0.00     0.000 HD 
HETATM    4  CA  UNL     1     -11.591   9.827  71.544  1.00  0.00    -0.353 C  
HETATM    5  C   UNL     1     -12.483   8.850  72.329  1.00  0.00    -0.369 C  
HETATM    6  OXT UNL     1     -13.678   8.989  72.523  1.00  0.00    -0.472 OA 
HETATM    7  O   UNL     1     -11.765   7.794  72.793  1.00  0.00    -0.337 OA 
ENDROOT
BRANCH   4   8
HETATM    8  C   UNL     1     -12.269  10.173  70.205  1.00  0.00    -0.248 C  
BRANCH   8   9
HETATM    9  C   UNL     1     -12.125  11.630  69.836  1.00  0.00    -0.373 A  
HETATM   10  C   UNL     1     -12.302  12.637  70.789  1.00  0.00    -0.372 A  
HETATM   11  C   UNL     1     -12.216  13.986  70.419  1.00  0.00    -0.363 A  
HETATM   12  I   UNL     1     -12.608  15.406  71.928  1.00  0.00    -0.624 I  
HETATM   13  C   UNL     1     -11.960  14.367  69.086  1.00  0.00    -0.322 A  
HETATM   14  C   UNL     1     -11.875  13.351  68.119  1.00  0.00    -0.361 A  
HETATM   15  C   UNL     1     -11.900  11.999  68.505  1.00  0.00    -0.369 A  
HETATM   16  I   UNL     1     -11.958  13.648  66.025  1.00  0.00    -0.512 I  
BRANCH  13  17
HETATM   17  O   UNL     1     -11.958  15.722  68.846  1.00  0.00    -0.382 OA 
BRANCH  17  18
HETATM   18  C   UNL     1     -10.815  16.400  68.495  1.00  0.00    -0.339 A  
HETATM   19  C   UNL     1      -9.637  15.793  68.939  1.00  0.00    -0.229 A  
HETATM   20  C   UNL     1      -8.415  16.450  68.798  1.00  0.00    -0.249 A  
HETATM   21  I   UNL     1      -6.699  15.515  69.535  1.00  0.00    -0.138 I  
HETATM   22  C   UNL     1      -8.366  17.716  68.208  1.00  0.00    -0.274 A  
HETATM   23  C   UNL     1      -9.537  18.279  67.684  1.00  0.00    -0.282 A  
HETATM   24  O   UNL     1      -7.193  18.420  68.158  1.00  0.00    -0.246 OA 
HETATM   25  H   UNL     1      -7.159  19.282  67.757  1.00  0.00     0.000 HD 
HETATM   26  I   UNL     1      -9.548  20.193  66.833  1.00  0.00    -0.536 I  
HETATM   27  C   UNL     1     -10.758  17.600  67.786  1.00  0.00    -0.336 A  
ENDBRANCH  17  18
ENDBRANCH  13  17
ENDBRANCH   8   9
ENDBRANCH   4   8
TORSDOF 4
ENDMDL
MODEL        4
REMARK 921   NORMALIZED FREE ENERGY PREDICTED BY IDOCK:   -6.60 KCAL/MOL
REMARK 922        TOTAL FREE ENERGY PREDICTED BY IDOCK:   -8.97 KCAL/MOL
REMARK 923 INTER-LIGAND FREE ENERGY PREDICTED BY IDOCK:   -8.17 KCAL/MOL
REMARK 924 INTRA-LIGAND FREE ENERGY PREDICTED BY IDOCK:   -0.80 KCAL/MOL
REMARK 927      BINDING AFFINITY PREDICTED BY RF-SCORE:    0.00 PKD
ROOT
HETATM    1  N   UNL     1     -10.218   9.205  71.425  1.00  0.00    -0.327 NA 
HETATM    2  H1  UNL     1      -9.790   8.979  72.322  1.00  0.00     0.000 HD 
HETATM    3  H2  UNL     1      -9.648   9.874  70.908  1.00  0.00     0.000 HD 
HETATM    4  CA  UNL     1     -11.629   9.694  71.556  1.00  0.00    -0.381 C  
HETATM    5  C   UNL     1     -12.455   8.599  72.252  1.00  0.00    -0.395 C  
HETATM    6  OXT UNL     1     -13.665   8.612  72.391  1.00  0.00    -0.386 OA 
HETATM    7  O   UNL     1     -11.658   7.596  72.707  1.00  0.00    -0.337 OA 
ENDROOT
BRANCH   4   8
HETATM    8  C   UNL     1     -12.275  10.035  70.200  1.00  0.00    -0.116 C  
BRANCH   8   9
HETATM    9  C   UNL     1     -12.111  11.488  69.823  1.00  0.00    -0.374 A  
HETATM   10  C   UNL     1     -12.400  12.507  70.736  1.00  0.00    -0.376 A  
HETATM   11  C   UNL     1     -12.293  13.851  70.354  1.00  0.00    -0.363 A  
HETATM   12  I   UNL     1     -12.859  15.289  71.790  1.00  0.00    -0.623 I  
HETATM   13  C   UNL     1     -11.902  14.215  69.050  1.00  0.00    -0.348 A  
HETATM   14  C   UNL     1     -11.703  13.185  68.114  1.00  0.00    -0.355 A  
HETATM   15  C   UNL     1     -11.751  11.840  68.518  1.00  0.00    -0.390 A  
HETATM   16  I   UNL     1     -11.567  13.449  66.019  1.00  0.00    -0.456 I  
BRANCH  13  17
HETATM   17  O   UNL     1     -11.891  15.566  68.788  1.00  0.00    -0.356 OA 
BRANCH  17  18
HETATM   18  C   UNL     1     -10.722  16.272  68.636  1.00  0.00    -0.309 A  
HETATM   19  C   UNL     1     -10.869  17.463  67.919  1.00  0.00    -0.270 A  
HETATM   20  C   UNL     1      -9.744  18.199  67.547  1.00  0.00    -0.303 A  
HETATM   21  I   UNL     1     -10.027  19.939  66.427  1.00  0.00    -0.555 I  
HETATM   22  C   UNL     1      -8.467  17.749  67.895  1.00  0.00    -0.245 A  
HETATM   23  C   UNL     1      -8.332  16.604  68.690  1.00  0.00    -0.246 A  
HETATM   24  O   UNL     1      -7.349  18.401  67.448  1.00  0.00    -0.213 OA 
HETATM   25  H   UNL     1      -6.481  18.095  67.685  1.00  0.00     0.000 HD 
HETATM   26  I   UNL     1      -6.451  15.841  69.207  1.00  0.00    -0.183 I  
HETATM   27  C   UNL     1      -9.465  15.888  69.101  1.00  0.00    -0.260 A  
ENDBRANCH  17  18
ENDBRANCH  13  17
ENDBRANCH   8   9
ENDBRANCH   4   8
TORSDOF 4
ENDMDL
MODEL        5
REMARK 921   NORMALIZED FREE ENERGY PREDICTED BY IDOCK:   -6.43 KCAL/MOL
REMARK 922        TOTAL FREE ENERGY PREDICTED BY IDOCK:   -8.76 KCAL/MOL
REMARK 923 INTER-LIGAND FREE ENERGY PREDICTED BY IDOCK:   -8.05 KCAL/MOL
REMARK 924 INTRA-LIGAND FREE ENERGY PREDICTED BY IDOCK:   -0.71 KCAL/MOL
REMARK 927      BINDING AFFINITY PREDICTED BY RF-SCORE:    0.00 PKD
ROOT
HETATM    1  N   UNL     1     -10.018  19.468  67.852  1.00  0.00    -0.369 NA 
HETATM    2  H1  UNL     1      -9.428  19.922  68.549  1.00  0.00     0.000 HD 
HETATM    3  H2  UNL     1     -10.893  19.150  68.268  1.00  0.00     0.000 HD 
HETATM    4  CA  UNL     1      -9.326  18.346  67.141  1.00  0.00    -0.271 C  
HETATM    5  C   UNL     1      -8.071  18.912  66.454  1.00  0.00    -0.292 C  
HETATM    6  OXT UNL     1      -7.357  18.301  65.680  1.00  0.00    -0.519 OA 
HETATM    7  O   UNL     1      -7.846  20.200  66.826  1.00  0.00    -0.290 OA 
ENDROOT
BRANCH   4   8
HETATM    8  C   UNL     1     -10.217  17.661  66.089  1.00  0.00    -0.345 C  
BRANCH   8   9
HETATM    9  C   UNL     1     -10.658  16.278  66.506  1.00  0.00    -0.256 A  
HETATM   10  C   UNL     1     -10.890  15.278  65.557  1.00  0.00    -0.382 A  
HETATM   11  C   UNL     1     -11.349  14.016  65.957  1.00  0.00    -0.328 A  
HETATM   12  I   UNL     1     -11.763  12.632  64.420  1.00  0.00    -0.559 I  
HETATM   13  C   UNL     1     -11.595  13.719  67.312  1.00  0.00    -0.361 A  
HETATM   14  C   UNL     1     -11.446  14.757  68.248  1.00  0.00    -0.317 A  
HETATM   15  C   UNL     1     -10.927  16.002  67.850  1.00  0.00    -0.327 A  
HETATM   16  I   UNL     1     -12.175  14.724  70.235  1.00  0.00    -0.416 I  
BRANCH  13  17
HETATM   17  O   UNL     1     -12.097  12.462  67.563  1.00  0.00    -0.491 OA 
BRANCH  17  18
HETATM   18  C   UNL     1     -11.425  11.549  68.342  1.00  0.00    -0.298 A  
HETATM   19  C   UNL     1     -12.205  10.990  69.359  1.00  0.00    -0.329 A  
HETATM   20  C   UNL     1     -11.615  10.174  70.323  1.00  0.00    -0.302 A  
HETATM   21  I   UNL     1     -12.823   9.417  71.850  1.00  0.00    -0.523 I  
HETATM   22  C   UNL     1     -10.244   9.910  70.272  1.00  0.00    -0.264 A  
HETATM   23  C   UNL     1      -9.486  10.399  69.201  1.00  0.00    -0.208 A  
HETATM   24  O   UNL     1      -9.630   9.200  71.270  1.00  0.00    -0.275 OA 
HETATM   25  H   UNL     1      -8.697   9.020  71.235  1.00  0.00     0.000 HD 
HETATM   26  I   UNL     1      -7.418  10.088  69.086  1.00  0.00    -0.130 I  
HETATM   27  C   UNL     1     -10.086  11.183  68.207  1.00  0.00    -0.196 A  
ENDBRANCH  17  18
ENDBRANCH  13  17
ENDBRANCH   8   9
ENDBRANCH   4   8
TORSDOF 4
ENDMDL
MODEL        6
REMARK 921   NORMALIZED FREE ENERGY PREDICTED BY IDOCK:   -6.39 KCAL/MOL
REMARK 922        TOTAL FREE ENERGY PREDICTED BY IDOCK:   -8.71 KCAL/MOL
REMARK 923 INTER-LIGAND FREE ENERGY PREDICTED BY IDOCK:   -8.36 KCAL/MOL
REMARK 924 INTRA-LIGAND FREE ENERGY PREDICTED BY IDOCK:   -0.35 KCAL/MOL
REMARK 927      BINDING AFFINITY PREDICTED BY RF-SCORE:    0.00 PKD
ROOT
HETATM    1  N   UNL     1     -14.158   8.988  72.711  1.00  0.00    -1.035 NA 
HETATM    2  H1  UNL     1     -14.956   8.363  72.593  1.00  0.00     0.000 HD 
HETATM    3  H2  UNL     1     -14.466   9.931  72.944  1.00  0.00     0.000 HD 
HETATM    4  CA  UNL     1     -13.246   9.001  71.522  1.00  0.00    -0.334 C  
HETATM    5  C   UNL     1     -12.740   7.568  71.286  1.00  0.00    -0.302 C  
HETATM    6  OXT UNL     1     -11.876   7.249  70.488  1.00  0.00    -0.276 OA 
HETATM    7  O   UNL     1     -13.387   6.681  72.087  1.00  0.00    -0.120 OA 
ENDROOT
BRANCH   4   8
HETATM    8  C   UNL     1     -12.042   9.945  71.699  1.00  0.00    -0.457 C  
BRANCH   8   9
HETATM    9  C   UNL     1     -12.041  11.085  70.709  1.00  0.00    -0.467 A  
HETATM   10  C   UNL     1     -11.596  10.901  69.397  1.00  0.00    -0.387 A  
HETATM   11  C   UNL     1     -11.553  11.982  68.505  1.00  0.00    -0.309 A  
HETATM   12  I   UNL     1     -10.762  11.594  66.589  1.00  0.00    -0.349 I  
HETATM   13  C   UNL     1     -11.946  13.276  68.901  1.00  0.00    -0.297 A  
HETATM   14  C   UNL     1     -12.304  13.470  70.247  1.00  0.00    -0.300 A  
HETATM   15  C   UNL     1     -12.405  12.372  71.119  1.00  0.00    -0.243 A  
HETATM   16  I   UNL     1     -12.485  15.349  71.204  1.00  0.00    -0.586 I  
BRANCH  13  17
HETATM   17  O   UNL     1     -11.801  14.258  67.948  1.00  0.00    -0.342 OA 
BRANCH  17  18
HETATM   18  C   UNL     1     -10.788  15.185  68.001  1.00  0.00    -0.284 A  
HETATM   19  C   UNL     1      -9.585  14.680  68.503  1.00  0.00    -0.221 A  
HETATM   20  C   UNL     1      -8.521  15.542  68.766  1.00  0.00    -0.190 A  
HETATM   21  I   UNL     1      -6.770  14.734  69.570  1.00  0.00    -0.156 I  
HETATM   22  C   UNL     1      -8.654  16.912  68.524  1.00  0.00    -0.251 A  
HETATM   23  C   UNL     1      -9.829  17.398  67.938  1.00  0.00    -0.287 A  
HETATM   24  O   UNL     1      -7.659  17.785  68.877  1.00  0.00    -0.277 OA 
HETATM   25  H   UNL     1      -7.750  18.717  68.712  1.00  0.00     0.000 HD 
HETATM   26  I   UNL     1     -10.120  19.444  67.595  1.00  0.00    -0.621 I  
HETATM   27  C   UNL     1     -10.882  16.527  67.632  1.00  0.00    -0.269 A  
ENDBRANCH  17  18
ENDBRANCH  13  17
ENDBRANCH   8   9
ENDBRANCH   4   8
TORSDOF 4
ENDMDL
MODEL        7
REMARK 921   NORMALIZED FREE ENERGY PREDICTED BY IDOCK:   -6.35 KCAL/MOL
REMARK 922        TOTAL FREE ENERGY PREDICTED BY IDOCK:   -8.65 KCAL/MOL
REMARK 923 INTER-LIGAND FREE ENERGY PREDICTED BY IDOCK:   -8.03 KCAL/MOL
REMARK 924 INTRA-LIGAND FREE ENERGY PREDICTED BY IDOCK:   -0.63 KCAL/MOL
REMARK 927      BINDING AFFINITY PREDICTED BY RF-SCORE:    0.00 PKD
ROOT
HETATM    1  N   UNL     1     -13.461   7.265  70.944  1.00  0.00    -0.564 NA 
HETATM    2  H1  UNL     1     -13.196   6.309  70.707  1.00  0.00     0.000 HD 
HETATM    3  H2  UNL     1     -14.151   7.625  70.285  1.00  0.00     0.000 HD 
HETATM    4  CA  UNL     1     -12.286   8.189  71.046  1.00  0.00    -0.177 C  
HETATM    5  C   UNL     1     -11.335   7.643  72.125  1.00  0.00    -0.293 C  
HETATM    6  OXT UNL     1     -10.355   8.222  72.557  1.00  0.00    -0.303 OA 
HETATM    7  O   UNL     1     -11.725   6.410  72.544  1.00  0.00    -0.261 OA 
ENDROOT
BRANCH   4   8
HETATM    8  C   UNL     1     -12.686   9.633  71.403  1.00  0.00    -0.466 C  
BRANCH   8   9
HETATM    9  C   UNL     1     -11.968  10.664  70.566  1.00  0.00    -0.446 A  
HETATM   10  C   UNL     1     -10.893  10.306  69.747  1.00  0.00    -0.332 A  
HETATM   11  C   UNL     1     -10.204  11.283  69.016  1.00  0.00    -0.150 A  
HETATM   12  I   UNL     1      -8.535  10.629  67.904  1.00  0.00    -0.128 I  
HETATM   13  C   UNL     1     -10.564  12.644  69.087  1.00  0.00     0.050 A  
HETATM   14  C   UNL     1     -11.586  13.005  69.983  1.00  0.00    -0.124 A  
HETATM   15  C   UNL     1     -12.313  12.015  70.666  1.00  0.00    -0.394 A  
HETATM   16  I   UNL     1     -12.007  14.978  70.622  1.00  0.00    -0.497 I  
BRANCH  13  17
HETATM   17  O   UNL     1      -9.771  13.507  68.365  1.00  0.00    -0.221 OA 
BRANCH  17  18
HETATM   18  C   UNL     1     -10.282  14.319  67.381  1.00  0.00    -0.247 A  
HETATM   19  C   UNL     1     -10.870  13.622  66.321  1.00  0.00    -0.282 A  
HETATM   20  C   UNL     1     -11.284  14.306  65.179  1.00  0.00    -0.345 A  
HETATM   21  I   UNL     1     -12.101  13.202  63.606  1.00  0.00    -0.279 I  
HETATM   22  C   UNL     1     -11.115  15.691  65.094  1.00  0.00    -0.348 A  
HETATM   23  C   UNL     1     -10.609  16.394  66.194  1.00  0.00    -0.255 A  
HETATM   24  O   UNL     1     -11.417  16.364  63.939  1.00  0.00    -1.569 OA 
HETATM   25  H   UNL     1     -11.302  17.306  63.881  1.00  0.00     0.000 HD 
HETATM   26  I   UNL     1     -10.280  18.461  66.120  1.00  0.00    -0.132 I  
HETATM   27  C   UNL     1     -10.234  15.712  67.359  1.00  0.00    -0.264 A  
ENDBRANCH  17  18
ENDBRANCH  13  17
ENDBRANCH   8   9
ENDBRANCH   4   8
TORSDOF 4
ENDMDL
MODEL        8
REMARK 921   NORMALIZED FREE ENERGY PREDICTED BY IDOCK:   -6.29 KCAL/MOL
REMARK 922        TOTAL FREE ENERGY PREDICTED BY IDOCK:   -8.58 KCAL/MOL
REMARK 923 INTER-LIGAND FREE ENERGY PREDICTED BY IDOCK:   -8.00 KCAL/MOL
REMARK 924 INTRA-LIGAND FREE ENERGY PREDICTED BY IDOCK:   -0.58 KCAL/MOL
REMARK 927      BINDING AFFINITY PREDICTED BY RF-SCORE:    0.00 PKD
ROOT
HETATM    1  N   UNL     1     -12.420   7.624  70.458  1.00  0.00    -0.451 NA 
HETATM    2  H1  UNL     1     -11.919   6.877  69.979  1.00  0.00     0.000 HD 
HETATM    3  H2  UNL     1     -13.249   7.901  69.933  1.00  0.00     0.000 HD 
HETATM    4  CA  UNL     1     -11.555   8.811  70.756  1.00  0.00    -0.251 C  
HETATM    5  C   UNL     1     -10.380   8.343  71.633  1.00  0.00    -0.243 C  
HETATM    6  OXT UNL     1      -9.567   9.075  72.168  1.00  0.00    -0.312 OA 
HETATM    7  O   UNL     1     -10.354   6.988  71.737  1.00  0.00    -0.198 OA 
ENDROOT
BRANCH   4   8
HETATM    8  C   UNL     1     -12.312   9.940  71.479  1.00  0.00    -0.504 C  
BRANCH   8   9
HETATM    9  C   UNL     1     -12.187  11.272  70.777  1.00  0.00    -0.479 A  
HETATM   10  C   UNL     1     -12.602  12.455  71.396  1.00  0.00    -0.299 A  
HETATM   11  C   UNL     1     -12.527  13.675  70.711  1.00  0.00    -0.359 A  
HETATM   12  I   UNL     1     -13.283  15.369  71.715  1.00  0.00    -0.596 I  
HETATM   13  C   UNL     1     -12.043  13.748  69.389  1.00  0.00    -0.328 A  
HETATM   14  C   UNL     1     -11.715  12.542  68.744  1.00  0.00    -0.327 A  
HETATM   15  C   UNL     1     -11.733  11.330  69.455  1.00  0.00    -0.415 A  
HETATM   16  I   UNL     1     -11.414  12.315  66.662  1.00  0.00    -0.367 I  
BRANCH  13  17
HETATM   17  O   UNL     1     -12.076  14.997  68.813  1.00  0.00    -0.272 OA 
BRANCH  17  18
HETATM   18  C   UNL     1     -10.936  15.736  68.604  1.00  0.00    -0.307 A  
HETATM   19  C   UNL     1      -9.763  15.095  69.015  1.00  0.00    -0.234 A  
HETATM   20  C   UNL     1      -8.552  15.786  69.016  1.00  0.00    -0.236 A  
HETATM   21  I   UNL     1      -6.847  14.791  69.696  1.00  0.00    -0.078 I  
HETATM   22  C   UNL     1      -8.507  17.120  68.601  1.00  0.00    -0.258 A  
HETATM   23  C   UNL     1      -9.668  17.728  68.107  1.00  0.00    -0.313 A  
HETATM   24  O   UNL     1      -7.349  17.845  68.696  1.00  0.00    -0.254 OA 
HETATM   25  H   UNL     1      -7.319  18.752  68.415  1.00  0.00     0.000 HD 
HETATM   26  I   UNL     1      -9.689  19.738  67.517  1.00  0.00    -0.587 I  
HETATM   27  C   UNL     1     -10.877  17.020  68.064  1.00  0.00    -0.330 A  
ENDBRANCH  17  18
ENDBRANCH  13  17
ENDBRANCH   8   9
ENDBRANCH   4   8
TORSDOF 4
ENDMDL
MODEL        9
REMARK 921   NORMALIZED FREE ENERGY PREDICTED BY IDOCK:   -6.28 KCAL/MOL
REMARK 922        TOTAL FREE ENERGY PREDICTED BY IDOCK:   -8.57 KCAL/MOL
REMARK 923 INTER-LIGAND FREE ENERGY PREDICTED BY IDOCK:   -7.81 KCAL/MOL
REMARK 924 INTRA-LIGAND FREE ENERGY PREDICTED BY IDOCK:   -0.76 KCAL/MOL
REMARK 927      BINDING AFFINITY PREDICTED BY RF-SCORE:    0.00 PKD
ROOT
HETATM    1  N   UNL     1     -12.643  11.371  62.861  1.00  0.00    -0.847 NA 
HETATM    2  H1  UNL     1     -13.615  11.683  62.857  1.00  0.00     0.000 HD 
HETATM    3  H2  UNL     1     -12.586  10.356  62.782  1.00  0.00     0.000 HD 
HETATM    4  CA  UNL     1     -11.878  11.859  64.053  1.00  0.00    -0.364 C  
HETATM    5  C   UNL     1     -11.919  13.396  64.057  1.00  0.00    -0.464 C  
HETATM    6  OXT UNL     1     -11.283  14.115  64.808  1.00  0.00    -0.349 OA 
HETATM    7  O   UNL     1     -12.769  13.867  63.107  1.00  0.00    -0.718 OA 
ENDROOT
BRANCH   4   8
HETATM    8  C   UNL     1     -10.412  11.388  64.059  1.00  0.00    -0.435 C  
BRANCH   8   9
HETATM    9  C   UNL     1      -9.956  10.909  65.417  1.00  0.00    -0.319 A  
HETATM   10  C   UNL     1      -9.128  11.699  66.220  1.00  0.00    -0.219 A  
HETATM   11  C   UNL     1      -8.672  11.219  67.455  1.00  0.00    -0.139 A  
HETATM   12  I   UNL     1      -7.345  12.464  68.520  1.00  0.00    -0.042 I  
HETATM   13  C   UNL     1      -9.023   9.935  67.918  1.00  0.00    -0.128 A  
HETATM   14  C   UNL     1      -9.778   9.113  67.064  1.00  0.00    -0.188 A  
HETATM   15  C   UNL     1     -10.285   9.622  65.855  1.00  0.00    -0.219 A  
HETATM   16  I   UNL     1     -10.048   7.027  67.299  1.00  0.00    -0.359 I  
BRANCH  13  17
HETATM   17  O   UNL     1      -8.462   9.563  69.119  1.00  0.00    -0.119 OA 
BRANCH  17  18
HETATM   18  C   UNL     1      -9.227   9.242  70.215  1.00  0.00    -0.237 A  
HETATM   19  C   UNL     1      -8.612   8.344  71.092  1.00  0.00    -0.187 A  
HETATM   20  C   UNL     1      -9.330   7.805  72.158  1.00  0.00    -0.153 A  
HETATM   21  I   UNL     1      -8.371   6.425  73.398  1.00  0.00    -0.131 I  
HETATM   22  C   UNL     1     -10.666   8.164  72.354  1.00  0.00    -0.334 A  
HETATM   23  C   UNL     1     -11.250   9.131  71.526  1.00  0.00    -0.360 A  
HETATM   24  O   UNL     1     -11.417   7.564  73.330  1.00  0.00    -0.613 OA 
HETATM   25  H   UNL     1     -12.326   7.808  73.463  1.00  0.00     0.000 HD 
HETATM   26  I   UNL     1     -13.261   9.680  71.727  1.00  0.00    -0.519 I  
HETATM   27  C   UNL     1     -10.515   9.707  70.481  1.00  0.00    -0.367 A  
ENDBRANCH  17  18
ENDBRANCH  13  17
ENDBRANCH   8   9
ENDBRANCH   4   8
TORSDOF 4
ENDMDL
MODEL       10
REMARK 921   NORMALIZED FREE ENERGY PREDICTED BY IDOCK:   -6.26 KCAL/MOL
REMARK 922        TOTAL FREE ENERGY PREDICTED BY IDOCK:   -8.55 KCAL/MOL
REMARK 923 INTER-LIGAND FREE ENERGY PREDICTED BY IDOCK:   -8.11 KCAL/MOL
REMARK 924 INTRA-LIGAND FREE ENERGY PREDICTED BY IDOCK:   -0.44 KCAL/MOL
REMARK 927      BINDING AFFINITY PREDICTED BY RF-SCORE:    0.00 PKD
ROOT
HETATM    1  N   UNL     1     -12.467  14.136  63.573  1.00  0.00    -1.106 NA 
HETATM    2  H1  UNL     1     -13.267  14.767  63.618  1.00  0.00     0.000 HD 
HETATM    3  H2  UNL     1     -12.772  13.167  63.490  1.00  0.00     0.000 HD 
HETATM    4  CA  UNL     1     -11.525  14.303  64.727  1.00  0.00    -0.393 C  
HETATM    5  C   UNL     1     -11.026  15.758  64.735  1.00  0.00    -0.393 C  
HETATM    6  OXT UNL     1     -10.146  16.196  65.455  1.00  0.00    -0.485 OA 
HETATM    7  O   UNL     1     -11.700  16.514  63.829  1.00  0.00    -1.086 OA 
ENDROOT
BRANCH   4   8
HETATM    8  C   UNL     1     -10.317  13.350  64.660  1.00  0.00    -0.400 C  
BRANCH   8   9
HETATM    9  C   UNL     1     -10.453  12.166  65.587  1.00  0.00    -0.290 A  
HETATM   10  C   UNL     1     -11.077  12.293  66.832  1.00  0.00    -0.341 A  
HETATM   11  C   UNL     1     -11.149  11.197  67.702  1.00  0.00    -0.287 A  
HETATM   12  I   UNL     1     -12.019  11.547  69.591  1.00  0.00    -0.342 I  
HETATM   13  C   UNL     1     -10.595   9.948  67.358  1.00  0.00    -0.277 A  
HETATM   14  C   UNL     1      -9.890   9.855  66.145  1.00  0.00    -0.260 A  
HETATM   15  C   UNL     1      -9.875  10.939  65.249  1.00  0.00    -0.318 A  
HETATM   16  I   UNL     1      -8.593   8.273  65.604  1.00  0.00    -0.123 I  
BRANCH  13  17
HETATM   17  O   UNL     1     -10.684   8.972  68.324  1.00  0.00    -0.191 OA 
BRANCH  17  18
HETATM   18  C   UNL     1      -9.746   8.844  69.322  1.00  0.00    -0.165 A  
HETATM   19  C   UNL     1     -10.203   8.143  70.442  1.00  0.00    -0.203 A  
HETATM   20  C   UNL     1      -9.419   8.076  71.592  1.00  0.00    -0.164 A  
HETATM   21  I   UNL     1     -10.183   7.063  73.251  1.00  0.00    -0.419 I  
HETATM   22  C   UNL     1      -8.172   8.707  71.627  1.00  0.00    -0.144 A  
HETATM   23  C   UNL     1      -7.682   9.331  70.472  1.00  0.00    -0.148 A  
HETATM   24  O   UNL     1      -7.437   8.742  72.782  1.00  0.00    -0.353 OA 
HETATM   25  H   UNL     1      -6.589   9.171  72.805  1.00  0.00     0.000 HD 
HETATM   26  I   UNL     1      -5.847  10.340  70.465  1.00  0.00    -0.084 I  
HETATM   27  C   UNL     1      -8.451   9.360  69.302  1.00  0.00    -0.141 A  
ENDBRANCH  17  18
ENDBRANCH  13  17
ENDBRANCH   8   9
ENDBRANCH   4   8
TORSDOF 4
ENDMDL
MODEL       11
REMARK 921   NORMALIZED FREE ENERGY PREDICTED BY IDOCK:   -6.21 KCAL/MOL
REMARK 922        TOTAL FREE ENERGY PREDICTED BY IDOCK:   -8.49 KCAL/MOL
REMARK 923 INTER-LIGAND FREE ENERGY PREDICTED BY IDOCK:   -8.11 KCAL/MOL
REMARK 924 INTRA-LIGAND FREE ENERGY PREDICTED BY IDOCK:   -0.38 KCAL/MOL
REMARK 927      BINDING AFFINITY PREDICTED BY RF-SCORE:    0.00 PKD
ROOT
HETATM    1  N   UNL     1      -6.980  19.159  69.070  1.00  0.00    -0.325 NA 
HETATM    2  H1  UNL     1      -6.032  19.170  68.695  1.00  0.00     0.000 HD 
HETATM    3  H2  UNL     1      -7.055  18.509  69.851  1.00  0.00     0.000 HD 
HETATM    4  CA  UNL     1      -8.016  18.865  68.028  1.00  0.00    -0.286 C  
HETATM    5  C   UNL     1      -7.915  19.938  66.930  1.00  0.00    -0.306 C  
HETATM    6  OXT UNL     1      -8.698  20.076  66.008  1.00  0.00    -0.342 OA 
HETATM    7  O   UNL     1      -6.823  20.726  67.114  1.00  0.00    -0.286 OA 
ENDROOT
BRANCH   4   8
HETATM    8  C   UNL     1      -9.449  18.847  68.593  1.00  0.00    -0.427 C  
BRANCH   8   9
HETATM    9  C   UNL     1     -10.135  17.515  68.406  1.00  0.00    -0.358 A  
HETATM   10  C   UNL     1     -10.216  16.916  67.146  1.00  0.00    -0.297 A  
HETATM   11  C   UNL     1     -10.902  15.705  66.981  1.00  0.00    -0.294 A  
HETATM   12  I   UNL     1     -11.043  14.961  65.012  1.00  0.00    -0.394 I  
HETATM   13  C   UNL     1     -11.531  15.063  68.066  1.00  0.00    -0.342 A  
HETATM   14  C   UNL     1     -11.523  15.718  69.310  1.00  0.00    -0.365 A  
HETATM   15  C   UNL     1     -10.781  16.900  69.484  1.00  0.00    -0.205 A  
HETATM   16  I   UNL     1     -12.753  15.224  70.959  1.00  0.00    -0.561 I  
BRANCH  13  17
HETATM   17  O   UNL     1     -12.218  13.911  67.758  1.00  0.00    -0.338 OA 
BRANCH  17  18
HETATM   18  C   UNL     1     -11.787  12.671  68.167  1.00  0.00    -0.315 A  
HETATM   19  C   UNL     1     -11.066  11.972  67.194  1.00  0.00    -0.344 A  
HETATM   20  C   UNL     1     -10.708  10.642  67.410  1.00  0.00    -0.276 A  
HETATM   21  I   UNL     1      -9.682   9.637  65.895  1.00  0.00    -0.278 I  
HETATM   22  C   UNL     1     -11.066  10.006  68.602  1.00  0.00    -0.174 A  
HETATM   23  C   UNL     1     -11.709  10.738  69.609  1.00  0.00    -0.323 A  
HETATM   24  O   UNL     1     -10.816   8.673  68.787  1.00  0.00    -0.414 OA 
HETATM   25  H   UNL     1     -11.060   8.240  69.597  1.00  0.00     0.000 HD 
HETATM   26  I   UNL     1     -12.321   9.839  71.399  1.00  0.00    -0.527 I  
HETATM   27  C   UNL     1     -12.030  12.087  69.410  1.00  0.00    -0.334 A  
ENDBRANCH  17  18
ENDBRANCH  13  17
ENDBRANCH   8   9
ENDBRANCH   4   8
TORSDOF 4
ENDMDL
MODEL       12
REMARK 921   NORMALIZED FREE ENERGY PREDICTED BY IDOCK:   -6.19 KCAL/MOL
REMARK 922        TOTAL FREE ENERGY PREDICTED BY IDOCK:   -8.46 KCAL/MOL
REMARK 923 INTER-LIGAND FREE ENERGY PREDICTED BY IDOCK:   -7.89 KCAL/MOL
REMARK 924 INTRA-LIGAND FREE ENERGY PREDICTED BY IDOCK:   -0.57 KCAL/MOL
REMARK 927      BINDING AFFINITY PREDICTED BY RF-SCORE:    0.00 PKD
ROOT
HETATM    1  N   UNL     1     -10.289  19.431  67.732  1.00  0.00    -0.410 NA 
HETATM    2  H1  UNL     1      -9.745  19.940  68.429  1.00  0.00     0.000 HD 
HETATM    3  H2  UNL     1     -11.159  19.082  68.133  1.00  0.00     0.000 HD 
HETATM    4  CA  UNL     1      -9.516  18.323  67.083  1.00  0.00    -0.268 C  
HETATM    5  C   UNL     1      -8.272  18.930  66.413  1.00  0.00    -0.294 C  
HETATM    6  OXT UNL     1      -7.503  18.331  65.683  1.00  0.00    -0.532 OA 
HETATM    7  O   UNL     1      -8.127  20.241  66.743  1.00  0.00    -0.303 OA 
ENDROOT
BRANCH   4   8
HETATM    8  C   UNL     1     -10.337  17.554  66.032  1.00  0.00    -0.309 C  
BRANCH   8   9
HETATM    9  C   UNL     1     -10.763  16.185  66.508  1.00  0.00    -0.220 A  
HETATM   10  C   UNL     1     -11.031  15.157  65.599  1.00  0.00    -0.359 A  
HETATM   11  C   UNL     1     -11.475  13.908  66.055  1.00  0.00    -0.340 A  
HETATM   12  I   UNL     1     -11.947  12.478  64.578  1.00  0.00    -0.515 I  
HETATM   13  C   UNL     1     -11.670  13.653  67.427  1.00  0.00    -0.381 A  
HETATM   14  C   UNL     1     -11.485  14.719  68.324  1.00  0.00    -0.317 A  
HETATM   15  C   UNL     1     -10.981  15.950  67.869  1.00  0.00    -0.327 A  
HETATM   16  I   UNL     1     -12.139  14.749  70.337  1.00  0.00    -0.462 I  
BRANCH  13  17
HETATM   17  O   UNL     1     -12.162  12.405  67.735  1.00  0.00    -0.395 OA 
BRANCH  17  18
HETATM   18  C   UNL     1     -11.543  11.579  68.643  1.00  0.00    -0.313 A  
HETATM   19  C   UNL     1     -10.177  11.399  68.405  1.00  0.00    -0.206 A  
HETATM   20  C   UNL     1      -9.456  10.462  69.144  1.00  0.00    -0.208 A  
HETATM   21  I   UNL     1      -7.433  10.199  68.701  1.00  0.00    -0.100 I  
HETATM   22  C   UNL     1     -10.097   9.704  70.128  1.00  0.00    -0.262 A  
HETATM   23  C   UNL     1     -11.444   9.953  70.422  1.00  0.00    -0.301 A  
HETATM   24  O   UNL     1      -9.431   8.707  70.788  1.00  0.00    -0.166 OA 
HETATM   25  H   UNL     1      -9.867   8.191  71.457  1.00  0.00     0.000 HD 
HETATM   26  I   UNL     1     -12.483   8.822  71.846  1.00  0.00    -0.499 I  
HETATM   27  C   UNL     1     -12.158  10.925  69.710  1.00  0.00    -0.409 A  
ENDBRANCH  17  18
ENDBRANCH  13  17
ENDBRANCH   8   9
ENDBRANCH   4   8
TORSDOF 4
ENDMDL
MODEL       13
REMARK 921   NORMALIZED FREE ENERGY PREDICTED BY IDOCK:   -6.17 KCAL/MOL
REMARK 922        TOTAL FREE ENERGY PREDICTED BY IDOCK:   -8.44 KCAL/MOL
REMARK 923 INTER-LIGAND FREE ENERGY PREDICTED BY IDOCK:   -7.69 KCAL/MOL
REMARK 924 INTRA-LIGAND FREE ENERGY PREDICTED BY IDOCK:   -0.75 KCAL/MOL
REMARK 927      BINDING AFFINITY PREDICTED BY RF-SCORE:    0.00 PKD
ROOT
HETATM    1  N   UNL     1     -12.521  14.563  63.807  1.00  0.00    -1.065 NA 
HETATM    2  H1  UNL     1     -13.287  15.230  63.904  1.00  0.00     0.000 HD 
HETATM    3  H2  UNL     1     -12.874  13.609  63.740  1.00  0.00     0.000 HD 
HETATM    4  CA  UNL     1     -11.502  14.681  64.900  1.00  0.00    -0.401 C  
HETATM    5  C   UNL     1     -10.938  16.112  64.881  1.00  0.00    -0.349 C  
HETATM    6  OXT UNL     1      -9.996  16.505  65.545  1.00  0.00    -0.541 OA 
HETATM    7  O   UNL     1     -11.633  16.903  64.021  1.00  0.00    -1.123 OA 
ENDROOT
BRANCH   4   8
HETATM    8  C   UNL     1     -10.346  13.675  64.755  1.00  0.00    -0.414 C  
BRANCH   8   9
HETATM    9  C   UNL     1     -10.178  12.796  65.972  1.00  0.00    -0.290 A  
HETATM   10  C   UNL     1     -11.083  12.856  67.035  1.00  0.00    -0.309 A  
HETATM   11  C   UNL     1     -10.884  12.071  68.179  1.00  0.00    -0.221 A  
HETATM   12  I   UNL     1     -12.261  12.334  69.755  1.00  0.00     0.086 I  
HETATM   13  C   UNL     1      -9.774  11.211  68.296  1.00  0.00    -0.188 A  
HETATM   14  C   UNL     1      -8.822  11.225  67.261  1.00  0.00    -0.150 A  
HETATM   15  C   UNL     1      -9.058  11.967  66.091  1.00  0.00    -0.162 A  
HETATM   16  I   UNL     1      -6.875  10.404  67.382  1.00  0.00    -0.082 I  
BRANCH  13  17
HETATM   17  O   UNL     1      -9.666  10.539  69.492  1.00  0.00    -0.202 OA 
BRANCH  17  18
HETATM   18  C   UNL     1     -10.021   9.218  69.624  1.00  0.00    -0.191 A  
HETATM   19  C   UNL     1     -10.163   8.799  70.950  1.00  0.00    -0.284 A  
HETATM   20  C   UNL     1     -10.361   7.450  71.240  1.00  0.00    -0.192 A  
HETATM   21  I   UNL     1     -10.507   6.880  73.243  1.00  0.00    -0.401 I  
HETATM   22  C   UNL     1     -10.421   6.513  70.203  1.00  0.00    -0.214 A  
HETATM   23  C   UNL     1     -10.368   6.951  68.874  1.00  0.00    -0.189 A  
HETATM   24  O   UNL     1     -10.506   5.174  70.474  1.00  0.00    -0.258 OA 
HETATM   25  H   UNL     1     -10.547   4.537  69.770  1.00  0.00     0.000 HD 
HETATM   26  I   UNL     1     -10.399   5.602  67.272  1.00  0.00    -0.323 I  
HETATM   27  C   UNL     1     -10.214   8.312  68.581  1.00  0.00    -0.223 A  
ENDBRANCH  17  18
ENDBRANCH  13  17
ENDBRANCH   8   9
ENDBRANCH   4   8
TORSDOF 4
ENDMDL
MODEL       14
REMARK 921   NORMALIZED FREE ENERGY PREDICTED BY IDOCK:   -6.13 KCAL/MOL
REMARK 922        TOTAL FREE ENERGY PREDICTED BY IDOCK:   -8.38 KCAL/MOL
REMARK 923 INTER-LIGAND FREE ENERGY PREDICTED BY IDOCK:   -7.64 KCAL/MOL
REMARK 924 INTRA-LIGAND FREE ENERGY PREDICTED BY IDOCK:   -0.74 KCAL/MOL
REMARK 927      BINDING AFFINITY PREDICTED BY RF-SCORE:    0.00 PKD
ROOT
HETATM    1  N   UNL     1     -10.765  15.174  64.718  1.00  0.00    -0.582 NA 
HETATM    2  H1  UNL     1     -10.442  15.085  63.755  1.00  0.00     0.000 HD 
HETATM    3  H2  UNL     1     -10.050  15.605  65.304  1.00  0.00     0.000 HD 
HETATM    4  CA  UNL     1     -11.224  13.873  65.305  1.00  0.00    -0.313 C  
HETATM    5  C   UNL     1     -12.368  13.328  64.432  1.00  0.00    -0.348 C  
HETATM    6  OXT UNL     1     -13.058  12.362  64.702  1.00  0.00    -0.825 OA 
HETATM    7  O   UNL     1     -12.517  14.066  63.300  1.00  0.00    -0.795 OA 
ENDROOT
BRANCH   4   8
HETATM    8  C   UNL     1     -11.711  14.008  66.759  1.00  0.00    -0.430 C  
BRANCH   8   9
HETATM    9  C   UNL     1     -11.252  12.870  67.638  1.00  0.00    -0.317 A  
HETATM   10  C   UNL     1     -12.023  12.440  68.723  1.00  0.00    -0.276 A  
HETATM   11  C   UNL     1     -11.558  11.417  69.560  1.00  0.00    -0.331 A  
HETATM   12  I   UNL     1     -12.765  10.935  71.221  1.00  0.00    -0.405 I  
HETATM   13  C   UNL     1     -10.310  10.800  69.343  1.00  0.00    -0.179 A  
HETATM   14  C   UNL     1      -9.503  11.300  68.306  1.00  0.00    -0.190 A  
HETATM   15  C   UNL     1      -9.999  12.283  67.432  1.00  0.00    -0.205 A  
HETATM   16  I   UNL     1      -7.443  10.886  68.054  1.00  0.00    -0.101 I  
BRANCH  13  17
HETATM   17  O   UNL     1      -9.948   9.849  70.270  1.00  0.00    -0.254 OA 
BRANCH  17  18
HETATM   18  C   UNL     1     -10.130   8.505  70.048  1.00  0.00    -0.192 A  
HETATM   19  C   UNL     1     -10.274   7.753  71.218  1.00  0.00    -0.218 A  
HETATM   20  C   UNL     1     -10.303   6.360  71.155  1.00  0.00    -0.205 A  
HETATM   21  I   UNL     1     -10.463   5.293  72.942  1.00  0.00    -0.328 I  
HETATM   22  C   UNL     1     -10.191   5.714  69.920  1.00  0.00    -0.250 A  
HETATM   23  C   UNL     1     -10.136   6.474  68.746  1.00  0.00    -0.161 A  
HETATM   24  O   UNL     1     -10.110   4.349  69.850  1.00  0.00    -0.222 OA 
HETATM   25  H   UNL     1     -10.033   3.909  69.011  1.00  0.00     0.000 HD 
HETATM   26  I   UNL     1      -9.915   5.577  66.866  1.00  0.00    -0.312 I  
HETATM   27  C   UNL     1     -10.152   7.874  68.805  1.00  0.00    -0.203 A  
ENDBRANCH  17  18
ENDBRANCH  13  17
ENDBRANCH   8   9
ENDBRANCH   4   8
TORSDOF 4
ENDMDL
MODEL       15
REMARK 921   NORMALIZED FREE ENERGY PREDICTED BY IDOCK:   -6.06 KCAL/MOL
REMARK 922        TOTAL FREE ENERGY PREDICTED BY IDOCK:   -8.29 KCAL/MOL
REMARK 923 INTER-LIGAND FREE ENERGY PREDICTED BY IDOCK:   -7.46 KCAL/MOL
REMARK 924 INTRA-LIGAND FREE ENERGY PREDICTED BY IDOCK:   -0.83 KCAL/MOL
REMARK 927      BINDING AFFINITY PREDICTED BY RF-SCORE:    0.00 PKD
ROOT
HETATM    1  N   UNL     1     -12.213   6.797  69.869  1.00  0.00    -0.521 NA 
HETATM    2  H1  UNL     1     -11.701   5.924  69.746  1.00  0.00     0.000 HD 
HETATM    3  H2  UNL     1     -12.441   7.215  68.967  1.00  0.00     0.000 HD 
HETATM    4  CA  UNL     1     -11.496   7.777  70.746  1.00  0.00    -0.272 C  
HETATM    5  C   UNL     1     -11.273   7.122  72.120  1.00  0.00    -0.255 C  
HETATM    6  OXT UNL     1     -10.842   7.689  73.108  1.00  0.00    -0.382 OA 
HETATM    7  O   UNL     1     -11.615   5.806  72.098  1.00  0.00    -0.276 OA 
ENDROOT
BRANCH   4   8
HETATM    8  C   UNL     1     -12.269   9.096  70.931  1.00  0.00    -0.239 C  
BRANCH   8   9
HETATM    9  C   UNL     1     -11.623  10.259  70.216  1.00  0.00    -0.396 A  
HETATM   10  C   UNL     1     -10.398  10.111  69.559  1.00  0.00    -0.263 A  
HETATM   11  C   UNL     1      -9.786  11.212  68.945  1.00  0.00    -0.162 A  
HETATM   12  I   UNL     1      -7.892  10.879  68.081  1.00  0.00    -0.133 I  
HETATM   13  C   UNL     1     -10.377  12.492  68.975  1.00  0.00     0.060 A  
HETATM   14  C   UNL     1     -11.561  12.650  69.716  1.00  0.00    -0.214 A  
HETATM   15  C   UNL     1     -12.201  11.531  70.277  1.00  0.00    -0.415 A  
HETATM   16  I   UNL     1     -12.394  14.503  70.306  1.00  0.00    -0.363 I  
BRANCH  13  17
HETATM   17  O   UNL     1      -9.646  13.497  68.384  1.00  0.00    -0.217 OA 
BRANCH  17  18
HETATM   18  C   UNL     1     -10.016  14.062  67.187  1.00  0.00    -0.252 A  
HETATM   19  C   UNL     1      -9.855  15.451  67.143  1.00  0.00    -0.221 A  
HETATM   20  C   UNL     1     -10.340  16.176  66.056  1.00  0.00    -0.358 A  
HETATM   21  I   UNL     1     -10.120  18.253  66.076  1.00  0.00     0.061 I  
HETATM   22  C   UNL     1     -10.985  15.516  65.005  1.00  0.00    -0.440 A  
HETATM   23  C   UNL     1     -11.063  14.118  65.014  1.00  0.00    -0.370 A  
HETATM   24  O   UNL     1     -11.560  16.222  63.983  1.00  0.00    -1.366 OA 
HETATM   25  H   UNL     1     -11.999  15.774  63.269  1.00  0.00     0.000 HD 
HETATM   26  I   UNL     1     -12.059  13.065  63.501  1.00  0.00    -0.174 I  
HETATM   27  C   UNL     1     -10.537  13.384  66.085  1.00  0.00    -0.294 A  
ENDBRANCH  17  18
ENDBRANCH  13  17
ENDBRANCH   8   9
ENDBRANCH   4   8
TORSDOF 4
ENDMDL
MODEL       16
REMARK 921   NORMALIZED FREE ENERGY PREDICTED BY IDOCK:   -6.03 KCAL/MOL
REMARK 922        TOTAL FREE ENERGY PREDICTED BY IDOCK:   -8.26 KCAL/MOL
REMARK 923 INTER-LIGAND FREE ENERGY PREDICTED BY IDOCK:   -7.46 KCAL/MOL
REMARK 924 INTRA-LIGAND FREE ENERGY PREDICTED BY IDOCK:   -0.80 KCAL/MOL
REMARK 927      BINDING AFFINITY PREDICTED BY RF-SCORE:    0.00 PKD
ROOT
HETATM    1  N   UNL     1     -10.154  16.362  65.958  1.00  0.00    -0.336 NA 
HETATM    2  H1  UNL     1      -9.580  16.624  65.157  1.00  0.00     0.000 HD 
HETATM    3  H2  UNL     1      -9.591  16.297  66.804  1.00  0.00     0.000 HD 
HETATM    4  CA  UNL     1     -10.929  15.099  65.733  1.00  0.00    -0.349 C  
HETATM    5  C   UNL     1     -11.831  15.299  64.503  1.00  0.00    -0.295 C  
HETATM    6  OXT UNL     1     -12.690  14.521  64.127  1.00  0.00    -0.711 OA 
HETATM    7  O   UNL     1     -11.547  16.468  63.870  1.00  0.00    -1.175 OA 
ENDROOT
BRANCH   4   8
HETATM    8  C   UNL     1     -11.796  14.703  66.942  1.00  0.00    -0.345 C  
BRANCH   8   9
HETATM    9  C   UNL     1     -11.457  13.335  67.483  1.00  0.00    -0.361 A  
HETATM   10  C   UNL     1     -10.808  12.386  66.688  1.00  0.00    -0.281 A  
HETATM   11  C   UNL     1     -10.547  11.103  67.189  1.00  0.00    -0.244 A  
HETATM   12  I   UNL     1      -9.660   9.732  65.854  1.00  0.00    -0.352 I  
HETATM   13  C   UNL     1     -10.932  10.730  68.492  1.00  0.00    -0.243 A  
HETATM   14  C   UNL     1     -11.664  11.661  69.250  1.00  0.00    -0.331 A  
HETATM   15  C   UNL     1     -11.869  12.965  68.768  1.00  0.00    -0.353 A  
HETATM   16  I   UNL     1     -12.744  11.217  71.015  1.00  0.00    -0.206 I  
BRANCH  13  17
HETATM   17  O   UNL     1     -10.667   9.425  68.840  1.00  0.00    -0.222 OA 
BRANCH  17  18
HETATM   18  C   UNL     1      -9.693   9.095  69.751  1.00  0.00    -0.181 A  
HETATM   19  C   UNL     1     -10.158   8.331  70.826  1.00  0.00    -0.218 A  
HETATM   20  C   UNL     1      -9.320   8.061  71.907  1.00  0.00    -0.167 A  
HETATM   21  I   UNL     1     -10.093   6.965  73.507  1.00  0.00    -0.417 I  
HETATM   22  C   UNL     1      -8.010   8.550  71.916  1.00  0.00    -0.120 A  
HETATM   23  C   UNL     1      -7.523   9.238  70.797  1.00  0.00    -0.128 A  
HETATM   24  O   UNL     1      -7.209   8.386  73.014  1.00  0.00    -0.187 OA 
HETATM   25  H   UNL     1      -6.319   8.719  73.020  1.00  0.00     0.000 HD 
HETATM   26  I   UNL     1      -5.590  10.044  70.760  1.00  0.00    -0.081 I  
HETATM   27  C   UNL     1      -8.351   9.471  69.691  1.00  0.00    -0.155 A  
ENDBRANCH  17  18
ENDBRANCH  13  17
ENDBRANCH   8   9
ENDBRANCH   4   8
TORSDOF 4
ENDMDL
MODEL       17
REMARK 921   NORMALIZED FREE ENERGY PREDICTED BY IDOCK:   -5.99 KCAL/MOL
REMARK 922        TOTAL FREE ENERGY PREDICTED BY IDOCK:   -8.21 KCAL/MOL
REMARK 923 INTER-LIGAND FREE ENERGY PREDICTED BY IDOCK:   -7.88 KCAL/MOL
REMARK 924 INTRA-LIGAND FREE ENERGY PREDICTED BY IDOCK:   -0.32 KCAL/MOL
REMARK 927      BINDING AFFINITY PREDICTED BY RF-SCORE:    0.00 PKD
ROOT
HETATM    1  N   UNL     1     -10.777  19.107  65.249  1.00  0.00    -0.392 NA 
HETATM    2  H1  UNL     1     -11.361  19.940  65.330  1.00  0.00     0.000 HD 
HETATM    3  H2  UNL     1     -11.147  18.470  64.545  1.00  0.00     0.000 HD 
HETATM    4  CA  UNL     1     -10.580  18.403  66.557  1.00  0.00    -0.311 C  
HETATM    5  C   UNL     1      -9.928  19.388  67.542  1.00  0.00    -0.368 C  
HETATM    6  OXT UNL     1      -9.506  19.102  68.648  1.00  0.00    -0.365 OA 
HETATM    7  O   UNL     1      -9.882  20.644  67.023  1.00  0.00    -0.450 OA 
ENDROOT
BRANCH   4   8
HETATM    8  C   UNL     1      -9.698  17.146  66.435  1.00  0.00    -0.307 C  
BRANCH   8   9
HETATM    9  C   UNL     1     -10.425  15.881  66.826  1.00  0.00    -0.309 A  
HETATM   10  C   UNL     1     -10.950  15.720  68.112  1.00  0.00    -0.330 A  
HETATM   11  C   UNL     1     -11.576  14.519  68.475  1.00  0.00    -0.313 A  
HETATM   12  I   UNL     1     -12.230  14.362  70.473  1.00  0.00    -0.453 I  
HETATM   13  C   UNL     1     -11.688  13.446  67.568  1.00  0.00    -0.366 A  
HETATM   14  C   UNL     1     -11.077  13.584  66.310  1.00  0.00    -0.300 A  
HETATM   15  C   UNL     1     -10.505  14.811  65.929  1.00  0.00    -0.324 A  
HETATM   16  I   UNL     1     -10.696  12.002  64.957  1.00  0.00    -0.385 I  
BRANCH  13  17
HETATM   17  O   UNL     1     -12.274  12.305  68.068  1.00  0.00    -0.383 OA 
BRANCH  17  18
HETATM   18  C   UNL     1     -11.571  11.391  68.817  1.00  0.00    -0.313 A  
HETATM   19  C   UNL     1     -12.345  10.730  69.775  1.00  0.00    -0.305 A  
HETATM   20  C   UNL     1     -11.736   9.897  70.713  1.00  0.00    -0.341 A  
HETATM   21  I   UNL     1     -12.940   8.984  72.154  1.00  0.00    -0.482 I  
HETATM   22  C   UNL     1     -10.350   9.720  70.694  1.00  0.00    -0.261 A  
HETATM   23  C   UNL     1      -9.591  10.314  69.678  1.00  0.00    -0.162 A  
HETATM   24  O   UNL     1      -9.724   8.992  71.672  1.00  0.00    -0.300 OA 
HETATM   25  H   UNL     1      -8.781   8.872  71.659  1.00  0.00     0.000 HD 
HETATM   26  I   UNL     1      -7.505  10.135  69.617  1.00  0.00    -0.144 I  
HETATM   27  C   UNL     1     -10.209  11.115  68.708  1.00  0.00    -0.219 A  
ENDBRANCH  17  18
ENDBRANCH  13  17
ENDBRANCH   8   9
ENDBRANCH   4   8
TORSDOF 4
ENDMDL
MODEL       18
REMARK 921   NORMALIZED FREE ENERGY PREDICTED BY IDOCK:   -5.96 KCAL/MOL
REMARK 922        TOTAL FREE ENERGY PREDICTED BY IDOCK:   -8.17 KCAL/MOL
REMARK 923 INTER-LIGAND FREE ENERGY PREDICTED BY IDOCK:   -7.44 KCAL/MOL
REMARK 924 INTRA-LIGAND FREE ENERGY PREDICTED BY IDOCK:   -0.73 KCAL/MOL
REMARK 927      BINDING AFFINITY PREDICTED BY RF-SCORE:    0.00 PKD
ROOT
HETATM    1  N   UNL     1     -10.629  14.772  64.682  1.00  0.00    -0.590 NA 
HETATM    2  H1  UNL     1     -10.338  14.735  63.705  1.00  0.00     0.000 HD 
HETATM    3  H2  UNL     1      -9.850  15.038  65.283  1.00  0.00     0.000 HD 
HETATM    4  CA  UNL     1     -11.257  13.496  65.154  1.00  0.00    -0.309 C  
HETATM    5  C   UNL     1     -12.482  13.206  64.269  1.00  0.00    -0.288 C  
HETATM    6  OXT UNL     1     -13.298  12.323  64.466  1.00  0.00    -0.769 OA 
HETATM    7  O   UNL     1     -12.544  14.066  63.219  1.00  0.00    -0.801 OA 
ENDROOT
BRANCH   4   8
HETATM    8  C   UNL     1     -11.695  13.552  66.629  1.00  0.00    -0.425 C  
BRANCH   8   9
HETATM    9  C   UNL     1     -11.353  12.293  67.389  1.00  0.00    -0.389 A  
HETATM   10  C   UNL     1     -10.682  11.235  66.768  1.00  0.00    -0.323 A  
HETATM   11  C   UNL     1     -10.418  10.053  67.474  1.00  0.00    -0.254 A  
HETATM   12  I   UNL     1      -9.495   8.495  66.393  1.00  0.00    -0.264 I  
HETATM   13  C   UNL     1     -10.822   9.892  68.814  1.00  0.00    -0.208 A  
HETATM   14  C   UNL     1     -11.576  10.923  69.401  1.00  0.00    -0.316 A  
HETATM   15  C   UNL     1     -11.784  12.130  68.710  1.00  0.00    -0.374 A  
HETATM   16  I   UNL     1     -12.682  10.758  71.197  1.00  0.00    -0.458 I  
BRANCH  13  17
HETATM   17  O   UNL     1     -10.551   8.663  69.372  1.00  0.00    -0.220 OA 
BRANCH  17  18
HETATM   18  C   UNL     1      -9.732   8.521  70.467  1.00  0.00    -0.177 A  
HETATM   19  C   UNL     1      -8.468   9.098  70.306  1.00  0.00    -0.208 A  
HETATM   20  C   UNL     1      -7.478   8.893  71.266  1.00  0.00    -0.103 A  
HETATM   21  I   UNL     1      -5.595   9.733  70.940  1.00  0.00    -0.078 I  
HETATM   22  C   UNL     1      -7.749   8.113  72.394  1.00  0.00    -0.122 A  
HETATM   23  C   UNL     1      -9.043   7.613  72.593  1.00  0.00    -0.157 A  
HETATM   24  O   UNL     1      -6.760   7.813  73.292  1.00  0.00    -0.067 OA 
HETATM   25  H   UNL     1      -6.944   7.282  74.059  1.00  0.00     0.000 HD 
HETATM   26  I   UNL     1      -9.508   6.394  74.231  1.00  0.00    -0.317 I  
HETATM   27  C   UNL     1     -10.050   7.856  71.650  1.00  0.00    -0.228 A  
ENDBRANCH  17  18
ENDBRANCH  13  17
ENDBRANCH   8   9
ENDBRANCH   4   8
TORSDOF 4
ENDMDL
MODEL       19
REMARK 921   NORMALIZED FREE ENERGY PREDICTED BY IDOCK:   -5.86 KCAL/MOL
REMARK 922        TOTAL FREE ENERGY PREDICTED BY IDOCK:   -8.05 KCAL/MOL
REMARK 923 INTER-LIGAND FREE ENERGY PREDICTED BY IDOCK:   -7.72 KCAL/MOL
REMARK 924 INTRA-LIGAND FREE ENERGY PREDICTED BY IDOCK:   -0.33 KCAL/MOL
REMARK 927      BINDING AFFINITY PREDICTED BY RF-SCORE:    0.00 PKD
ROOT
HETATM    1  N   UNL     1      -8.367   5.655  72.223  1.00  0.00    -0.118 NA 
HETATM    2  H1  UNL     1      -8.081   4.731  71.900  1.00  0.00     0.000 HD 
HETATM    3  H2  UNL     1      -7.592   6.315  72.173  1.00  0.00     0.000 HD 
HETATM    4  CA  UNL     1      -8.965   5.635  73.597  1.00  0.00    -0.124 C  
HETATM    5  C   UNL     1     -10.187   4.701  73.578  1.00  0.00    -0.174 C  
HETATM    6  OXT UNL     1     -10.982   4.563  74.490  1.00  0.00    -0.288 OA 
HETATM    7  O   UNL     1     -10.274   4.030  72.398  1.00  0.00    -0.170 OA 
ENDROOT
BRANCH   4   8
HETATM    8  C   UNL     1      -9.397   7.029  74.086  1.00  0.00    -0.276 C  
BRANCH   8   9
HETATM    9  C   UNL     1     -10.064   7.848  73.006  1.00  0.00    -0.384 A  
HETATM   10  C   UNL     1     -11.456   7.886  72.887  1.00  0.00    -0.357 A  
HETATM   11  C   UNL     1     -12.058   8.609  71.848  1.00  0.00    -0.356 A  
HETATM   12  I   UNL     1     -14.160   8.499  71.716  1.00  0.00    -0.405 I  
HETATM   13  C   UNL     1     -11.288   9.306  70.896  1.00  0.00    -0.308 A  
HETATM   14  C   UNL     1      -9.889   9.186  70.970  1.00  0.00    -0.296 A  
HETATM   15  C   UNL     1      -9.291   8.512  72.049  1.00  0.00    -0.353 A  
HETATM   16  I   UNL     1      -8.534   9.730  69.438  1.00  0.00    -0.209 I  
BRANCH  13  17
HETATM   17  O   UNL     1     -12.000   9.927  69.895  1.00  0.00    -0.099 OA 
BRANCH  17  18
HETATM   18  C   UNL     1     -11.956  11.288  69.703  1.00  0.00    -0.353 A  
HETATM   19  C   UNL     1     -12.355  12.030  70.818  1.00  0.00    -0.403 A  
HETATM   20  C   UNL     1     -12.516  13.412  70.718  1.00  0.00    -0.341 A  
HETATM   21  I   UNL     1     -13.171  14.456  72.403  1.00  0.00    -0.654 I  
HETATM   22  C   UNL     1     -12.274  14.057  69.502  1.00  0.00    -0.308 A  
HETATM   23  C   UNL     1     -11.789  13.320  68.414  1.00  0.00    -0.360 A  
HETATM   24  O   UNL     1     -12.530  15.395  69.356  1.00  0.00    -0.588 OA 
HETATM   25  H   UNL     1     -12.366  15.834  68.529  1.00  0.00     0.000 HD 
HETATM   26  I   UNL     1     -11.454  14.210  66.547  1.00  0.00    -0.422 I  
HETATM   27  C   UNL     1     -11.584  11.939  68.527  1.00  0.00    -0.375 A  
ENDBRANCH  17  18
ENDBRANCH  13  17
ENDBRANCH   8   9
ENDBRANCH   4   8
TORSDOF 4
ENDMDL
MODEL       20
REMARK 921   NORMALIZED FREE ENERGY PREDICTED BY IDOCK:   -5.84 KCAL/MOL
REMARK 922        TOTAL FREE ENERGY PREDICTED BY IDOCK:   -8.02 KCAL/MOL
REMARK 923 INTER-LIGAND FREE ENERGY PREDICTED BY IDOCK:   -7.35 KCAL/MOL
REMARK 924 INTRA-LIGAND FREE ENERGY PREDICTED BY IDOCK:   -0.67 KCAL/MOL
REMARK 927      BINDING AFFINITY PREDICTED BY RF-SCORE:    0.00 PKD
ROOT
HETATM    1  N   UNL     1     -10.675   8.439  68.924  1.00  0.00    -0.406 NA 
HETATM    2  H1  UNL     1     -11.429   8.081  69.510  1.00  0.00     0.000 HD 
HETATM    3  H2  UNL     1     -10.624   9.455  68.975  1.00  0.00     0.000 HD 
HETATM    4  CA  UNL     1     -10.772   7.978  67.501  1.00  0.00    -0.168 C  
HETATM    5  C   UNL     1     -10.741   6.440  67.489  1.00  0.00    -0.319 C  
HETATM    6  OXT UNL     1     -10.663   5.746  66.491  1.00  0.00    -0.276 OA 
HETATM    7  O   UNL     1     -10.818   5.937  68.749  1.00  0.00    -0.286 OA 
ENDROOT
BRANCH   4   8
HETATM    8  C   UNL     1      -9.633   8.517  66.616  1.00  0.00    -0.292 C  
BRANCH   8   9
HETATM    9  C   UNL     1      -9.699  10.014  66.423  1.00  0.00    -0.266 A  
HETATM   10  C   UNL     1     -10.561  10.582  65.481  1.00  0.00    -0.138 A  
HETATM   11  C   UNL     1     -10.573  11.969  65.278  1.00  0.00    -0.287 A  
HETATM   12  I   UNL     1     -11.840  12.689  63.754  1.00  0.00    -0.659 I  
HETATM   13  C   UNL     1      -9.721  12.825  66.005  1.00  0.00    -0.224 A  
HETATM   14  C   UNL     1      -8.795  12.236  66.883  1.00  0.00    -0.207 A  
HETATM   15  C   UNL     1      -8.829  10.852  67.128  1.00  0.00    -0.135 A  
HETATM   16  I   UNL     1      -7.124  13.219  67.733  1.00  0.00    -0.151 I  
BRANCH  13  17
HETATM   17  O   UNL     1      -9.792  14.158  65.669  1.00  0.00    -0.304 OA 
BRANCH  17  18
HETATM   18  C   UNL     1     -10.182  15.119  66.571  1.00  0.00    -0.276 A  
HETATM   19  C   UNL     1      -9.746  16.408  66.249  1.00  0.00    -0.332 A  
HETATM   20  C   UNL     1      -9.927  17.453  67.154  1.00  0.00    -0.291 A  
HETATM   21  I   UNL     1      -9.203  19.343  66.638  1.00  0.00    -0.477 I  
HETATM   22  C   UNL     1     -10.548  17.215  68.383  1.00  0.00    -0.371 A  
HETATM   23  C   UNL     1     -11.061  15.942  68.662  1.00  0.00    -0.337 A  
HETATM   24  O   UNL     1     -10.638  18.204  69.326  1.00  0.00    -0.380 OA 
HETATM   25  H   UNL     1     -11.060  18.042  70.162  1.00  0.00     0.000 HD 
HETATM   26  I   UNL     1     -11.957  15.498  70.503  1.00  0.00    -0.477 I  
HETATM   27  C   UNL     1     -10.919  14.901  67.735  1.00  0.00    -0.294 A  
ENDBRANCH  17  18
ENDBRANCH  13  17
ENDBRANCH   8   9
ENDBRANCH   4   8
TORSDOF 4
ENDMDL
MODEL       21
REMARK 921   NORMALIZED FREE ENERGY PREDICTED BY IDOCK:   -5.80 KCAL/MOL
REMARK 922        TOTAL FREE ENERGY PREDICTED BY IDOCK:   -7.98 KCAL/MOL
REMARK 923 INTER-LIGAND FREE ENERGY PREDICTED BY IDOCK:   -7.29 KCAL/MOL
REMARK 924 INTRA-LIGAND FREE ENERGY PREDICTED BY IDOCK:   -0.69 KCAL/MOL
REMARK 927      BINDING AFFINITY PREDICTED BY RF-SCORE:    0.00 PKD
ROOT
HETATM    1  N   UNL     1      -8.493   8.329  62.672  1.00  0.00    -0.388 NA 
HETATM    2  H1  UNL     1      -8.251   8.704  61.755  1.00  0.00     0.000 HD 
HETATM    3  H2  UNL     1      -9.468   8.032  62.698  1.00  0.00     0.000 HD 
HETATM    4  CA  UNL     1      -8.193   9.280  63.791  1.00  0.00    -0.166 C  
HETATM    5  C   UNL     1      -6.690   9.607  63.755  1.00  0.00    -0.112 C  
HETATM    6  OXT UNL     1      -6.088  10.240  64.605  1.00  0.00    -0.124 OA 
HETATM    7  O   UNL     1      -6.103   9.101  62.639  1.00  0.00    -0.094 OA 
ENDROOT
BRANCH   4   8
HETATM    8  C   UNL     1      -8.559   8.714  65.175  1.00  0.00    -0.200 C  
BRANCH   8   9
HETATM    9  C   UNL     1      -9.438   9.645  65.975  1.00  0.00    -0.284 A  
HETATM   10  C   UNL     1      -9.677   9.422  67.334  1.00  0.00    -0.205 A  
HETATM   11  C   UNL     1     -10.536  10.266  68.050  1.00  0.00    -0.231 A  
HETATM   12  I   UNL     1     -10.896   9.758  70.065  1.00  0.00    -0.383 I  
HETATM   13  C   UNL     1     -11.186  11.351  67.428  1.00  0.00    -0.305 A  
HETATM   14  C   UNL     1     -11.011  11.513  66.043  1.00  0.00    -0.259 A  
HETATM   15  C   UNL     1     -10.101  10.702  65.343  1.00  0.00    -0.356 A  
HETATM   16  I   UNL     1     -12.202  12.743  64.798  1.00  0.00    -0.506 I  
BRANCH  13  17
HETATM   17  O   UNL     1     -12.046  12.067  68.230  1.00  0.00    -0.447 OA 
BRANCH  17  18
HETATM   18  C   UNL     1     -11.671  13.238  68.843  1.00  0.00    -0.327 A  
HETATM   19  C   UNL     1     -12.256  13.434  70.097  1.00  0.00    -0.385 A  
HETATM   20  C   UNL     1     -12.095  14.648  70.762  1.00  0.00    -0.320 A  
HETATM   21  I   UNL     1     -13.043  14.899  72.606  1.00  0.00    -0.684 I  
HETATM   22  C   UNL     1     -11.345  15.672  70.177  1.00  0.00    -0.344 A  
HETATM   23  C   UNL     1     -10.688  15.439  68.962  1.00  0.00    -0.242 A  
HETATM   24  O   UNL     1     -11.266  16.907  70.765  1.00  0.00    -0.392 OA 
HETATM   25  H   UNL     1     -10.756  17.603  70.367  1.00  0.00     0.000 HD 
HETATM   26  I   UNL     1      -9.591  16.941  68.001  1.00  0.00    -0.274 I  
HETATM   27  C   UNL     1     -10.813  14.202  68.315  1.00  0.00    -0.259 A  
ENDBRANCH  17  18
ENDBRANCH  13  17
ENDBRANCH   8   9
ENDBRANCH   4   8
TORSDOF 4
ENDMDL
MODEL       22
REMARK 921   NORMALIZED FREE ENERGY PREDICTED BY IDOCK:   -5.80 KCAL/MOL
REMARK 922        TOTAL FREE ENERGY PREDICTED BY IDOCK:   -7.98 KCAL/MOL
REMARK 923 INTER-LIGAND FREE ENERGY PREDICTED BY IDOCK:   -7.52 KCAL/MOL
REMARK 924 INTRA-LIGAND FREE ENERGY PREDICTED BY IDOCK:   -0.46 KCAL/MOL
REMARK 927      BINDING AFFINITY PREDICTED BY RF-SCORE:    0.00 PKD
ROOT
HETATM    1  N   UNL     1      -8.123   5.653  72.267  1.00  0.00    -0.107 NA 
HETATM    2  H1  UNL     1      -7.882   4.715  71.948  1.00  0.00     0.000 HD 
HETATM    3  H2  UNL     1      -7.306   6.263  72.254  1.00  0.00     0.000 HD 
HETATM    4  CA  UNL     1      -8.777   5.663  73.615  1.00  0.00    -0.122 C  
HETATM    5  C   UNL     1     -10.054   4.809  73.538  1.00  0.00    -0.162 C  
HETATM    6  OXT UNL     1     -10.893   4.717  74.417  1.00  0.00    -0.344 OA 
HETATM    7  O   UNL     1     -10.134   4.151  72.351  1.00  0.00    -0.166 OA 
ENDROOT
BRANCH   4   8
HETATM    8  C   UNL     1      -9.140   7.080  74.097  1.00  0.00    -0.250 C  
BRANCH   8   9
HETATM    9  C   UNL     1      -9.845   7.895  73.039  1.00  0.00    -0.355 A  
HETATM   10  C   UNL     1     -11.237   7.868  72.917  1.00  0.00    -0.429 A  
HETATM   11  C   UNL     1     -11.873   8.590  71.897  1.00  0.00    -0.341 A  
HETATM   12  I   UNL     1     -13.966   8.380  71.755  1.00  0.00    -0.425 I  
HETATM   13  C   UNL     1     -11.136   9.353  70.968  1.00  0.00    -0.344 A  
HETATM   14  C   UNL     1      -9.733   9.300  71.043  1.00  0.00    -0.271 A  
HETATM   15  C   UNL     1      -9.104   8.626  72.104  1.00  0.00    -0.301 A  
HETATM   16  I   UNL     1      -8.404   9.956  69.532  1.00  0.00    -0.176 I  
BRANCH  13  17
HETATM   17  O   UNL     1     -11.876   9.967  69.984  1.00  0.00    -0.183 OA 
BRANCH  17  18
HETATM   18  C   UNL     1     -12.094  11.324  69.972  1.00  0.00    -0.348 A  
HETATM   19  C   UNL     1     -11.800  11.934  68.749  1.00  0.00    -0.371 A  
HETATM   20  C   UNL     1     -11.817  13.324  68.639  1.00  0.00    -0.345 A  
HETATM   21  I   UNL     1     -11.312  14.176  66.801  1.00  0.00    -0.410 I  
HETATM   22  C   UNL     1     -12.133  14.110  69.751  1.00  0.00    -0.354 A  
HETATM   23  C   UNL     1     -12.514  13.490  70.949  1.00  0.00    -0.369 A  
HETATM   24  O   UNL     1     -12.051  15.475  69.690  1.00  0.00    -0.378 OA 
HETATM   25  H   UNL     1     -12.265  16.010  70.446  1.00  0.00     0.000 HD 
HETATM   26  I   UNL     1     -12.949  14.602  72.670  1.00  0.00    -0.607 I  
HETATM   27  C   UNL     1     -12.539  12.093  71.047  1.00  0.00    -0.359 A  
ENDBRANCH  17  18
ENDBRANCH  13  17
ENDBRANCH   8   9
ENDBRANCH   4   8
TORSDOF 4
ENDMDL
MODEL       23
REMARK 921   NORMALIZED FREE ENERGY PREDICTED BY IDOCK:   -5.80 KCAL/MOL
REMARK 922        TOTAL FREE ENERGY PREDICTED BY IDOCK:   -7.98 KCAL/MOL
REMARK 923 INTER-LIGAND FREE ENERGY PREDICTED BY IDOCK:   -7.49 KCAL/MOL
REMARK 924 INTRA-LIGAND FREE ENERGY PREDICTED BY IDOCK:   -0.49 KCAL/MOL
REMARK 927      BINDING AFFINITY PREDICTED BY RF-SCORE:    0.00 PKD
ROOT
HETATM    1  N   UNL     1     -12.649  14.614  63.660  1.00  0.00    -0.980 NA 
HETATM    2  H1  UNL     1     -13.282  15.405  63.781  1.00  0.00     0.000 HD 
HETATM    3  H2  UNL     1     -13.169  13.757  63.474  1.00  0.00     0.000 HD 
HETATM    4  CA  UNL     1     -11.712  14.433  64.815  1.00  0.00    -0.416 C  
HETATM    5  C   UNL     1     -10.890  15.723  64.977  1.00  0.00    -0.443 C  
HETATM    6  OXT UNL     1      -9.944  15.864  65.730  1.00  0.00    -0.319 OA 
HETATM    7  O   UNL     1     -11.358  16.708  64.165  1.00  0.00    -1.141 OA 
ENDROOT
BRANCH   4   8
HETATM    8  C   UNL     1     -10.757  13.239  64.633  1.00  0.00    -0.415 C  
BRANCH   8   9
HETATM    9  C   UNL     1     -10.435  12.542  65.933  1.00  0.00    -0.289 A  
HETATM   10  C   UNL     1     -11.305  12.616  67.025  1.00  0.00    -0.377 A  
HETATM   11  C   UNL     1     -10.967  12.007  68.241  1.00  0.00    -0.234 A  
HETATM   12  I   UNL     1     -12.313  12.282  69.841  1.00  0.00     0.201 I  
HETATM   13  C   UNL     1      -9.751  11.314  68.403  1.00  0.00    -0.194 A  
HETATM   14  C   UNL     1      -8.843  11.323  67.329  1.00  0.00    -0.150 A  
HETATM   15  C   UNL     1      -9.213  11.882  66.093  1.00  0.00    -0.204 A  
HETATM   16  I   UNL     1      -6.803  10.775  67.450  1.00  0.00    -0.092 I  
BRANCH  13  17
HETATM   17  O   UNL     1      -9.516  10.811  69.662  1.00  0.00    -0.025 OA 
BRANCH  17  18
HETATM   18  C   UNL     1      -9.626   9.471  69.947  1.00  0.00    -0.223 A  
HETATM   19  C   UNL     1      -9.817   8.667  68.819  1.00  0.00    -0.180 A  
HETATM   20  C   UNL     1     -10.106   7.311  68.968  1.00  0.00    -0.186 A  
HETATM   21  I   UNL     1     -10.438   6.176  67.247  1.00  0.00    -0.452 I  
HETATM   22  C   UNL     1     -10.202   6.753  70.246  1.00  0.00    -0.195 A  
HETATM   23  C   UNL     1      -9.922   7.543  71.368  1.00  0.00    -0.185 A  
HETATM   24  O   UNL     1     -10.591   5.450  70.414  1.00  0.00    -0.280 OA 
HETATM   25  H   UNL     1     -10.656   5.070  71.283  1.00  0.00     0.000 HD 
HETATM   26  I   UNL     1     -10.096   6.789  73.314  1.00  0.00    -0.359 I  
HETATM   27  C   UNL     1      -9.587   8.895  71.217  1.00  0.00    -0.348 A  
ENDBRANCH  17  18
ENDBRANCH  13  17
ENDBRANCH   8   9
ENDBRANCH   4   8
TORSDOF 4
ENDMDL
MODEL       24
REMARK 921   NORMALIZED FREE ENERGY PREDICTED BY IDOCK:   -5.80 KCAL/MOL
REMARK 922        TOTAL FREE ENERGY PREDICTED BY IDOCK:   -7.97 KCAL/MOL
REMARK 923 INTER-LIGAND FREE ENERGY PREDICTED BY IDOCK:   -7.91 KCAL/MOL
REMARK 924 INTRA-LIGAND FREE ENERGY PREDICTED BY IDOCK:   -0.06 KCAL/MOL
REMARK 927      BINDING AFFINITY PREDICTED BY RF-SCORE:    0.00 PKD
ROOT
HETATM    1  N   UNL     1     -12.520  14.543  63.890  1.00  0.00    -1.031 NA 
HETATM    2  H1  UNL     1     -13.260  15.238  63.984  1.00  0.00     0.000 HD 
HETATM    3  H2  UNL     1     -12.907  13.600  63.869  1.00  0.00     0.000 HD 
HETATM    4  CA  UNL     1     -11.466  14.665  64.947  1.00  0.00    -0.401 C  
HETATM    5  C   UNL     1     -10.855  16.074  64.859  1.00  0.00    -0.372 C  
HETATM    6  OXT UNL     1      -9.880  16.458  65.480  1.00  0.00    -0.522 OA 
HETATM    7  O   UNL     1     -11.548  16.857  63.991  1.00  0.00    -1.123 OA 
ENDROOT
BRANCH   4   8
HETATM    8  C   UNL     1     -10.349  13.615  64.806  1.00  0.00    -0.414 C  
BRANCH   8   9
HETATM    9  C   UNL     1     -10.525  12.442  65.741  1.00  0.00    -0.288 A  
HETATM   10  C   UNL     1     -11.153  12.596  66.980  1.00  0.00    -0.322 A  
HETATM   11  C   UNL     1     -11.263  11.509  67.858  1.00  0.00    -0.279 A  
HETATM   12  I   UNL     1     -12.134  11.898  69.739  1.00  0.00    -0.145 I  
HETATM   13  C   UNL     1     -10.744  10.241  67.526  1.00  0.00    -0.294 A  
HETATM   14  C   UNL     1     -10.035  10.119  66.318  1.00  0.00    -0.242 A  
HETATM   15  C   UNL     1      -9.982  11.195  65.415  1.00  0.00    -0.309 A  
HETATM   16  I   UNL     1      -8.783   8.495  65.796  1.00  0.00    -0.186 I  
BRANCH  13  17
HETATM   17  O   UNL     1     -10.868   9.275  68.498  1.00  0.00    -0.175 OA 
BRANCH  17  18
HETATM   18  C   UNL     1     -10.013   9.206  69.572  1.00  0.00    -0.189 A  
HETATM   19  C   UNL     1      -8.788   9.847  69.363  1.00  0.00    -0.195 A  
HETATM   20  C   UNL     1      -7.764   9.720  70.300  1.00  0.00    -0.172 A  
HETATM   21  I   UNL     1      -5.939  10.654  69.902  1.00  0.00    -0.121 I  
HETATM   22  C   UNL     1      -7.961   8.954  71.453  1.00  0.00    -0.102 A  
HETATM   23  C   UNL     1      -9.219   8.389  71.699  1.00  0.00    -0.206 A  
HETATM   24  O   UNL     1      -6.933   8.731  72.329  1.00  0.00    -0.246 OA 
HETATM   25  H   UNL     1      -7.067   8.209  73.113  1.00  0.00     0.000 HD 
HETATM   26  I   UNL     1      -9.572   7.186  73.377  1.00  0.00    -0.342 I  
HETATM   27  C   UNL     1     -10.262   8.553  70.779  1.00  0.00    -0.237 A  
ENDBRANCH  17  18
ENDBRANCH  13  17
ENDBRANCH   8   9
ENDBRANCH   4   8
TORSDOF 4
ENDMDL
MODEL       25
REMARK 921   NORMALIZED FREE ENERGY PREDICTED BY IDOCK:   -5.76 KCAL/MOL
REMARK 922        TOTAL FREE ENERGY PREDICTED BY IDOCK:   -7.93 KCAL/MOL
REMARK 923 INTER-LIGAND FREE ENERGY PREDICTED BY IDOCK:   -7.22 KCAL/MOL
REMARK 924 INTRA-LIGAND FREE ENERGY PREDICTED BY IDOCK:   -0.71 KCAL/MOL
REMARK 927      BINDING AFFINITY PREDICTED BY RF-SCORE:    0.00 PKD
ROOT
HETATM    1  N   UNL     1     -10.596  11.102  62.740  1.00  0.00    -0.758 NA 
HETATM    2  H1  UNL     1     -11.400  10.819  62.179  1.00  0.00     0.000 HD 
HETATM    3  H2  UNL     1      -9.796  10.496  62.560  1.00  0.00     0.000 HD 
HETATM    4  CA  UNL     1     -10.900  11.167  64.206  1.00  0.00    -0.284 C  
HETATM    5  C   UNL     1     -12.046  12.171  64.416  1.00  0.00    -0.357 C  
HETATM    6  OXT UNL     1     -12.446  12.565  65.497  1.00  0.00    -0.646 OA 
HETATM    7  O   UNL     1     -12.573  12.571  63.229  1.00  0.00    -0.667 OA 
ENDROOT
BRANCH   4   8
HETATM    8  C   UNL     1      -9.687  11.593  65.052  1.00  0.00    -0.237 C  
BRANCH   8   9
HETATM    9  C   UNL     1      -9.491  10.726  66.273  1.00  0.00    -0.213 A  
HETATM   10  C   UNL     1      -8.575  11.078  67.269  1.00  0.00    -0.130 A  
HETATM   11  C   UNL     1      -8.367  10.237  68.370  1.00  0.00    -0.119 A  
HETATM   12  I   UNL     1      -6.882  10.830  69.745  1.00  0.00    -0.021 I  
HETATM   13  C   UNL     1      -9.063   9.018  68.504  1.00  0.00    -0.133 A  
HETATM   14  C   UNL     1      -9.913   8.629  67.454  1.00  0.00    -0.210 A  
HETATM   15  C   UNL     1     -10.164   9.505  66.383  1.00  0.00    -0.302 A  
HETATM   16  I   UNL     1     -10.705   6.686  67.180  1.00  0.00    -0.365 I  
BRANCH  13  17
HETATM   17  O   UNL     1      -8.725   8.260  69.602  1.00  0.00    -0.135 OA 
BRANCH  17  18
HETATM   18  C   UNL     1      -9.666   7.810  70.498  1.00  0.00    -0.175 A  
HETATM   19  C   UNL     1      -9.421   6.520  70.977  1.00  0.00    -0.171 A  
HETATM   20  C   UNL     1     -10.373   5.874  71.764  1.00  0.00    -0.216 A  
HETATM   21  I   UNL     1      -9.973   3.925  72.400  1.00  0.00    -0.196 I  
HETATM   22  C   UNL     1     -11.574   6.517  72.078  1.00  0.00    -0.311 A  
HETATM   23  C   UNL     1     -11.774   7.842  71.670  1.00  0.00    -0.280 A  
HETATM   24  O   UNL     1     -12.564   5.859  72.758  1.00  0.00    -0.473 OA 
HETATM   25  H   UNL     1     -13.380   6.296  72.972  1.00  0.00     0.000 HD 
HETATM   26  I   UNL     1     -13.568   8.851  72.059  1.00  0.00    -0.551 I  
HETATM   27  C   UNL     1     -10.799   8.507  70.917  1.00  0.00    -0.275 A  
ENDBRANCH  17  18
ENDBRANCH  13  17
ENDBRANCH   8   9
ENDBRANCH   4   8
TORSDOF 4
ENDMDL
MODEL       26
REMARK 921   NORMALIZED FREE ENERGY PREDICTED BY IDOCK:   -5.74 KCAL/MOL
REMARK 922        TOTAL FREE ENERGY PREDICTED BY IDOCK:   -7.91 KCAL/MOL
REMARK 923 INTER-LIGAND FREE ENERGY PREDICTED BY IDOCK:   -7.51 KCAL/MOL
REMARK 924 INTRA-LIGAND FREE ENERGY PREDICTED BY IDOCK:   -0.40 KCAL/MOL
REMARK 927      BINDING AFFINITY PREDICTED BY RF-SCORE:    0.00 PKD
ROOT
HETATM    1  N   UNL     1      -7.236   6.849  66.903  1.00  0.00    -0.075 NA 
HETATM    2  H1  UNL     1      -6.997   6.235  67.682  1.00  0.00     0.000 HD 
HETATM    3  H2  UNL     1      -6.613   7.655  66.870  1.00  0.00     0.000 HD 
HETATM    4  CA  UNL     1      -8.671   7.282  66.919  1.00  0.00    -0.126 C  
HETATM    5  C   UNL     1      -9.555   6.025  66.867  1.00  0.00    -0.140 C  
HETATM    6  OXT UNL     1     -10.765   6.021  66.727  1.00  0.00    -0.291 OA 
HETATM    7  O   UNL     1      -8.811   4.895  67.002  1.00  0.00    -0.108 OA 
ENDROOT
BRANCH   4   8
HETATM    8  C   UNL     1      -9.031   8.208  65.743  1.00  0.00    -0.165 C  
BRANCH   8   9
HETATM    9  C   UNL     1      -9.800   9.434  66.177  1.00  0.00    -0.356 A  
HETATM   10  C   UNL     1     -10.249   9.574  67.494  1.00  0.00    -0.283 A  
HETATM   11  C   UNL     1     -11.005  10.694  67.868  1.00  0.00    -0.295 A  
HETATM   12  I   UNL     1     -11.713  10.734  69.854  1.00  0.00    -0.464 I  
HETATM   13  C   UNL     1     -11.339  11.699  66.938  1.00  0.00    -0.295 A  
HETATM   14  C   UNL     1     -10.961  11.504  65.598  1.00  0.00    -0.236 A  
HETATM   15  C   UNL     1     -10.151  10.412  65.241  1.00  0.00    -0.370 A  
HETATM   16  I   UNL     1     -11.712  12.594  63.946  1.00  0.00    -0.662 I  
BRANCH  13  17
HETATM   17  O   UNL     1     -12.133  12.714  67.420  1.00  0.00    -0.432 OA 
BRANCH  17  18
HETATM   18  C   UNL     1     -11.607  13.904  67.866  1.00  0.00    -0.342 A  
HETATM   19  C   UNL     1     -11.903  14.188  69.203  1.00  0.00    -0.380 A  
HETATM   20  C   UNL     1     -11.576  15.430  69.743  1.00  0.00    -0.323 A  
HETATM   21  I   UNL     1     -12.096  15.814  71.729  1.00  0.00    -0.632 I  
HETATM   22  C   UNL     1     -10.947  16.394  68.949  1.00  0.00    -0.332 A  
HETATM   23  C   UNL     1     -10.573  16.072  67.638  1.00  0.00    -0.309 A  
HETATM   24  O   UNL     1     -10.715  17.655  69.431  1.00  0.00    -0.369 OA 
HETATM   25  H   UNL     1     -10.288  18.310  68.891  1.00  0.00     0.000 HD 
HETATM   26  I   UNL     1      -9.676  17.481  66.375  1.00  0.00    -0.217 I  
HETATM   27  C   UNL     1     -10.862  14.807  67.109  1.00  0.00    -0.311 A  
ENDBRANCH  17  18
ENDBRANCH  13  17
ENDBRANCH   8   9
ENDBRANCH   4   8
TORSDOF 4
ENDMDL
MODEL       27
REMARK 921   NORMALIZED FREE ENERGY PREDICTED BY IDOCK:   -5.74 KCAL/MOL
REMARK 922        TOTAL FREE ENERGY PREDICTED BY IDOCK:   -7.91 KCAL/MOL
REMARK 923 INTER-LIGAND FREE ENERGY PREDICTED BY IDOCK:   -7.58 KCAL/MOL
REMARK 924 INTRA-LIGAND FREE ENERGY PREDICTED BY IDOCK:   -0.33 KCAL/MOL
REMARK 927      BINDING AFFINITY PREDICTED BY RF-SCORE:    0.00 PKD
ROOT
HETATM    1  N   UNL     1     -12.600  14.327  63.551  1.00  0.00    -1.015 NA 
HETATM    2  H1  UNL     1     -13.327  15.027  63.696  1.00  0.00     0.000 HD 
HETATM    3  H2  UNL     1     -13.007  13.403  63.409  1.00  0.00     0.000 HD 
HETATM    4  CA  UNL     1     -11.585  14.301  64.654  1.00  0.00    -0.408 C  
HETATM    5  C   UNL     1     -10.939  15.694  64.748  1.00  0.00    -0.400 C  
HETATM    6  OXT UNL     1      -9.982  15.979  65.444  1.00  0.00    -0.445 OA 
HETATM    7  O   UNL     1     -11.580  16.587  63.949  1.00  0.00    -1.175 OA 
ENDROOT
BRANCH   4   8
HETATM    8  C   UNL     1     -10.488  13.243  64.436  1.00  0.00    -0.424 C  
BRANCH   8   9
HETATM    9  C   UNL     1      -9.995  12.636  65.727  1.00  0.00    -0.266 A  
HETATM   10  C   UNL     1      -8.740  12.024  65.804  1.00  0.00     0.280 A  
HETATM   11  C   UNL     1      -8.319  11.419  66.996  1.00  0.00    -0.161 A  
HETATM   12  I   UNL     1      -6.452  10.439  66.949  1.00  0.00    -0.095 I  
HETATM   13  C   UNL     1      -9.141  11.402  68.141  1.00  0.00    -0.174 A  
HETATM   14  C   UNL     1     -10.435  11.938  68.027  1.00  0.00    -0.208 A  
HETATM   15  C   UNL     1     -10.829  12.597  66.850  1.00  0.00    -0.282 A  
HETATM   16  I   UNL     1     -12.008  11.636  69.411  1.00  0.00    -0.256 I  
BRANCH  13  17
HETATM   17  O   UNL     1      -8.632  10.726  69.227  1.00  0.00    -0.129 OA 
BRANCH  17  18
HETATM   18  C   UNL     1      -9.091   9.484  69.596  1.00  0.00    -0.196 A  
HETATM   19  C   UNL     1      -9.419   8.658  68.517  1.00  0.00    -0.146 A  
HETATM   20  C   UNL     1     -10.048   7.434  68.739  1.00  0.00    -0.179 A  
HETATM   21  I   UNL     1     -10.564   6.273  67.082  1.00  0.00    -0.442 I  
HETATM   22  C   UNL     1     -10.349   7.029  70.042  1.00  0.00    -0.202 A  
HETATM   23  C   UNL     1      -9.937   7.819  71.123  1.00  0.00    -0.176 A  
HETATM   24  O   UNL     1     -11.061   5.882  70.272  1.00  0.00    -0.327 OA 
HETATM   25  H   UNL     1     -11.266   5.606  71.158  1.00  0.00     0.000 HD 
HETATM   26  I   UNL     1     -10.398   7.302  73.100  1.00  0.00    -0.430 I  
HETATM   27  C   UNL     1      -9.265   9.029  70.902  1.00  0.00    -0.320 A  
ENDBRANCH  17  18
ENDBRANCH  13  17
ENDBRANCH   8   9
ENDBRANCH   4   8
TORSDOF 4
ENDMDL
MODEL       28
REMARK 921   NORMALIZED FREE ENERGY PREDICTED BY IDOCK:   -5.73 KCAL/MOL
REMARK 922        TOTAL FREE ENERGY PREDICTED BY IDOCK:   -7.89 KCAL/MOL
REMARK 923 INTER-LIGAND FREE ENERGY PREDICTED BY IDOCK:   -7.58 KCAL/MOL
REMARK 924 INTRA-LIGAND FREE ENERGY PREDICTED BY IDOCK:   -0.31 KCAL/MOL
REMARK 927      BINDING AFFINITY PREDICTED BY RF-SCORE:    0.00 PKD
ROOT
HETATM    1  N   UNL     1      -9.538   9.782  70.767  1.00  0.00    -0.308 NA 
HETATM    2  H1  UNL     1      -9.096   9.846  71.683  1.00  0.00     0.000 HD 
HETATM    3  H2  UNL     1      -9.017  10.317  70.073  1.00  0.00     0.000 HD 
HETATM    4  CA  UNL     1     -10.980  10.190  70.783  1.00  0.00    -0.242 C  
HETATM    5  C   UNL     1     -11.728   9.280  71.773  1.00  0.00    -0.386 C  
HETATM    6  OXT UNL     1     -12.936   9.249  71.926  1.00  0.00    -0.350 OA 
HETATM    7  O   UNL     1     -10.862   8.501  72.474  1.00  0.00    -0.337 OA 
ENDROOT
BRANCH   4   8
HETATM    8  C   UNL     1     -11.648  10.094  69.399  1.00  0.00    -0.151 C  
BRANCH   8   9
HETATM    9  C   UNL     1     -11.645  11.408  68.655  1.00  0.00    -0.384 A  
HETATM   10  C   UNL     1     -11.393  11.459  67.281  1.00  0.00    -0.347 A  
HETATM   11  C   UNL     1     -11.344  12.691  66.615  1.00  0.00    -0.326 A  
HETATM   12  I   UNL     1     -10.849  12.638  64.566  1.00  0.00    -0.473 I  
HETATM   13  C   UNL     1     -11.537  13.906  67.303  1.00  0.00    -0.365 A  
HETATM   14  C   UNL     1     -11.698  13.851  68.699  1.00  0.00    -0.361 A  
HETATM   15  C   UNL     1     -11.809  12.610  69.351  1.00  0.00    -0.356 A  
HETATM   16  I   UNL     1     -11.547  15.503  70.012  1.00  0.00    -0.457 I  
BRANCH  13  17
HETATM   17  O   UNL     1     -11.406  15.046  66.543  1.00  0.00    -0.341 OA 
BRANCH  17  18
HETATM   18  C   UNL     1     -10.374  15.935  66.731  1.00  0.00    -0.298 A  
HETATM   19  C   UNL     1      -9.162  15.330  67.078  1.00  0.00    -0.235 A  
HETATM   20  C   UNL     1      -8.073  16.114  67.456  1.00  0.00    -0.145 A  
HETATM   21  I   UNL     1      -6.309  15.148  68.019  1.00  0.00    -0.181 I  
HETATM   22  C   UNL     1      -8.190  17.506  67.485  1.00  0.00    -0.207 A  
HETATM   23  C   UNL     1      -9.377  18.109  67.051  1.00  0.00    -0.270 A  
HETATM   24  O   UNL     1      -7.166  18.285  67.956  1.00  0.00    -0.226 OA 
HETATM   25  H   UNL     1      -7.246  19.232  67.976  1.00  0.00     0.000 HD 
HETATM   26  I   UNL     1      -9.643  20.185  67.115  1.00  0.00    -0.576 I  
HETATM   27  C   UNL     1     -10.457  17.323  66.628  1.00  0.00    -0.257 A  
ENDBRANCH  17  18
ENDBRANCH  13  17
ENDBRANCH   8   9
ENDBRANCH   4   8
TORSDOF 4
ENDMDL
MODEL       29
REMARK 921   NORMALIZED FREE ENERGY PREDICTED BY IDOCK:   -5.69 KCAL/MOL
REMARK 922        TOTAL FREE ENERGY PREDICTED BY IDOCK:   -7.84 KCAL/MOL
REMARK 923 INTER-LIGAND FREE ENERGY PREDICTED BY IDOCK:   -7.55 KCAL/MOL
REMARK 924 INTRA-LIGAND FREE ENERGY PREDICTED BY IDOCK:   -0.29 KCAL/MOL
REMARK 927      BINDING AFFINITY PREDICTED BY RF-SCORE:    0.00 PKD
ROOT
HETATM    1  N   UNL     1     -14.381  14.414  71.773  1.00  0.00    -0.497 NA 
HETATM    2  H1  UNL     1     -14.769  14.168  72.683  1.00  0.00     0.000 HD 
HETATM    3  H2  UNL     1     -14.518  13.657  71.103  1.00  0.00     0.000 HD 
HETATM    4  CA  UNL     1     -12.939  14.814  71.841  1.00  0.00    -0.327 C  
HETATM    5  C   UNL     1     -12.817  16.020  72.788  1.00  0.00    -0.437 C  
HETATM    6  OXT UNL     1     -11.807  16.679  72.961  1.00  0.00    -0.496 OA 
HETATM    7  O   UNL     1     -13.993  16.265  73.425  1.00  0.00    -0.500 OA 
ENDROOT
BRANCH   4   8
HETATM    8  C   UNL     1     -12.352  15.184  70.466  1.00  0.00    -0.408 C  
BRANCH   8   9
HETATM    9  C   UNL     1     -12.113  13.979  69.588  1.00  0.00    -0.408 A  
HETATM   10  C   UNL     1     -11.844  12.724  70.142  1.00  0.00    -0.326 A  
HETATM   11  C   UNL     1     -11.573  11.627  69.313  1.00  0.00    -0.320 A  
HETATM   12  I   UNL     1     -11.077   9.817  70.274  1.00  0.00    -0.392 I  
HETATM   13  C   UNL     1     -11.557  11.754  67.909  1.00  0.00    -0.307 A  
HETATM   14  C   UNL     1     -11.738  13.037  67.365  1.00  0.00    -0.374 A  
HETATM   15  C   UNL     1     -12.070  14.121  68.197  1.00  0.00    -0.297 A  
HETATM   16  I   UNL     1     -11.312  13.587  65.366  1.00  0.00    -0.351 I  
BRANCH  13  17
HETATM   17  O   UNL     1     -11.222  10.615  67.214  1.00  0.00    -0.318 OA 
BRANCH  17  18
HETATM   18  C   UNL     1     -10.031  10.494  66.538  1.00  0.00    -0.214 A  
HETATM   19  C   UNL     1      -8.919  10.925  67.269  1.00  0.00    -0.139 A  
HETATM   20  C   UNL     1      -7.671  11.014  66.655  1.00  0.00    -0.153 A  
HETATM   21  I   UNL     1      -6.062  11.720  67.785  1.00  0.00    -0.099 I  
HETATM   22  C   UNL     1      -7.527  10.669  65.309  1.00  0.00     0.006 A  
HETATM   23  C   UNL     1      -8.625  10.153  64.608  1.00  0.00    -0.183 A  
HETATM   24  O   UNL     1      -6.334  10.851  64.662  1.00  0.00    -0.366 OA 
HETATM   25  H   UNL     1      -6.236  10.616  63.746  1.00  0.00     0.000 HD 
HETATM   26  I   UNL     1      -8.497   9.663  62.575  1.00  0.00    -0.259 I  
HETATM   27  C   UNL     1      -9.870  10.022  65.236  1.00  0.00    -0.388 A  
ENDBRANCH  17  18
ENDBRANCH  13  17
ENDBRANCH   8   9
ENDBRANCH   4   8
TORSDOF 4
ENDMDL
MODEL       30
REMARK 921   NORMALIZED FREE ENERGY PREDICTED BY IDOCK:   -5.67 KCAL/MOL
REMARK 922        TOTAL FREE ENERGY PREDICTED BY IDOCK:   -7.82 KCAL/MOL
REMARK 923 INTER-LIGAND FREE ENERGY PREDICTED BY IDOCK:   -7.29 KCAL/MOL
REMARK 924 INTRA-LIGAND FREE ENERGY PREDICTED BY IDOCK:   -0.53 KCAL/MOL
REMARK 927      BINDING AFFINITY PREDICTED BY RF-SCORE:    0.00 PKD
ROOT
HETATM    1  N   UNL     1     -12.539  11.408  63.014  1.00  0.00    -0.851 NA 
HETATM    2  H1  UNL     1     -13.490  11.752  63.141  1.00  0.00     0.000 HD 
HETATM    3  H2  UNL     1     -12.533  10.399  62.871  1.00  0.00     0.000 HD 
HETATM    4  CA  UNL     1     -11.623  11.794  64.136  1.00  0.00    -0.307 C  
HETATM    5  C   UNL     1     -11.600  13.329  64.234  1.00  0.00    -0.400 C  
HETATM    6  OXT UNL     1     -10.855  13.978  64.946  1.00  0.00    -0.364 OA 
HETATM    7  O   UNL     1     -12.533  13.887  63.417  1.00  0.00    -0.833 OA 
ENDROOT
BRANCH   4   8
HETATM    8  C   UNL     1     -10.186  11.274  63.945  1.00  0.00    -0.420 C  
BRANCH   8   9
HETATM    9  C   UNL     1      -9.661  10.544  65.158  1.00  0.00    -0.341 A  
HETATM   10  C   UNL     1     -10.134   9.272  65.495  1.00  0.00     0.150 A  
HETATM   11  C   UNL     1      -9.674   8.630  66.652  1.00  0.00    -0.247 A  
HETATM   12  I   UNL     1     -10.544   6.763  67.105  1.00  0.00    -0.389 I  
HETATM   13  C   UNL     1      -8.737   9.242  67.509  1.00  0.00    -0.115 A  
HETATM   14  C   UNL     1      -8.337  10.556  67.211  1.00  0.00    -0.122 A  
HETATM   15  C   UNL     1      -8.753  11.171  66.017  1.00  0.00    -0.185 A  
HETATM   16  I   UNL     1      -7.325  11.855  68.540  1.00  0.00    -0.089 I  
BRANCH  13  17
HETATM   17  O   UNL     1      -8.412   8.528  68.640  1.00  0.00    -0.128 OA 
BRANCH  17  18
HETATM   18  C   UNL     1      -9.198   8.550  69.768  1.00  0.00    -0.157 A  
HETATM   19  C   UNL     1      -8.908   7.529  70.679  1.00  0.00    -0.146 A  
HETATM   20  C   UNL     1      -9.729   7.329  71.788  1.00  0.00    -0.153 A  
HETATM   21  I   UNL     1      -9.277   5.752  73.080  1.00  0.00    -0.138 I  
HETATM   22  C   UNL     1     -10.841   8.151  71.993  1.00  0.00    -0.284 A  
HETATM   23  C   UNL     1     -11.074   9.226  71.126  1.00  0.00    -0.341 A  
HETATM   24  O   UNL     1     -11.717   7.901  73.016  1.00  0.00    -0.604 OA 
HETATM   25  H   UNL     1     -12.474   8.460  73.155  1.00  0.00     0.000 HD 
HETATM   26  I   UNL     1     -12.748  10.466  71.341  1.00  0.00    -0.564 I  
HETATM   27  C   UNL     1     -10.224   9.455  70.036  1.00  0.00    -0.262 A  
ENDBRANCH  17  18
ENDBRANCH  13  17
ENDBRANCH   8   9
ENDBRANCH   4   8
TORSDOF 4
ENDMDL
MODEL       31
REMARK 921   NORMALIZED FREE ENERGY PREDICTED BY IDOCK:   -5.66 KCAL/MOL
REMARK 922        TOTAL FREE ENERGY PREDICTED BY IDOCK:   -7.81 KCAL/MOL
REMARK 923 INTER-LIGAND FREE ENERGY PREDICTED BY IDOCK:   -8.09 KCAL/MOL
REMARK 924 INTRA-LIGAND FREE ENERGY PREDICTED BY IDOCK:    0.28 KCAL/MOL
REMARK 927      BINDING AFFINITY PREDICTED BY RF-SCORE:    0.00 PKD
ROOT
HETATM    1  N   UNL     1      -9.966  13.299  64.200  1.00  0.00    -0.760 NA 
HETATM    2  H1  UNL     1     -10.038  14.257  63.858  1.00  0.00     0.000 HD 
HETATM    3  H2  UNL     1      -8.995  12.990  64.216  1.00  0.00     0.000 HD 
HETATM    4  CA  UNL     1     -10.821  12.338  63.431  1.00  0.00    -0.403 C  
HETATM    5  C   UNL     1     -12.283  12.806  63.531  1.00  0.00    -0.525 C  
HETATM    6  OXT UNL     1     -13.250  12.180  63.137  1.00  0.00    -0.535 OA 
HETATM    7  O   UNL     1     -12.368  14.029  64.119  1.00  0.00    -0.620 OA 
ENDROOT
BRANCH   4   8
HETATM    8  C   UNL     1     -10.712  10.891  63.947  1.00  0.00    -0.186 C  
BRANCH   8   9
HETATM    9  C   UNL     1     -10.471  10.817  65.436  1.00  0.00    -0.272 A  
HETATM   10  C   UNL     1     -11.006  11.776  66.302  1.00  0.00    -0.346 A  
HETATM   11  C   UNL     1     -10.729  11.722  67.675  1.00  0.00    -0.214 A  
HETATM   12  I   UNL     1     -11.507  13.287  68.856  1.00  0.00    -0.387 I  
HETATM   13  C   UNL     1      -9.907  10.715  68.220  1.00  0.00    -0.163 A  
HETATM   14  C   UNL     1      -9.301   9.811  67.331  1.00  0.00    -0.134 A  
HETATM   15  C   UNL     1      -9.630   9.832  65.964  1.00  0.00    -0.296 A  
HETATM   16  I   UNL     1      -7.694   8.520  67.809  1.00  0.00    -0.103 I  
BRANCH  13  17
HETATM   17  O   UNL     1      -9.670  10.810  69.572  1.00  0.00    -0.133 OA 
BRANCH  17  18
HETATM   18  C   UNL     1     -10.040   9.820  70.451  1.00  0.00    -0.252 A  
HETATM   19  C   UNL     1     -11.423   9.640  70.551  1.00  0.00    -0.352 A  
HETATM   20  C   UNL     1     -11.948   8.785  71.520  1.00  0.00    -0.324 A  
HETATM   21  I   UNL     1     -14.024   8.604  71.657  1.00  0.00    -0.308 I  
HETATM   22  C   UNL     1     -11.092   8.104  72.390  1.00  0.00    -0.369 A  
HETATM   23  C   UNL     1      -9.706   8.219  72.225  1.00  0.00    -0.292 A  
HETATM   24  O   UNL     1     -11.593   7.345  73.414  1.00  0.00    -0.580 OA 
HETATM   25  H   UNL     1     -11.011   6.882  74.006  1.00  0.00     0.000 HD 
HETATM   26  I   UNL     1      -8.363   7.270  73.523  1.00  0.00    -0.224 I  
HETATM   27  C   UNL     1      -9.177   9.043  71.223  1.00  0.00    -0.314 A  
ENDBRANCH  17  18
ENDBRANCH  13  17
ENDBRANCH   8   9
ENDBRANCH   4   8
TORSDOF 4
ENDMDL
MODEL       32
REMARK 921   NORMALIZED FREE ENERGY PREDICTED BY IDOCK:   -5.63 KCAL/MOL
REMARK 922        TOTAL FREE ENERGY PREDICTED BY IDOCK:   -7.77 KCAL/MOL
REMARK 923 INTER-LIGAND FREE ENERGY PREDICTED BY IDOCK:   -7.06 KCAL/MOL
REMARK 924 INTRA-LIGAND FREE ENERGY PREDICTED BY IDOCK:   -0.71 KCAL/MOL
REMARK 927      BINDING AFFINITY PREDICTED BY RF-SCORE:    0.00 PKD
ROOT
HETATM    1  N   UNL     1     -14.405  15.617  70.844  1.00  0.00    -0.706 NA 
HETATM    2  H1  UNL     1     -15.278  15.772  71.348  1.00  0.00     0.000 HD 
HETATM    3  H2  UNL     1     -14.583  15.399  69.864  1.00  0.00     0.000 HD 
HETATM    4  CA  UNL     1     -13.544  14.566  71.477  1.00  0.00    -0.390 C  
HETATM    5  C   UNL     1     -13.230  15.003  72.918  1.00  0.00    -0.486 C  
HETATM    6  OXT UNL     1     -12.444  14.449  73.666  1.00  0.00    -0.366 OA 
HETATM    7  O   UNL     1     -13.952  16.101  73.266  1.00  0.00    -0.515 OA 
ENDROOT
BRANCH   4   8
HETATM    8  C   UNL     1     -12.226  14.331  70.717  1.00  0.00    -0.423 C  
BRANCH   8   9
HETATM    9  C   UNL     1     -11.933  12.867  70.490  1.00  0.00    -0.282 A  
HETATM   10  C   UNL     1     -11.166  12.445  69.400  1.00  0.00    -0.225 A  
HETATM   11  C   UNL     1     -10.947  11.079  69.175  1.00  0.00    -0.237 A  
HETATM   12  I   UNL     1      -9.865  10.571  67.438  1.00  0.00    -0.238 I  
HETATM   13  C   UNL     1     -11.492  10.098  70.027  1.00  0.00    -0.277 A  
HETATM   14  C   UNL     1     -12.336  10.527  71.066  1.00  0.00    -0.399 A  
HETATM   15  C   UNL     1     -12.502  11.899  71.324  1.00  0.00    -0.319 A  
HETATM   16  I   UNL     1     -13.629   9.279  72.183  1.00  0.00    -0.428 I  
BRANCH  13  17
HETATM   17  O   UNL     1     -11.249   8.793  69.662  1.00  0.00    -0.099 OA 
BRANCH  17  18
HETATM   18  C   UNL     1     -10.297   8.024  70.289  1.00  0.00    -0.212 A  
HETATM   19  C   UNL     1     -10.003   6.832  69.620  1.00  0.00    -0.184 A  
HETATM   20  C   UNL     1      -9.179   5.880  70.220  1.00  0.00    -0.154 A  
HETATM   21  I   UNL     1      -8.824   4.095  69.195  1.00  0.00    -0.193 I  
HETATM   22  C   UNL     1      -8.644   6.117  71.489  1.00  0.00    -0.131 A  
HETATM   23  C   UNL     1      -8.870   7.350  72.114  1.00  0.00    -0.124 A  
HETATM   24  O   UNL     1      -7.922   5.150  72.136  1.00  0.00    -0.108 OA 
HETATM   25  H   UNL     1      -7.558   5.311  73.000  1.00  0.00     0.000 HD 
HETATM   26  I   UNL     1      -8.144   7.756  74.036  1.00  0.00    -0.314 I  
HETATM   27  C   UNL     1      -9.661   8.325  71.493  1.00  0.00    -0.251 A  
ENDBRANCH  17  18
ENDBRANCH  13  17
ENDBRANCH   8   9
ENDBRANCH   4   8
TORSDOF 4
ENDMDL
MODEL       33
REMARK 921   NORMALIZED FREE ENERGY PREDICTED BY IDOCK:   -5.62 KCAL/MOL
REMARK 922        TOTAL FREE ENERGY PREDICTED BY IDOCK:   -7.75 KCAL/MOL
REMARK 923 INTER-LIGAND FREE ENERGY PREDICTED BY IDOCK:   -7.12 KCAL/MOL
REMARK 924 INTRA-LIGAND FREE ENERGY PREDICTED BY IDOCK:   -0.63 KCAL/MOL
REMARK 927      BINDING AFFINITY PREDICTED BY RF-SCORE:    0.00 PKD
ROOT
HETATM    1  N   UNL     1     -10.621  19.011  67.858  1.00  0.00    -0.389 NA 
HETATM    2  H1  UNL     1     -10.102  19.533  68.564  1.00  0.00     0.000 HD 
HETATM    3  H2  UNL     1     -11.426  18.543  68.272  1.00  0.00     0.000 HD 
HETATM    4  CA  UNL     1      -9.766  18.040  67.103  1.00  0.00    -0.297 C  
HETATM    5  C   UNL     1      -8.631  18.824  66.423  1.00  0.00    -0.284 C  
HETATM    6  OXT UNL     1      -7.839  18.361  65.621  1.00  0.00    -0.505 OA 
HETATM    7  O   UNL     1      -8.613  20.119  66.835  1.00  0.00    -0.320 OA 
ENDROOT
BRANCH   4   8
HETATM    8  C   UNL     1     -10.550  17.251  66.038  1.00  0.00    -0.217 C  
BRANCH   8   9
HETATM    9  C   UNL     1     -10.266  15.769  66.079  1.00  0.00    -0.352 A  
HETATM   10  C   UNL     1      -9.162  15.266  66.774  1.00  0.00    -0.274 A  
HETATM   11  C   UNL     1      -8.882  13.892  66.759  1.00  0.00    -0.149 A  
HETATM   12  I   UNL     1      -7.129  13.275  67.756  1.00  0.00    -0.151 I  
HETATM   13  C   UNL     1      -9.692  12.985  66.046  1.00  0.00    -0.216 A  
HETATM   14  C   UNL     1     -10.745  13.511  65.277  1.00  0.00    -0.323 A  
HETATM   15  C   UNL     1     -11.058  14.880  65.345  1.00  0.00    -0.366 A  
HETATM   16  I   UNL     1     -11.807  12.459  63.779  1.00  0.00    -0.672 I  
BRANCH  13  17
HETATM   17  O   UNL     1      -9.275  11.674  66.067  1.00  0.00    -0.217 OA 
BRANCH  17  18
HETATM   18  C   UNL     1      -9.917  10.715  66.814  1.00  0.00    -0.209 A  
HETATM   19  C   UNL     1     -10.581  11.221  67.936  1.00  0.00    -0.231 A  
HETATM   20  C   UNL     1     -11.136  10.349  68.872  1.00  0.00    -0.247 A  
HETATM   21  I   UNL     1     -12.063  11.167  70.555  1.00  0.00    -0.377 I  
HETATM   22  C   UNL     1     -11.035   8.967  68.687  1.00  0.00     0.080 A  
HETATM   23  C   UNL     1     -10.448   8.468  67.518  1.00  0.00    -0.258 A  
HETATM   24  O   UNL     1     -11.479   8.098  69.648  1.00  0.00    -0.440 OA 
HETATM   25  H   UNL     1     -11.410   7.158  69.523  1.00  0.00     0.000 HD 
HETATM   26  I   UNL     1     -10.214   6.412  67.198  1.00  0.00    -0.366 I  
HETATM   27  C   UNL     1      -9.928   9.344  66.555  1.00  0.00    -0.339 A  
ENDBRANCH  17  18
ENDBRANCH  13  17
ENDBRANCH   8   9
ENDBRANCH   4   8
TORSDOF 4
ENDMDL
MODEL       34
REMARK 921   NORMALIZED FREE ENERGY PREDICTED BY IDOCK:   -5.61 KCAL/MOL
REMARK 922        TOTAL FREE ENERGY PREDICTED BY IDOCK:   -7.75 KCAL/MOL
REMARK 923 INTER-LIGAND FREE ENERGY PREDICTED BY IDOCK:   -6.91 KCAL/MOL
REMARK 924 INTRA-LIGAND FREE ENERGY PREDICTED BY IDOCK:   -0.83 KCAL/MOL
REMARK 927      BINDING AFFINITY PREDICTED BY RF-SCORE:    0.00 PKD
ROOT
HETATM    1  N   UNL     1     -10.138  19.120  68.851  1.00  0.00    -0.525 NA 
HETATM    2  H1  UNL     1      -9.463  19.660  69.393  1.00  0.00     0.000 HD 
HETATM    3  H2  UNL     1     -10.699  18.524  69.458  1.00  0.00     0.000 HD 
HETATM    4  CA  UNL     1      -9.500  18.320  67.756  1.00  0.00    -0.276 C  
HETATM    5  C   UNL     1      -8.754  19.288  66.822  1.00  0.00    -0.313 C  
HETATM    6  OXT UNL     1      -8.244  18.986  65.758  1.00  0.00    -0.449 OA 
HETATM    7  O   UNL     1      -8.728  20.546  67.337  1.00  0.00    -0.342 OA 
ENDROOT
BRANCH   4   8
HETATM    8  C   UNL     1     -10.518  17.504  66.937  1.00  0.00    -0.285 C  
BRANCH   8   9
HETATM    9  C   UNL     1     -10.184  16.032  66.888  1.00  0.00    -0.280 A  
HETATM   10  C   UNL     1      -8.966  15.552  67.378  1.00  0.00    -0.203 A  
HETATM   11  C   UNL     1      -8.650  14.190  67.277  1.00  0.00    -0.218 A  
HETATM   12  I   UNL     1      -6.739  13.612  67.956  1.00  0.00    -0.197 I  
HETATM   13  C   UNL     1      -9.537  13.272  66.679  1.00  0.00    -0.262 A  
HETATM   14  C   UNL     1     -10.718  13.779  66.108  1.00  0.00    -0.283 A  
HETATM   15  C   UNL     1     -11.058  15.134  66.267  1.00  0.00    -0.309 A  
HETATM   16  I   UNL     1     -11.977  12.726  64.773  1.00  0.00    -0.548 I  
BRANCH  13  17
HETATM   17  O   UNL     1      -9.082  11.976  66.593  1.00  0.00    -0.198 OA 
BRANCH  17  18
HETATM   18  C   UNL     1      -9.552  10.980  67.415  1.00  0.00    -0.164 A  
HETATM   19  C   UNL     1      -9.251   9.690  66.970  1.00  0.00    -0.167 A  
HETATM   20  C   UNL     1      -9.801   8.582  67.614  1.00  0.00    -0.174 A  
HETATM   21  I   UNL     1      -9.358   6.683  66.866  1.00  0.00    -0.202 I  
HETATM   22  C   UNL     1     -10.653   8.760  68.707  1.00  0.00    -0.145 A  
HETATM   23  C   UNL     1     -10.880  10.051  69.203  1.00  0.00    -0.222 A  
HETATM   24  O   UNL     1     -11.286   7.691  69.283  1.00  0.00    -0.429 OA 
HETATM   25  H   UNL     1     -11.866   7.812  70.027  1.00  0.00     0.000 HD 
HETATM   26  I   UNL     1     -12.185  10.398  70.804  1.00  0.00    -0.504 I  
HETATM   27  C   UNL     1     -10.291  11.161  68.584  1.00  0.00    -0.219 A  
ENDBRANCH  17  18
ENDBRANCH  13  17
ENDBRANCH   8   9
ENDBRANCH   4   8
TORSDOF 4
ENDMDL
MODEL       35
REMARK 921   NORMALIZED FREE ENERGY PREDICTED BY IDOCK:   -5.60 KCAL/MOL
REMARK 922        TOTAL FREE ENERGY PREDICTED BY IDOCK:   -7.73 KCAL/MOL
REMARK 923 INTER-LIGAND FREE ENERGY PREDICTED BY IDOCK:   -7.38 KCAL/MOL
REMARK 924 INTRA-LIGAND FREE ENERGY PREDICTED BY IDOCK:   -0.34 KCAL/MOL
REMARK 927      BINDING AFFINITY PREDICTED BY RF-SCORE:    0.00 PKD
ROOT
HETATM    1  N   UNL     1      -7.256  18.720  68.715  1.00  0.00    -0.300 NA 
HETATM    2  H1  UNL     1      -6.265  18.614  68.932  1.00  0.00     0.000 HD 
HETATM    3  H2  UNL     1      -7.835  18.351  69.468  1.00  0.00     0.000 HD 
HETATM    4  CA  UNL     1      -7.636  18.111  67.400  1.00  0.00    -0.213 C  
HETATM    5  C   UNL     1      -6.799  18.782  66.298  1.00  0.00    -0.225 C  
HETATM    6  OXT UNL     1      -6.954  18.621  65.100  1.00  0.00    -0.511 OA 
HETATM    7  O   UNL     1      -5.843  19.589  66.830  1.00  0.00    -0.171 OA 
ENDROOT
BRANCH   4   8
HETATM    8  C   UNL     1      -9.132  18.271  67.073  1.00  0.00    -0.271 C  
BRANCH   8   9
HETATM    9  C   UNL     1      -9.905  16.982  67.217  1.00  0.00    -0.260 A  
HETATM   10  C   UNL     1     -10.364  16.287  66.095  1.00  0.00    -0.352 A  
HETATM   11  C   UNL     1     -11.125  15.120  66.247  1.00  0.00    -0.309 A  
HETATM   12  I   UNL     1     -11.847  14.226  64.479  1.00  0.00    -0.372 I  
HETATM   13  C   UNL     1     -11.452  14.618  67.523  1.00  0.00    -0.361 A  
HETATM   14  C   UNL     1     -11.064  15.372  68.644  1.00  0.00    -0.289 A  
HETATM   15  C   UNL     1     -10.250  16.508  68.487  1.00  0.00    -0.266 A  
HETATM   16  I   UNL     1     -11.803  15.108  70.609  1.00  0.00    -0.509 I  
BRANCH  13  17
HETATM   17  O   UNL     1     -12.251  13.497  67.533  1.00  0.00    -0.325 OA 
BRANCH  17  18
HETATM   18  C   UNL     1     -11.730  12.229  67.631  1.00  0.00    -0.334 A  
HETATM   19  C   UNL     1     -11.986  11.605  68.856  1.00  0.00    -0.355 A  
HETATM   20  C   UNL     1     -11.383  10.385  69.159  1.00  0.00    -0.226 A  
HETATM   21  I   UNL     1     -11.761   9.533  71.028  1.00  0.00    -0.473 I  
HETATM   22  C   UNL     1     -10.523   9.782  68.237  1.00  0.00    -0.216 A  
HETATM   23  C   UNL     1     -10.341  10.367  66.977  1.00  0.00    -0.240 A  
HETATM   24  O   UNL     1      -9.840   8.640  68.560  1.00  0.00    -0.160 OA 
HETATM   25  H   UNL     1      -9.255   8.230  67.933  1.00  0.00     0.000 HD 
HETATM   26  I   UNL     1      -9.028   9.548  65.565  1.00  0.00    -0.294 I  
HETATM   27  C   UNL     1     -10.982  11.571  66.655  1.00  0.00    -0.349 A  
ENDBRANCH  17  18
ENDBRANCH  13  17
ENDBRANCH   8   9
ENDBRANCH   4   8
TORSDOF 4
ENDMDL
MODEL       36
REMARK 921   NORMALIZED FREE ENERGY PREDICTED BY IDOCK:   -5.59 KCAL/MOL
REMARK 922        TOTAL FREE ENERGY PREDICTED BY IDOCK:   -7.72 KCAL/MOL
REMARK 923 INTER-LIGAND FREE ENERGY PREDICTED BY IDOCK:   -7.24 KCAL/MOL
REMARK 924 INTRA-LIGAND FREE ENERGY PREDICTED BY IDOCK:   -0.48 KCAL/MOL
REMARK 927      BINDING AFFINITY PREDICTED BY RF-SCORE:    0.00 PKD
ROOT
HETATM    1  N   UNL     1     -12.502  14.817  63.786  1.00  0.00    -1.063 NA 
HETATM    2  H1  UNL     1     -13.200  15.523  64.020  1.00  0.00     0.000 HD 
HETATM    3  H2  UNL     1     -12.943  13.915  63.605  1.00  0.00     0.000 HD 
HETATM    4  CA  UNL     1     -11.428  14.688  64.823  1.00  0.00    -0.410 C  
HETATM    5  C   UNL     1     -10.738  16.055  64.975  1.00  0.00    -0.378 C  
HETATM    6  OXT UNL     1      -9.735  16.267  65.632  1.00  0.00    -0.464 OA 
HETATM    7  O   UNL     1     -11.398  17.018  64.278  1.00  0.00    -1.191 OA 
ENDROOT
BRANCH   4   8
HETATM    8  C   UNL     1     -10.375  13.622  64.469  1.00  0.00    -0.355 C  
BRANCH   8   9
HETATM    9  C   UNL     1      -9.954  12.796  65.661  1.00  0.00    -0.249 A  
HETATM   10  C   UNL     1      -8.840  11.955  65.598  1.00  0.00     0.191 A  
HETATM   11  C   UNL     1      -8.493  11.156  66.696  1.00  0.00    -0.164 A  
HETATM   12  I   UNL     1      -6.855   9.853  66.436  1.00  0.00    -0.104 I  
HETATM   13  C   UNL     1      -9.252  11.170  67.884  1.00  0.00    -0.154 A  
HETATM   14  C   UNL     1     -10.422  11.949  67.904  1.00  0.00    -0.204 A  
HETATM   15  C   UNL     1     -10.731  12.794  66.824  1.00  0.00    -0.278 A  
HETATM   16  I   UNL     1     -11.962  11.801  69.348  1.00  0.00    -0.226 I  
BRANCH  13  17
HETATM   17  O   UNL     1      -8.838  10.297  68.864  1.00  0.00    -0.138 OA 
BRANCH  17  18
HETATM   18  C   UNL     1      -9.433   9.072  69.051  1.00  0.00    -0.155 A  
HETATM   19  C   UNL     1      -9.687   8.765  70.392  1.00  0.00    -0.209 A  
HETATM   20  C   UNL     1     -10.137   7.494  70.745  1.00  0.00    -0.192 A  
HETATM   21  I   UNL     1     -10.442   7.080  72.769  1.00  0.00    -0.381 I  
HETATM   22  C   UNL     1     -10.339   6.524  69.758  1.00  0.00    -0.195 A  
HETATM   23  C   UNL     1     -10.168   6.865  68.411  1.00  0.00    -0.176 A  
HETATM   24  O   UNL     1     -10.676   5.241  70.097  1.00  0.00    -0.276 OA 
HETATM   25  H   UNL     1     -10.813   4.582  69.426  1.00  0.00     0.000 HD 
HETATM   26  I   UNL     1     -10.402   5.452  66.883  1.00  0.00    -0.278 I  
HETATM   27  C   UNL     1      -9.759   8.156  68.052  1.00  0.00    -0.186 A  
ENDBRANCH  17  18
ENDBRANCH  13  17
ENDBRANCH   8   9
ENDBRANCH   4   8
TORSDOF 4
ENDMDL
MODEL       37
REMARK 921   NORMALIZED FREE ENERGY PREDICTED BY IDOCK:   -5.50 KCAL/MOL
REMARK 922        TOTAL FREE ENERGY PREDICTED BY IDOCK:   -7.61 KCAL/MOL
REMARK 923 INTER-LIGAND FREE ENERGY PREDICTED BY IDOCK:   -7.08 KCAL/MOL
REMARK 924 INTRA-LIGAND FREE ENERGY PREDICTED BY IDOCK:   -0.53 KCAL/MOL
REMARK 927      BINDING AFFINITY PREDICTED BY RF-SCORE:    0.00 PKD
ROOT
HETATM    1  N   UNL     1     -10.165  13.475  64.465  1.00  0.00    -0.605 NA 
HETATM    2  H1  UNL     1      -9.884  13.200  63.524  1.00  0.00     0.000 HD 
HETATM    3  H2  UNL     1      -9.357  13.540  65.082  1.00  0.00     0.000 HD 
HETATM    4  CA  UNL     1     -11.213  12.576  65.049  1.00  0.00    -0.306 C  
HETATM    5  C   UNL     1     -12.441  12.602  64.123  1.00  0.00    -0.403 C  
HETATM    6  OXT UNL     1     -13.519  12.093  64.370  1.00  0.00    -0.675 OA 
HETATM    7  O   UNL     1     -12.173  13.270  62.969  1.00  0.00    -0.525 OA 
ENDROOT
BRANCH   4   8
HETATM    8  C   UNL     1     -11.637  12.992  66.469  1.00  0.00    -0.407 C  
BRANCH   8   9
HETATM    9  C   UNL     1     -11.130  12.046  67.532  1.00  0.00    -0.331 A  
HETATM   10  C   UNL     1     -11.936  11.677  68.612  1.00  0.00    -0.311 A  
HETATM   11  C   UNL     1     -11.433  10.839  69.617  1.00  0.00    -0.305 A  
HETATM   12  I   UNL     1     -12.713  10.443  71.246  1.00  0.00    -0.586 I  
HETATM   13  C   UNL     1     -10.110  10.354  69.575  1.00  0.00    -0.219 A  
HETATM   14  C   UNL     1      -9.279  10.805  68.534  1.00  0.00    -0.174 A  
HETATM   15  C   UNL     1      -9.807  11.594  67.497  1.00  0.00    -0.199 A  
HETATM   16  I   UNL     1      -7.173  10.613  68.483  1.00  0.00    -0.106 I  
BRANCH  13  17
HETATM   17  O   UNL     1      -9.724   9.589  70.652  1.00  0.00    -0.261 OA 
BRANCH  17  18
HETATM   18  C   UNL     1      -9.645   8.218  70.583  1.00  0.00    -0.171 A  
HETATM   19  C   UNL     1      -9.851   7.702  69.300  1.00  0.00    -0.168 A  
HETATM   20  C   UNL     1      -9.961   6.326  69.109  1.00  0.00    -0.150 A  
HETATM   21  I   UNL     1     -10.327   5.622  67.177  1.00  0.00    -0.343 I  
HETATM   22  C   UNL     1      -9.862   5.458  70.200  1.00  0.00    -0.207 A  
HETATM   23  C   UNL     1      -9.566   5.975  71.468  1.00  0.00    -0.156 A  
HETATM   24  O   UNL     1     -10.074   4.114  70.048  1.00  0.00    -0.159 OA 
HETATM   25  H   UNL     1     -10.006   3.524  70.790  1.00  0.00     0.000 HD 
HETATM   26  I   UNL     1      -9.454   4.741  73.157  1.00  0.00    -0.155 I  
HETATM   27  C   UNL     1      -9.411   7.355  71.653  1.00  0.00    -0.163 A  
ENDBRANCH  17  18
ENDBRANCH  13  17
ENDBRANCH   8   9
ENDBRANCH   4   8
TORSDOF 4
ENDMDL
MODEL       38
REMARK 921   NORMALIZED FREE ENERGY PREDICTED BY IDOCK:   -5.49 KCAL/MOL
REMARK 922        TOTAL FREE ENERGY PREDICTED BY IDOCK:   -7.60 KCAL/MOL
REMARK 923 INTER-LIGAND FREE ENERGY PREDICTED BY IDOCK:   -6.96 KCAL/MOL
REMARK 924 INTRA-LIGAND FREE ENERGY PREDICTED BY IDOCK:   -0.64 KCAL/MOL
REMARK 927      BINDING AFFINITY PREDICTED BY RF-SCORE:    0.00 PKD
ROOT
HETATM    1  N   UNL     1     -11.496   6.612  67.230  1.00  0.00    -0.749 NA 
HETATM    2  H1  UNL     1     -11.697   5.978  66.457  1.00  0.00     0.000 HD 
HETATM    3  H2  UNL     1     -12.355   7.002  67.614  1.00  0.00     0.000 HD 
HETATM    4  CA  UNL     1     -10.535   7.700  66.857  1.00  0.00    -0.318 C  
HETATM    5  C   UNL     1      -9.227   7.046  66.381  1.00  0.00    -0.149 C  
HETATM    6  OXT UNL     1      -8.192   7.641  66.135  1.00  0.00    -0.111 OA 
HETATM    7  O   UNL     1      -9.366   5.700  66.259  1.00  0.00    -0.152 OA 
ENDROOT
BRANCH   4   8
HETATM    8  C   UNL     1     -10.231   8.658  68.024  1.00  0.00    -0.261 C  
BRANCH   8   9
HETATM    9  C   UNL     1     -10.064  10.091  67.577  1.00  0.00    -0.243 A  
HETATM   10  C   UNL     1     -10.996  10.694  66.727  1.00  0.00    -0.182 A  
HETATM   11  C   UNL     1     -10.799  12.008  66.280  1.00  0.00    -0.279 A  
HETATM   12  I   UNL     1     -12.220  12.764  64.917  1.00  0.00    -0.491 I  
HETATM   13  C   UNL     1      -9.666  12.753  66.663  1.00  0.00    -0.252 A  
HETATM   14  C   UNL     1      -8.690  12.107  67.442  1.00  0.00    -0.177 A  
HETATM   15  C   UNL     1      -8.921  10.812  67.938  1.00  0.00    -0.139 A  
HETATM   16  I   UNL     1      -6.722  12.813  67.766  1.00  0.00    -0.160 I  
BRANCH  13  17
HETATM   17  O   UNL     1      -9.565  14.008  66.108  1.00  0.00    -0.286 OA 
BRANCH  17  18
HETATM   18  C   UNL     1      -9.621  15.150  66.871  1.00  0.00    -0.239 A  
HETATM   19  C   UNL     1     -10.292  14.987  68.087  1.00  0.00    -0.239 A  
HETATM   20  C   UNL     1     -10.568  16.094  68.888  1.00  0.00    -0.275 A  
HETATM   21  I   UNL     1     -11.624  15.791  70.664  1.00  0.00    -0.447 I  
HETATM   22  C   UNL     1     -10.171  17.370  68.478  1.00  0.00    -0.369 A  
HETATM   23  C   UNL     1      -9.422  17.516  67.304  1.00  0.00    -0.253 A  
HETATM   24  O   UNL     1     -10.527  18.479  69.199  1.00  0.00    -0.446 OA 
HETATM   25  H   UNL     1     -10.257  19.347  68.920  1.00  0.00     0.000 HD 
HETATM   26  I   UNL     1      -8.838  19.401  66.601  1.00  0.00    -0.438 I  
HETATM   27  C   UNL     1      -9.106  16.398  66.521  1.00  0.00    -0.308 A  
ENDBRANCH  17  18
ENDBRANCH  13  17
ENDBRANCH   8   9
ENDBRANCH   4   8
TORSDOF 4
ENDMDL
MODEL       39
REMARK 921   NORMALIZED FREE ENERGY PREDICTED BY IDOCK:   -5.45 KCAL/MOL
REMARK 922        TOTAL FREE ENERGY PREDICTED BY IDOCK:   -7.55 KCAL/MOL
REMARK 923 INTER-LIGAND FREE ENERGY PREDICTED BY IDOCK:   -7.26 KCAL/MOL
REMARK 924 INTRA-LIGAND FREE ENERGY PREDICTED BY IDOCK:   -0.29 KCAL/MOL
REMARK 927      BINDING AFFINITY PREDICTED BY RF-SCORE:    0.00 PKD
ROOT
HETATM    1  N   UNL     1     -10.650  19.117  67.777  1.00  0.00    -0.420 NA 
HETATM    2  H1  UNL     1     -10.171  19.581  68.549  1.00  0.00     0.000 HD 
HETATM    3  H2  UNL     1     -11.480  18.626  68.107  1.00  0.00     0.000 HD 
HETATM    4  CA  UNL     1      -9.756  18.197  67.003  1.00  0.00    -0.307 C  
HETATM    5  C   UNL     1      -8.579  19.020  66.451  1.00  0.00    -0.315 C  
HETATM    6  OXT UNL     1      -7.743  18.612  65.664  1.00  0.00    -0.495 OA 
HETATM    7  O   UNL     1      -8.581  20.281  66.958  1.00  0.00    -0.328 OA 
ENDROOT
BRANCH   4   8
HETATM    8  C   UNL     1     -10.478  17.496  65.838  1.00  0.00    -0.251 C  
BRANCH   8   9
HETATM    9  C   UNL     1     -10.183  16.017  65.771  1.00  0.00    -0.401 A  
HETATM   10  C   UNL     1     -10.994  15.152  65.031  1.00  0.00    -0.443 A  
HETATM   11  C   UNL     1     -10.737  13.774  65.021  1.00  0.00    -0.382 A  
HETATM   12  I   UNL     1     -12.097  12.567  63.954  1.00  0.00    -0.652 I  
HETATM   13  C   UNL     1      -9.667  13.222  65.754  1.00  0.00    -0.133 A  
HETATM   14  C   UNL     1      -8.914  14.086  66.567  1.00  0.00    -0.092 A  
HETATM   15  C   UNL     1      -9.137  15.474  66.525  1.00  0.00    -0.336 A  
HETATM   16  I   UNL     1      -7.581  13.475  68.093  1.00  0.00    -0.187 I  
BRANCH  13  17
HETATM   17  O   UNL     1      -9.559  11.850  65.704  1.00  0.00    -0.233 OA 
BRANCH  17  18
HETATM   18  C   UNL     1      -9.874  11.053  66.779  1.00  0.00    -0.197 A  
HETATM   19  C   UNL     1      -9.446   9.729  66.646  1.00  0.00    -0.220 A  
HETATM   20  C   UNL     1      -9.835   8.771  67.581  1.00  0.00    -0.180 A  
HETATM   21  I   UNL     1      -9.211   6.799  67.295  1.00  0.00    -0.175 I  
HETATM   22  C   UNL     1     -10.652   9.134  68.656  1.00  0.00    -0.174 A  
HETATM   23  C   UNL     1     -11.003  10.479  68.833  1.00  0.00    -0.246 A  
HETATM   24  O   UNL     1     -11.131   8.188  69.522  1.00  0.00    -0.429 OA 
HETATM   25  H   UNL     1     -11.687   8.435  70.253  1.00  0.00     0.000 HD 
HETATM   26  I   UNL     1     -12.265  11.088  70.389  1.00  0.00    -0.443 I  
HETATM   27  C   UNL     1     -10.575  11.449  67.918  1.00  0.00    -0.224 A  
ENDBRANCH  17  18
ENDBRANCH  13  17
ENDBRANCH   8   9
ENDBRANCH   4   8
TORSDOF 4
ENDMDL
MODEL       40
REMARK 921   NORMALIZED FREE ENERGY PREDICTED BY IDOCK:   -5.44 KCAL/MOL
REMARK 922        TOTAL FREE ENERGY PREDICTED BY IDOCK:   -7.54 KCAL/MOL
REMARK 923 INTER-LIGAND FREE ENERGY PREDICTED BY IDOCK:   -7.54 KCAL/MOL
REMARK 924 INTRA-LIGAND FREE ENERGY PREDICTED BY IDOCK:   -0.00 KCAL/MOL
REMARK 927      BINDING AFFINITY PREDICTED BY RF-SCORE:    0.00 PKD
ROOT
HETATM    1  N   UNL     1      -8.887  19.793  68.152  1.00  0.00    -0.315 NA 
HETATM    2  H1  UNL     1      -8.082  20.031  68.732  1.00  0.00     0.000 HD 
HETATM    3  H2  UNL     1      -9.712  19.622  68.726  1.00  0.00     0.000 HD 
HETATM    4  CA  UNL     1      -8.624  18.636  67.236  1.00  0.00    -0.266 C  
HETATM    5  C   UNL     1      -7.434  18.998  66.332  1.00  0.00    -0.258 C  
HETATM    6  OXT UNL     1      -7.046  18.340  65.382  1.00  0.00    -0.537 OA 
HETATM    7  O   UNL     1      -6.851  20.160  66.729  1.00  0.00    -0.214 OA 
ENDROOT
BRANCH   4   8
HETATM    8  C   UNL     1      -9.839  18.276  66.361  1.00  0.00    -0.358 C  
BRANCH   8   9
HETATM    9  C   UNL     1     -10.514  16.997  66.794  1.00  0.00    -0.257 A  
HETATM   10  C   UNL     1     -10.878  16.790  68.128  1.00  0.00    -0.353 A  
HETATM   11  C   UNL     1     -11.457  15.576  68.524  1.00  0.00    -0.361 A  
HETATM   12  I   UNL     1     -11.860  15.349  70.581  1.00  0.00    -0.544 I  
HETATM   13  C   UNL     1     -11.683  14.535  67.601  1.00  0.00    -0.382 A  
HETATM   14  C   UNL     1     -11.231  14.718  66.282  1.00  0.00    -0.343 A  
HETATM   15  C   UNL     1     -10.708  15.958  65.877  1.00  0.00    -0.303 A  
HETATM   16  I   UNL     1     -11.025  13.185  64.839  1.00  0.00    -0.419 I  
BRANCH  13  17
HETATM   17  O   UNL     1     -12.205  13.376  68.129  1.00  0.00    -0.284 OA 
BRANCH  17  18
HETATM   18  C   UNL     1     -11.408  12.393  68.664  1.00  0.00    -0.288 A  
HETATM   19  C   UNL     1     -10.124  12.343  68.112  1.00  0.00    -0.224 A  
HETATM   20  C   UNL     1      -9.262  11.296  68.440  1.00  0.00    -0.178 A  
HETATM   21  I   UNL     1      -7.380  11.247  67.538  1.00  0.00    -0.128 I  
HETATM   22  C   UNL     1      -9.680  10.297  69.324  1.00  0.00    -0.225 A  
HETATM   23  C   UNL     1     -10.933  10.402  69.941  1.00  0.00    -0.305 A  
HETATM   24  O   UNL     1      -8.888   9.208  69.573  1.00  0.00    -0.137 OA 
HETATM   25  H   UNL     1      -9.172   8.528  70.174  1.00  0.00     0.000 HD 
HETATM   26  I   UNL     1     -11.645   8.917  71.236  1.00  0.00    -0.438 I  
HETATM   27  C   UNL     1     -11.781  11.476  69.647  1.00  0.00    -0.419 A  
ENDBRANCH  17  18
ENDBRANCH  13  17
ENDBRANCH   8   9
ENDBRANCH   4   8
TORSDOF 4
ENDMDL
MODEL       41
REMARK 921   NORMALIZED FREE ENERGY PREDICTED BY IDOCK:   -5.44 KCAL/MOL
REMARK 922        TOTAL FREE ENERGY PREDICTED BY IDOCK:   -7.54 KCAL/MOL
REMARK 923 INTER-LIGAND FREE ENERGY PREDICTED BY IDOCK:   -6.89 KCAL/MOL
REMARK 924 INTRA-LIGAND FREE ENERGY PREDICTED BY IDOCK:   -0.65 KCAL/MOL
REMARK 927      BINDING AFFINITY PREDICTED BY RF-SCORE:    0.00 PKD
ROOT
HETATM    1  N   UNL     1     -11.287   4.467  65.016  1.00  0.00    -1.108 NA 
HETATM    2  H1  UNL     1     -10.953   3.974  64.188  1.00  0.00     0.000 HD 
HETATM    3  H2  UNL     1     -12.008   5.145  64.769  1.00  0.00     0.000 HD 
HETATM    4  CA  UNL     1     -10.184   5.117  65.794  1.00  0.00    -0.053 C  
HETATM    5  C   UNL     1      -9.187   4.027  66.220  1.00  0.00    -0.158 C  
HETATM    6  OXT UNL     1      -8.249   4.189  66.980  1.00  0.00    -0.100 OA 
HETATM    7  O   UNL     1      -9.479   2.837  65.631  1.00  0.00    -0.091 OA 
ENDROOT
BRANCH   4   8
HETATM    8  C   UNL     1     -10.689   5.863  67.043  1.00  0.00    -0.396 C  
BRANCH   8   9
HETATM    9  C   UNL     1     -10.224   7.299  67.096  1.00  0.00    -0.339 A  
HETATM   10  C   UNL     1      -9.119   7.727  66.354  1.00  0.00    -0.216 A  
HETATM   11  C   UNL     1      -8.670   9.051  66.454  1.00  0.00    -0.132 A  
HETATM   12  I   UNL     1      -6.930   9.541  65.368  1.00  0.00    -0.110 I  
HETATM   13  C   UNL     1      -9.306   9.980  67.301  1.00  0.00    -0.148 A  
HETATM   14  C   UNL     1     -10.358   9.517  68.111  1.00  0.00    -0.208 A  
HETATM   15  C   UNL     1     -10.843   8.206  67.961  1.00  0.00    -0.009 A  
HETATM   16  I   UNL     1     -11.167  10.551  69.771  1.00  0.00    -0.405 I  
BRANCH  13  17
HETATM   17  O   UNL     1      -8.731  11.230  67.350  1.00  0.00    -0.136 OA 
BRANCH  17  18
HETATM   18  C   UNL     1      -9.320  12.329  66.773  1.00  0.00    -0.218 A  
HETATM   19  C   UNL     1     -10.300  12.014  65.826  1.00  0.00    -0.289 A  
HETATM   20  C   UNL     1     -10.866  13.020  65.044  1.00  0.00    -0.308 A  
HETATM   21  I   UNL     1     -12.281  12.478  63.607  1.00  0.00    -0.517 I  
HETATM   22  C   UNL     1     -10.458  14.347  65.209  1.00  0.00    -0.390 A  
HETATM   23  C   UNL     1      -9.543  14.667  66.220  1.00  0.00    -0.308 A  
HETATM   24  O   UNL     1     -10.924  15.331  64.379  1.00  0.00    -0.657 OA 
HETATM   25  H   UNL     1     -10.647  16.234  64.491  1.00  0.00     0.000 HD 
HETATM   26  I   UNL     1      -8.847  16.624  66.492  1.00  0.00    -0.352 I  
HETATM   27  C   UNL     1      -9.006  13.662  67.036  1.00  0.00    -0.244 A  
ENDBRANCH  17  18
ENDBRANCH  13  17
ENDBRANCH   8   9
ENDBRANCH   4   8
TORSDOF 4
ENDMDL
MODEL       42
REMARK 921   NORMALIZED FREE ENERGY PREDICTED BY IDOCK:   -5.43 KCAL/MOL
REMARK 922        TOTAL FREE ENERGY PREDICTED BY IDOCK:   -7.52 KCAL/MOL
REMARK 923 INTER-LIGAND FREE ENERGY PREDICTED BY IDOCK:   -6.70 KCAL/MOL
REMARK 924 INTRA-LIGAND FREE ENERGY PREDICTED BY IDOCK:   -0.82 KCAL/MOL
REMARK 927      BINDING AFFINITY PREDICTED BY RF-SCORE:    0.00 PKD
ROOT
HETATM    1  N   UNL     1     -10.860  12.045  62.993  1.00  0.00    -0.652 NA 
HETATM    2  H1  UNL     1     -11.586  11.925  62.287  1.00  0.00     0.000 HD 
HETATM    3  H2  UNL     1     -10.138  11.331  62.899  1.00  0.00     0.000 HD 
HETATM    4  CA  UNL     1     -11.403  12.075  64.390  1.00  0.00    -0.345 C  
HETATM    5  C   UNL     1     -12.409  13.234  64.491  1.00  0.00    -0.368 C  
HETATM    6  OXT UNL     1     -12.931  13.625  65.520  1.00  0.00    -0.625 OA 
HETATM    7  O   UNL     1     -12.656  13.779  63.270  1.00  0.00    -0.830 OA 
ENDROOT
BRANCH   4   8
HETATM    8  C   UNL     1     -10.308  12.256  65.457  1.00  0.00    -0.296 C  
BRANCH   8   9
HETATM    9  C   UNL     1     -10.315  11.160  66.495  1.00  0.00    -0.290 A  
HETATM   10  C   UNL     1      -9.898   9.863  66.178  1.00  0.00    -0.324 A  
HETATM   11  C   UNL     1      -9.960   8.845  67.139  1.00  0.00    -0.226 A  
HETATM   12  I   UNL     1      -9.403   6.913  66.504  1.00  0.00    -0.103 I  
HETATM   13  C   UNL     1     -10.445   9.091  68.439  1.00  0.00    -0.192 A  
HETATM   14  C   UNL     1     -10.947  10.373  68.720  1.00  0.00    -0.245 A  
HETATM   15  C   UNL     1     -10.825  11.406  67.774  1.00  0.00    -0.281 A  
HETATM   16  I   UNL     1     -12.132  10.880  70.399  1.00  0.00    -0.483 I  
BRANCH  13  17
HETATM   17  O   UNL     1     -10.506   7.993  69.267  1.00  0.00    -0.219 OA 
BRANCH  17  18
HETATM   18  C   UNL     1      -9.594   7.786  70.275  1.00  0.00    -0.175 A  
HETATM   19  C   UNL     1     -10.111   7.092  71.373  1.00  0.00    -0.197 A  
HETATM   20  C   UNL     1      -9.350   6.952  72.533  1.00  0.00    -0.139 A  
HETATM   21  I   UNL     1     -10.201   5.954  74.158  1.00  0.00    -0.238 I  
HETATM   22  C   UNL     1      -8.067   7.503  72.598  1.00  0.00    -0.111 A  
HETATM   23  C   UNL     1      -7.522   8.119  71.465  1.00  0.00    -0.081 A  
HETATM   24  O   UNL     1      -7.349   7.468  73.764  1.00  0.00    -0.092 OA 
HETATM   25  H   UNL     1      -6.477   7.843  73.809  1.00  0.00     0.000 HD 
HETATM   26  I   UNL     1      -5.627   9.011  71.505  1.00  0.00    -0.066 I  
HETATM   27  C   UNL     1      -8.269   8.220  70.284  1.00  0.00    -0.121 A  
ENDBRANCH  17  18
ENDBRANCH  13  17
ENDBRANCH   8   9
ENDBRANCH   4   8
TORSDOF 4
ENDMDL
MODEL       43
REMARK 921   NORMALIZED FREE ENERGY PREDICTED BY IDOCK:   -5.35 KCAL/MOL
REMARK 922        TOTAL FREE ENERGY PREDICTED BY IDOCK:   -7.42 KCAL/MOL
REMARK 923 INTER-LIGAND FREE ENERGY PREDICTED BY IDOCK:   -6.94 KCAL/MOL
REMARK 924 INTRA-LIGAND FREE ENERGY PREDICTED BY IDOCK:   -0.49 KCAL/MOL
REMARK 927      BINDING AFFINITY PREDICTED BY RF-SCORE:    0.00 PKD
ROOT
HETATM    1  N   UNL     1     -14.369  14.322  71.842  1.00  0.00    -0.514 NA 
HETATM    2  H1  UNL     1     -14.720  14.158  72.785  1.00  0.00     0.000 HD 
HETATM    3  H2  UNL     1     -14.609  13.549  71.223  1.00  0.00     0.000 HD 
HETATM    4  CA  UNL     1     -12.896  14.597  71.806  1.00  0.00    -0.332 C  
HETATM    5  C   UNL     1     -12.615  15.833  72.677  1.00  0.00    -0.445 C  
HETATM    6  OXT UNL     1     -11.544  16.409  72.757  1.00  0.00    -0.373 OA 
HETATM    7  O   UNL     1     -13.724  16.213  73.365  1.00  0.00    -0.601 OA 
ENDROOT
BRANCH   4   8
HETATM    8  C   UNL     1     -12.365  14.845  70.382  1.00  0.00    -0.401 C  
BRANCH   8   9
HETATM    9  C   UNL     1     -12.090  13.565  69.629  1.00  0.00    -0.365 A  
HETATM   10  C   UNL     1     -11.826  12.372  70.307  1.00  0.00    -0.315 A  
HETATM   11  C   UNL     1     -11.521  11.205  69.593  1.00  0.00    -0.310 A  
HETATM   12  I   UNL     1     -11.037   9.499  70.735  1.00  0.00    -0.463 I  
HETATM   13  C   UNL     1     -11.466  11.198  68.185  1.00  0.00    -0.303 A  
HETATM   14  C   UNL     1     -11.643  12.422  67.516  1.00  0.00    -0.365 A  
HETATM   15  C   UNL     1     -12.008  13.575  68.233  1.00  0.00    -0.377 A  
HETATM   16  I   UNL     1     -11.164  12.786  65.487  1.00  0.00    -0.381 I  
BRANCH  13  17
HETATM   17  O   UNL     1     -11.101  10.002  67.610  1.00  0.00    -0.285 OA 
BRANCH  17  18
HETATM   18  C   UNL     1      -9.791   9.700  67.321  1.00  0.00    -0.175 A  
HETATM   19  C   UNL     1      -9.617   8.446  66.728  1.00  0.00    -0.283 A  
HETATM   20  C   UNL     1      -8.334   7.938  66.529  1.00  0.00    -0.127 A  
HETATM   21  I   UNL     1      -8.143   6.035  65.690  1.00  0.00    -0.140 I  
HETATM   22  C   UNL     1      -7.219   8.685  66.920  1.00  0.00    -0.075 A  
HETATM   23  C   UNL     1      -7.397   9.976  67.431  1.00  0.00    -0.090 A  
HETATM   24  O   UNL     1      -5.958   8.158  66.831  1.00  0.00    -0.050 OA 
HETATM   25  H   UNL     1      -5.199   8.665  67.097  1.00  0.00     0.000 HD 
HETATM   26  I   UNL     1      -5.777  11.131  68.086  1.00  0.00    -0.046 I  
HETATM   27  C   UNL     1      -8.685  10.505  67.590  1.00  0.00    -0.121 A  
ENDBRANCH  17  18
ENDBRANCH  13  17
ENDBRANCH   8   9
ENDBRANCH   4   8
TORSDOF 4
ENDMDL
MODEL       44
REMARK 921   NORMALIZED FREE ENERGY PREDICTED BY IDOCK:   -5.35 KCAL/MOL
REMARK 922        TOTAL FREE ENERGY PREDICTED BY IDOCK:   -7.42 KCAL/MOL
REMARK 923 INTER-LIGAND FREE ENERGY PREDICTED BY IDOCK:   -7.25 KCAL/MOL
REMARK 924 INTRA-LIGAND FREE ENERGY PREDICTED BY IDOCK:   -0.16 KCAL/MOL
REMARK 927      BINDING AFFINITY PREDICTED BY RF-SCORE:    0.00 PKD
ROOT
HETATM    1  N   UNL     1      -9.309  19.170  68.418  1.00  0.00    -0.345 NA 
HETATM    2  H1  UNL     1      -8.668  19.895  68.097  1.00  0.00     0.000 HD 
HETATM    3  H2  UNL     1      -8.938  18.693  69.239  1.00  0.00     0.000 HD 
HETATM    4  CA  UNL     1      -9.663  18.187  67.343  1.00  0.00    -0.296 C  
HETATM    5  C   UNL     1     -10.307  18.957  66.178  1.00  0.00    -0.460 C  
HETATM    6  OXT UNL     1     -10.834  18.449  65.205  1.00  0.00    -0.630 OA 
HETATM    7  O   UNL     1     -10.211  20.300  66.365  1.00  0.00    -0.427 OA 
ENDROOT
BRANCH   4   8
HETATM    8  C   UNL     1     -10.630  17.091  67.826  1.00  0.00    -0.350 C  
BRANCH   8   9
HETATM    9  C   UNL     1     -10.302  15.729  67.262  1.00  0.00    -0.290 A  
HETATM   10  C   UNL     1     -11.202  15.057  66.430  1.00  0.00    -0.310 A  
HETATM   11  C   UNL     1     -10.904  13.772  65.957  1.00  0.00    -0.282 A  
HETATM   12  I   UNL     1     -12.390  12.825  64.799  1.00  0.00    -0.429 I  
HETATM   13  C   UNL     1      -9.704  13.120  66.306  1.00  0.00    -0.265 A  
HETATM   14  C   UNL     1      -8.848  13.766  67.216  1.00  0.00    -0.220 A  
HETATM   15  C   UNL     1      -9.122  15.078  67.638  1.00  0.00    -0.182 A  
HETATM   16  I   UNL     1      -7.247  12.846  68.249  1.00  0.00    -0.151 I  
BRANCH  13  17
HETATM   17  O   UNL     1      -9.560  11.840  65.821  1.00  0.00    -0.233 OA 
BRANCH  17  18
HETATM   18  C   UNL     1      -9.948  10.737  66.543  1.00  0.00    -0.213 A  
HETATM   19  C   UNL     1     -10.662  11.044  67.706  1.00  0.00    -0.270 A  
HETATM   20  C   UNL     1     -10.978  10.038  68.618  1.00  0.00    -0.204 A  
HETATM   21  I   UNL     1     -11.994  10.570  70.363  1.00  0.00    -0.453 I  
HETATM   22  C   UNL     1     -10.585   8.720  68.370  1.00  0.00    -0.137 A  
HETATM   23  C   UNL     1      -9.949   8.405  67.162  1.00  0.00    -0.238 A  
HETATM   24  O   UNL     1     -10.792   7.740  69.304  1.00  0.00    -0.362 OA 
HETATM   25  H   UNL     1     -10.524   6.843  69.135  1.00  0.00     0.000 HD 
HETATM   26  I   UNL     1      -9.286   6.463  66.744  1.00  0.00    -0.180 I  
HETATM   27  C   UNL     1      -9.671   9.408  66.224  1.00  0.00    -0.330 A  
ENDBRANCH  17  18
ENDBRANCH  13  17
ENDBRANCH   8   9
ENDBRANCH   4   8
TORSDOF 4
ENDMDL
MODEL       45
REMARK 921   NORMALIZED FREE ENERGY PREDICTED BY IDOCK:   -5.25 KCAL/MOL
REMARK 922        TOTAL FREE ENERGY PREDICTED BY IDOCK:   -7.30 KCAL/MOL
REMARK 923 INTER-LIGAND FREE ENERGY PREDICTED BY IDOCK:   -6.67 KCAL/MOL
REMARK 924 INTRA-LIGAND FREE ENERGY PREDICTED BY IDOCK:   -0.63 KCAL/MOL
REMARK 927      BINDING AFFINITY PREDICTED BY RF-SCORE:    0.00 PKD
ROOT
HETATM    1  N   UNL     1      -8.524   8.063  63.405  1.00  0.00    -0.399 NA 
HETATM    2  H1  UNL     1      -7.827   7.880  62.683  1.00  0.00     0.000 HD 
HETATM    3  H2  UNL     1      -9.042   8.917  63.204  1.00  0.00     0.000 HD 
HETATM    4  CA  UNL     1      -7.940   8.104  64.785  1.00  0.00    -0.147 C  
HETATM    5  C   UNL     1      -7.262   6.752  65.062  1.00  0.00    -0.074 C  
HETATM    6  OXT UNL     1      -6.809   6.399  66.137  1.00  0.00    -0.054 OA 
HETATM    7  O   UNL     1      -7.223   5.982  63.942  1.00  0.00    -0.053 OA 
ENDROOT
BRANCH   4   8
HETATM    8  C   UNL     1      -8.991   8.381  65.875  1.00  0.00    -0.223 C  
BRANCH   8   9
HETATM    9  C   UNL     1      -9.358   9.842  65.978  1.00  0.00    -0.240 A  
HETATM   10  C   UNL     1     -10.377  10.387  65.192  1.00  0.00    -0.260 A  
HETATM   11  C   UNL     1     -10.670  11.756  65.262  1.00  0.00    -0.287 A  
HETATM   12  I   UNL     1     -12.157  12.472  63.949  1.00  0.00    -0.652 I  
HETATM   13  C   UNL     1      -9.950  12.619  66.113  1.00  0.00    -0.261 A  
HETATM   14  C   UNL     1      -8.868  12.079  66.830  1.00  0.00    -0.198 A  
HETATM   15  C   UNL     1      -8.618  10.696  66.803  1.00  0.00    -0.129 A  
HETATM   16  I   UNL     1      -7.362  13.207  67.799  1.00  0.00    -0.165 I  
BRANCH  13  17
HETATM   17  O   UNL     1     -10.299  13.948  66.044  1.00  0.00    -0.290 OA 
BRANCH  17  18
HETATM   18  C   UNL     1     -10.734  14.647  67.145  1.00  0.00    -0.292 A  
HETATM   19  C   UNL     1     -10.314  15.981  67.171  1.00  0.00    -0.295 A  
HETATM   20  C   UNL     1     -10.542  16.763  68.303  1.00  0.00    -0.352 A  
HETATM   21  I   UNL     1      -9.839  18.730  68.302  1.00  0.00    -0.492 I  
HETATM   22  C   UNL     1     -11.194  16.217  69.412  1.00  0.00    -0.335 A  
HETATM   23  C   UNL     1     -11.691  14.909  69.345  1.00  0.00    -0.319 A  
HETATM   24  O   UNL     1     -11.331  16.936  70.568  1.00  0.00    -0.405 OA 
HETATM   25  H   UNL     1     -11.774  16.565  71.323  1.00  0.00     0.000 HD 
HETATM   26  I   UNL     1     -12.632  14.007  70.984  1.00  0.00    -0.406 I  
HETATM   27  C   UNL     1     -11.501  14.136  68.191  1.00  0.00    -0.340 A  
ENDBRANCH  17  18
ENDBRANCH  13  17
ENDBRANCH   8   9
ENDBRANCH   4   8
TORSDOF 4
ENDMDL
MODEL       46
REMARK 921   NORMALIZED FREE ENERGY PREDICTED BY IDOCK:   -5.24 KCAL/MOL
REMARK 922        TOTAL FREE ENERGY PREDICTED BY IDOCK:   -7.29 KCAL/MOL
REMARK 923 INTER-LIGAND FREE ENERGY PREDICTED BY IDOCK:   -6.51 KCAL/MOL
REMARK 924 INTRA-LIGAND FREE ENERGY PREDICTED BY IDOCK:   -0.78 KCAL/MOL
REMARK 927      BINDING AFFINITY PREDICTED BY RF-SCORE:    0.00 PKD
ROOT
HETATM    1  N   UNL     1     -10.104  14.676  66.757  1.00  0.00    -0.260 NA 
HETATM    2  H1  UNL     1      -9.352  14.915  66.111  1.00  0.00     0.000 HD 
HETATM    3  H2  UNL     1      -9.887  14.992  67.701  1.00  0.00     0.000 HD 
HETATM    4  CA  UNL     1     -10.444  13.217  66.746  1.00  0.00    -0.261 C  
HETATM    5  C   UNL     1     -10.857  12.828  65.316  1.00  0.00    -0.291 C  
HETATM    6  OXT UNL     1     -11.325  11.753  64.987  1.00  0.00    -0.295 OA 
HETATM    7  O   UNL     1     -10.630  13.847  64.445  1.00  0.00    -0.400 OA 
ENDROOT
BRANCH   4   8
HETATM    8  C   UNL     1     -11.580  12.857  67.721  1.00  0.00    -0.391 C  
BRANCH   8   9
HETATM    9  C   UNL     1     -11.227  11.704  68.630  1.00  0.00    -0.308 A  
HETATM   10  C   UNL     1     -12.157  11.194  69.541  1.00  0.00    -0.396 A  
HETATM   11  C   UNL     1     -11.798  10.158  70.414  1.00  0.00    -0.288 A  
HETATM   12  I   UNL     1     -13.257   9.552  71.811  1.00  0.00    -0.545 I  
HETATM   13  C   UNL     1     -10.500   9.608  70.407  1.00  0.00    -0.293 A  
HETATM   14  C   UNL     1      -9.547  10.189  69.552  1.00  0.00    -0.221 A  
HETATM   15  C   UNL     1      -9.929  11.184  68.636  1.00  0.00    -0.210 A  
HETATM   16  I   UNL     1      -7.457   9.880  69.666  1.00  0.00    -0.172 I  
BRANCH  13  17
HETATM   17  O   UNL     1     -10.262   8.637  71.353  1.00  0.00    -0.210 OA 
BRANCH  17  18
HETATM   18  C   UNL     1     -10.271   7.297  71.043  1.00  0.00    -0.192 A  
HETATM   19  C   UNL     1     -10.423   6.461  72.153  1.00  0.00    -0.234 A  
HETATM   20  C   UNL     1     -10.288   5.080  72.011  1.00  0.00    -0.213 A  
HETATM   21  I   UNL     1     -10.470   3.890  73.717  1.00  0.00    -0.340 I  
HETATM   22  C   UNL     1     -10.004   4.530  70.758  1.00  0.00    -0.199 A  
HETATM   23  C   UNL     1      -9.941   5.365  69.636  1.00  0.00    -0.227 A  
HETATM   24  O   UNL     1      -9.763   3.189  70.621  1.00  0.00    -0.167 OA 
HETATM   25  H   UNL     1      -9.569   2.815  69.769  1.00  0.00     0.000 HD 
HETATM   26  I   UNL     1      -9.469   4.619  67.737  1.00  0.00    -0.195 I  
HETATM   27  C   UNL     1     -10.121   6.748  69.770  1.00  0.00    -0.198 A  
ENDBRANCH  17  18
ENDBRANCH  13  17
ENDBRANCH   8   9
ENDBRANCH   4   8
TORSDOF 4
ENDMDL
MODEL       47
REMARK 921   NORMALIZED FREE ENERGY PREDICTED BY IDOCK:   -5.24 KCAL/MOL
REMARK 922        TOTAL FREE ENERGY PREDICTED BY IDOCK:   -7.28 KCAL/MOL
REMARK 923 INTER-LIGAND FREE ENERGY PREDICTED BY IDOCK:   -6.73 KCAL/MOL
REMARK 924 INTRA-LIGAND FREE ENERGY PREDICTED BY IDOCK:   -0.55 KCAL/MOL
REMARK 927      BINDING AFFINITY PREDICTED BY RF-SCORE:    0.00 PKD
ROOT
HETATM    1  N   UNL     1     -11.328   4.224  64.638  1.00  0.00    -0.955 NA 
HETATM    2  H1  UNL     1     -11.135   3.982  63.666  1.00  0.00     0.000 HD 
HETATM    3  H2  UNL     1     -11.969   5.014  64.696  1.00  0.00     0.000 HD 
HETATM    4  CA  UNL     1     -10.084   4.483  65.433  1.00  0.00    -0.192 C  
HETATM    5  C   UNL     1      -9.210   3.219  65.387  1.00  0.00    -0.152 C  
HETATM    6  OXT UNL     1      -8.197   3.040  66.040  1.00  0.00    -0.088 OA 
HETATM    7  O   UNL     1      -9.709   2.307  64.511  1.00  0.00    -0.124 OA 
ENDROOT
BRANCH   4   8
HETATM    8  C   UNL     1     -10.375   4.850  66.900  1.00  0.00    -0.237 C  
BRANCH   8   9
HETATM    9  C   UNL     1     -10.186   6.321  67.185  1.00  0.00    -0.247 A  
HETATM   10  C   UNL     1      -9.368   7.113  66.374  1.00  0.00    -0.190 A  
HETATM   11  C   UNL     1      -9.163   8.465  66.683  1.00  0.00    -0.180 A  
HETATM   12  I   UNL     1      -7.823   9.522  65.444  1.00  0.00    -0.127 I  
HETATM   13  C   UNL     1      -9.762   9.060  67.811  1.00  0.00    -0.156 A  
HETATM   14  C   UNL     1     -10.507   8.234  68.670  1.00  0.00    -0.168 A  
HETATM   15  C   UNL     1     -10.761   6.895  68.323  1.00  0.00    -0.265 A  
HETATM   16  I   UNL     1     -11.116   8.745  70.631  1.00  0.00    -0.280 I  
BRANCH  13  17
HETATM   17  O   UNL     1      -9.433  10.378  68.032  1.00  0.00    -0.141 OA 
BRANCH  17  18
HETATM   18  C   UNL     1     -10.318  11.402  67.792  1.00  0.00    -0.182 A  
HETATM   19  C   UNL     1     -10.825  11.419  66.489  1.00  0.00    -0.334 A  
HETATM   20  C   UNL     1     -11.604  12.491  66.055  1.00  0.00    -0.406 A  
HETATM   21  I   UNL     1     -12.282  12.485  64.080  1.00  0.00    -0.542 I  
HETATM   22  C   UNL     1     -11.884  13.549  66.925  1.00  0.00    -0.407 A  
HETATM   23  C   UNL     1     -11.449  13.483  68.254  1.00  0.00    -0.310 A  
HETATM   24  O   UNL     1     -12.556  14.658  66.485  1.00  0.00    -0.372 OA 
HETATM   25  H   UNL     1     -12.746  15.378  67.076  1.00  0.00     0.000 HD 
HETATM   26  I   UNL     1     -11.785  15.053  69.599  1.00  0.00    -0.418 I  
HETATM   27  C   UNL     1     -10.703  12.385  68.703  1.00  0.00    -0.260 A  
ENDBRANCH  17  18
ENDBRANCH  13  17
ENDBRANCH   8   9
ENDBRANCH   4   8
TORSDOF 4
ENDMDL
MODEL       48
REMARK 921   NORMALIZED FREE ENERGY PREDICTED BY IDOCK:   -5.22 KCAL/MOL
REMARK 922        TOTAL FREE ENERGY PREDICTED BY IDOCK:   -7.27 KCAL/MOL
REMARK 923 INTER-LIGAND FREE ENERGY PREDICTED BY IDOCK:   -6.77 KCAL/MOL
REMARK 924 INTRA-LIGAND FREE ENERGY PREDICTED BY IDOCK:   -0.50 KCAL/MOL
REMARK 927      BINDING AFFINITY PREDICTED BY RF-SCORE:    0.00 PKD
ROOT
HETATM    1  N   UNL     1     -10.860   8.222  68.444  1.00  0.00    -0.437 NA 
HETATM    2  H1  UNL     1     -11.684   7.890  68.943  1.00  0.00     0.000 HD 
HETATM    3  H2  UNL     1     -10.829   9.241  68.430  1.00  0.00     0.000 HD 
HETATM    4  CA  UNL     1     -10.752   7.665  67.057  1.00  0.00    -0.270 C  
HETATM    5  C   UNL     1     -10.703   6.131  67.156  1.00  0.00    -0.346 C  
HETATM    6  OXT UNL     1     -10.479   5.373  66.229  1.00  0.00    -0.243 OA 
HETATM    7  O   UNL     1     -10.949   5.713  68.426  1.00  0.00    -0.176 OA 
ENDROOT
BRANCH   4   8
HETATM    8  C   UNL     1      -9.508   8.167  66.302  1.00  0.00    -0.259 C  
BRANCH   8   9
HETATM    9  C   UNL     1      -9.406   9.674  66.278  1.00  0.00    -0.238 A  
HETATM   10  C   UNL     1      -8.468  10.346  67.067  1.00  0.00    -0.127 A  
HETATM   11  C   UNL     1      -8.421  11.747  67.072  1.00  0.00    -0.175 A  
HETATM   12  I   UNL     1      -7.034  12.640  68.385  1.00  0.00    -0.123 I  
HETATM   13  C   UNL     1      -9.312  12.514  66.295  1.00  0.00    -0.177 A  
HETATM   14  C   UNL     1     -10.310  11.833  65.576  1.00  0.00    -0.262 A  
HETATM   15  C   UNL     1     -10.313  10.428  65.526  1.00  0.00    -0.265 A  
HETATM   16  I   UNL     1     -12.024  12.728  64.718  1.00  0.00    -0.548 I  
BRANCH  13  17
HETATM   17  O   UNL     1      -9.197  13.879  66.434  1.00  0.00    -0.242 OA 
BRANCH  17  18
HETATM   18  C   UNL     1      -9.912  14.580  67.376  1.00  0.00    -0.227 A  
HETATM   19  C   UNL     1      -9.647  15.953  67.381  1.00  0.00    -0.221 A  
HETATM   20  C   UNL     1     -10.175  16.763  68.386  1.00  0.00    -0.296 A  
HETATM   21  I   UNL     1      -9.696  18.795  68.370  1.00  0.00    -0.483 I  
HETATM   22  C   UNL     1     -10.972  16.204  69.389  1.00  0.00    -0.333 A  
HETATM   23  C   UNL     1     -11.305  14.845  69.328  1.00  0.00    -0.296 A  
HETATM   24  O   UNL     1     -11.409  16.963  70.441  1.00  0.00    -0.398 OA 
HETATM   25  H   UNL     1     -11.950  16.583  71.123  1.00  0.00     0.000 HD 
HETATM   26  I   UNL     1     -12.451  13.928  70.822  1.00  0.00    -0.363 I  
HETATM   27  C   UNL     1     -10.812  14.039  68.293  1.00  0.00    -0.268 A  
ENDBRANCH  17  18
ENDBRANCH  13  17
ENDBRANCH   8   9
ENDBRANCH   4   8
TORSDOF 4
ENDMDL
MODEL       49
REMARK 921   NORMALIZED FREE ENERGY PREDICTED BY IDOCK:   -5.22 KCAL/MOL
REMARK 922        TOTAL FREE ENERGY PREDICTED BY IDOCK:   -7.26 KCAL/MOL
REMARK 923 INTER-LIGAND FREE ENERGY PREDICTED BY IDOCK:   -6.62 KCAL/MOL
REMARK 924 INTRA-LIGAND FREE ENERGY PREDICTED BY IDOCK:   -0.64 KCAL/MOL
REMARK 927      BINDING AFFINITY PREDICTED BY RF-SCORE:    0.00 PKD
ROOT
HETATM    1  N   UNL     1     -11.294   4.102  64.853  1.00  0.00    -0.967 NA 
HETATM    2  H1  UNL     1     -11.095   3.771  63.909  1.00  0.00     0.000 HD 
HETATM    3  H2  UNL     1     -11.960   4.873  64.836  1.00  0.00     0.000 HD 
HETATM    4  CA  UNL     1     -10.059   4.479  65.613  1.00  0.00    -0.244 C  
HETATM    5  C   UNL     1      -9.143   3.245  65.688  1.00  0.00    -0.152 C  
HETATM    6  OXT UNL     1      -8.124   3.165  66.350  1.00  0.00    -0.083 OA 
HETATM    7  O   UNL     1      -9.614   2.236  64.908  1.00  0.00    -0.094 OA 
ENDROOT
BRANCH   4   8
HETATM    8  C   UNL     1     -10.359   4.978  67.038  1.00  0.00    -0.242 C  
BRANCH   8   9
HETATM    9  C   UNL     1     -10.091   6.454  67.210  1.00  0.00    -0.207 A  
HETATM   10  C   UNL     1      -9.235   7.138  66.342  1.00  0.00    -0.196 A  
HETATM   11  C   UNL     1      -8.956   8.496  66.546  1.00  0.00    -0.161 A  
HETATM   12  I   UNL     1      -7.567   9.383  65.230  1.00  0.00    -0.123 I  
HETATM   13  C   UNL     1      -9.518   9.207  67.626  1.00  0.00    -0.140 A  
HETATM   14  C   UNL     1     -10.303   8.490  68.545  1.00  0.00    -0.198 A  
HETATM   15  C   UNL     1     -10.629   7.144  68.301  1.00  0.00    -0.230 A  
HETATM   16  I   UNL     1     -10.876   9.180  70.462  1.00  0.00    -0.380 I  
BRANCH  13  17
HETATM   17  O   UNL     1      -9.118  10.518  67.745  1.00  0.00    -0.137 OA 
BRANCH  17  18
HETATM   18  C   UNL     1      -9.911  11.564  67.336  1.00  0.00    -0.186 A  
HETATM   19  C   UNL     1     -10.289  12.426  68.369  1.00  0.00    -0.236 A  
HETATM   20  C   UNL     1     -11.222  13.435  68.132  1.00  0.00    -0.273 A  
HETATM   21  I   UNL     1     -11.789  14.653  69.731  1.00  0.00    -0.404 I  
HETATM   22  C   UNL     1     -11.778  13.588  66.859  1.00  0.00    -0.384 A  
HETATM   23  C   UNL     1     -11.328  12.779  65.807  1.00  0.00    -0.320 A  
HETATM   24  O   UNL     1     -12.772  14.502  66.634  1.00  0.00    -0.423 OA 
HETATM   25  H   UNL     1     -13.151  14.606  65.768  1.00  0.00     0.000 HD 
HETATM   26  I   UNL     1     -12.152  12.917  63.887  1.00  0.00    -0.563 I  
HETATM   27  C   UNL     1     -10.358  11.794  66.035  1.00  0.00    -0.276 A  
ENDBRANCH  17  18
ENDBRANCH  13  17
ENDBRANCH   8   9
ENDBRANCH   4   8
TORSDOF 4
ENDMDL
MODEL       50
REMARK 921   NORMALIZED FREE ENERGY PREDICTED BY IDOCK:   -5.22 KCAL/MOL
REMARK 922        TOTAL FREE ENERGY PREDICTED BY IDOCK:   -7.26 KCAL/MOL
REMARK 923 INTER-LIGAND FREE ENERGY PREDICTED BY IDOCK:   -7.17 KCAL/MOL
REMARK 924 INTRA-LIGAND FREE ENERGY PREDICTED BY IDOCK:   -0.08 KCAL/MOL
REMARK 927      BINDING AFFINITY PREDICTED BY RF-SCORE:    0.00 PKD
ROOT
HETATM    1  N   UNL     1      -7.460   6.138  72.319  1.00  0.00    -0.094 NA 
HETATM    2  H1  UNL     1      -7.154   5.171  72.213  1.00  0.00     0.000 HD 
HETATM    3  H2  UNL     1      -6.673   6.780  72.236  1.00  0.00     0.000 HD 
HETATM    4  CA  UNL     1      -8.212   6.376  73.594  1.00  0.00    -0.112 C  
HETATM    5  C   UNL     1      -9.440   5.449  73.610  1.00  0.00    -0.137 C  
HETATM    6  OXT UNL     1     -10.336   5.484  74.433  1.00  0.00    -0.264 OA 
HETATM    7  O   UNL     1      -9.402   4.566  72.577  1.00  0.00    -0.128 OA 
ENDROOT
BRANCH   4   8
HETATM    8  C   UNL     1      -8.673   7.836  73.756  1.00  0.00    -0.318 C  
BRANCH   8   9
HETATM    9  C   UNL     1      -9.421   8.351  72.549  1.00  0.00    -0.360 A  
HETATM   10  C   UNL     1      -8.742   8.925  71.470  1.00  0.00    -0.232 A  
HETATM   11  C   UNL     1      -9.454   9.445  70.381  1.00  0.00    -0.268 A  
HETATM   12  I   UNL     1      -8.318  10.378  68.869  1.00  0.00    -0.147 I  
HETATM   13  C   UNL     1     -10.863   9.413  70.342  1.00  0.00    -0.269 A  
HETATM   14  C   UNL     1     -11.539   8.918  71.471  1.00  0.00    -0.318 A  
HETATM   15  C   UNL     1     -10.820   8.342  72.532  1.00  0.00    -0.421 A  
HETATM   16  I   UNL     1     -13.602   9.174  71.868  1.00  0.00    -0.494 I  
BRANCH  13  17
HETATM   17  O   UNL     1     -11.440  10.008  69.243  1.00  0.00    -0.168 OA 
BRANCH  17  18
HETATM   18  C   UNL     1     -11.739  11.349  69.211  1.00  0.00    -0.337 A  
HETATM   19  C   UNL     1     -11.751  11.896  67.924  1.00  0.00    -0.368 A  
HETATM   20  C   UNL     1     -11.878  13.273  67.751  1.00  0.00    -0.353 A  
HETATM   21  I   UNL     1     -11.830  14.034  65.807  1.00  0.00    -0.463 I  
HETATM   22  C   UNL     1     -11.999  14.110  68.864  1.00  0.00    -0.341 A  
HETATM   23  C   UNL     1     -12.077  13.548  70.145  1.00  0.00    -0.354 A  
HETATM   24  O   UNL     1     -12.017  15.471  68.719  1.00  0.00    -0.500 OA 
HETATM   25  H   UNL     1     -12.099  16.041  69.476  1.00  0.00     0.000 HD 
HETATM   26  I   UNL     1     -12.205  14.741  71.862  1.00  0.00    -0.343 I  
HETATM   27  C   UNL     1     -11.993  12.160  70.317  1.00  0.00    -0.389 A  
ENDBRANCH  17  18
ENDBRANCH  13  17
ENDBRANCH   8   9
ENDBRANCH   4   8
TORSDOF 4
ENDMDL
MODEL       51
REMARK 921   NORMALIZED FREE ENERGY PREDICTED BY IDOCK:   -5.21 KCAL/MOL
REMARK 922        TOTAL FREE ENERGY PREDICTED BY IDOCK:   -7.25 KCAL/MOL
REMARK 923 INTER-LIGAND FREE ENERGY PREDICTED BY IDOCK:   -6.56 KCAL/MOL
REMARK 924 INTRA-LIGAND FREE ENERGY PREDICTED BY IDOCK:   -0.69 KCAL/MOL
REMARK 927      BINDING AFFINITY PREDICTED BY RF-SCORE:    0.00 PKD
ROOT
HETATM    1  N   UNL     1     -12.408  12.413  70.918  1.00  0.00    -0.379 NA 
HETATM    2  H1  UNL     1     -12.378  11.965  71.834  1.00  0.00     0.000 HD 
HETATM    3  H2  UNL     1     -11.707  12.013  70.294  1.00  0.00     0.000 HD 
HETATM    4  CA  UNL     1     -12.270  13.903  70.992  1.00  0.00    -0.342 C  
HETATM    5  C   UNL     1     -13.413  14.450  71.863  1.00  0.00    -0.393 C  
HETATM    6  OXT UNL     1     -13.679  15.629  72.016  1.00  0.00    -0.476 OA 
HETATM    7  O   UNL     1     -14.104  13.441  72.458  1.00  0.00    -0.726 OA 
ENDROOT
BRANCH   4   8
HETATM    8  C   UNL     1     -12.314  14.580  69.609  1.00  0.00    -0.284 C  
BRANCH   8   9
HETATM    9  C   UNL     1     -11.485  13.855  68.576  1.00  0.00    -0.346 A  
HETATM   10  C   UNL     1     -10.099  13.743  68.713  1.00  0.00    -0.141 A  
HETATM   11  C   UNL     1      -9.338  13.112  67.719  1.00  0.00    -0.206 A  
HETATM   12  I   UNL     1      -7.247  13.103  67.995  1.00  0.00    -0.187 I  
HETATM   13  C   UNL     1      -9.938  12.584  66.559  1.00  0.00    -0.244 A  
HETATM   14  C   UNL     1     -11.319  12.782  66.387  1.00  0.00    -0.323 A  
HETATM   15  C   UNL     1     -12.086  13.360  67.414  1.00  0.00    -0.338 A  
HETATM   16  I   UNL     1     -12.375  12.512  64.573  1.00  0.00    -0.373 I  
BRANCH  13  17
HETATM   17  O   UNL     1      -9.072  12.042  65.636  1.00  0.00    -0.087 OA 
BRANCH  17  18
HETATM   18  C   UNL     1      -8.855  10.688  65.545  1.00  0.00    -0.188 A  
HETATM   19  C   UNL     1      -7.993  10.321  64.507  1.00  0.00    -0.133 A  
HETATM   20  C   UNL     1      -7.809   8.975  64.193  1.00  0.00    -0.132 A  
HETATM   21  I   UNL     1      -6.554   8.496  62.594  1.00  0.00    -0.089 I  
HETATM   22  C   UNL     1      -8.483   7.989  64.919  1.00  0.00    -0.048 A  
HETATM   23  C   UNL     1      -9.275   8.359  66.014  1.00  0.00    -0.187 A  
HETATM   24  O   UNL     1      -8.398   6.672  64.556  1.00  0.00    -0.300 OA 
HETATM   25  H   UNL     1      -8.857   6.001  65.050  1.00  0.00     0.000 HD 
HETATM   26  I   UNL     1     -10.355   6.942  67.115  1.00  0.00    -0.394 I  
HETATM   27  C   UNL     1      -9.425   9.708  66.358  1.00  0.00    -0.244 A  
ENDBRANCH  17  18
ENDBRANCH  13  17
ENDBRANCH   8   9
ENDBRANCH   4   8
TORSDOF 4
ENDMDL
MODEL       52
REMARK 921   NORMALIZED FREE ENERGY PREDICTED BY IDOCK:   -5.20 KCAL/MOL
REMARK 922        TOTAL FREE ENERGY PREDICTED BY IDOCK:   -7.24 KCAL/MOL
REMARK 923 INTER-LIGAND FREE ENERGY PREDICTED BY IDOCK:   -6.72 KCAL/MOL
REMARK 924 INTRA-LIGAND FREE ENERGY PREDICTED BY IDOCK:   -0.52 KCAL/MOL
REMARK 927      BINDING AFFINITY PREDICTED BY RF-SCORE:    0.00 PKD
ROOT
HETATM    1  N   UNL     1     -10.944  15.296  65.607  1.00  0.00    -0.343 NA 
HETATM    2  H1  UNL     1     -10.576  15.480  64.674  1.00  0.00     0.000 HD 
HETATM    3  H2  UNL     1     -10.273  15.568  66.324  1.00  0.00     0.000 HD 
HETATM    4  CA  UNL     1     -11.378  13.873  65.793  1.00  0.00    -0.307 C  
HETATM    5  C   UNL     1     -12.460  13.558  64.746  1.00  0.00    -0.355 C  
HETATM    6  OXT UNL     1     -13.123  12.537  64.707  1.00  0.00    -0.853 OA 
HETATM    7  O   UNL     1     -12.587  14.572  63.850  1.00  0.00    -0.827 OA 
ENDROOT
BRANCH   4   8
HETATM    8  C   UNL     1     -11.934  13.594  67.202  1.00  0.00    -0.434 C  
BRANCH   8   9
HETATM    9  C   UNL     1     -11.169  12.515  67.931  1.00  0.00    -0.312 A  
HETATM   10  C   UNL     1     -11.789  11.722  68.901  1.00  0.00    -0.381 A  
HETATM   11  C   UNL     1     -11.052  10.760  69.605  1.00  0.00    -0.279 A  
HETATM   12  I   UNL     1     -12.078   9.705  71.115  1.00  0.00    -0.482 I  
HETATM   13  C   UNL     1      -9.676  10.568  69.365  1.00  0.00    -0.164 A  
HETATM   14  C   UNL     1      -9.043  11.432  68.454  1.00  0.00    -0.179 A  
HETATM   15  C   UNL     1      -9.798  12.352  67.707  1.00  0.00    -0.203 A  
HETATM   16  I   UNL     1      -6.950  11.670  68.252  1.00  0.00    -0.097 I  
BRANCH  13  17
HETATM   17  O   UNL     1      -9.059   9.632  70.163  1.00  0.00    -0.222 OA 
BRANCH  17  18
HETATM   18  C   UNL     1      -8.886   8.329  69.762  1.00  0.00    -0.142 A  
HETATM   19  C   UNL     1      -8.615   8.188  68.398  1.00  0.00    -0.130 A  
HETATM   20  C   UNL     1      -8.577   6.920  67.819  1.00  0.00    -0.122 A  
HETATM   21  I   UNL     1      -8.225   6.780  65.766  1.00  0.00    -0.131 I  
HETATM   22  C   UNL     1      -8.807   5.786  68.604  1.00  0.00    -0.110 A  
HETATM   23  C   UNL     1      -8.990   5.929  69.985  1.00  0.00    -0.141 A  
HETATM   24  O   UNL     1      -8.880   4.543  68.034  1.00  0.00    -0.102 OA 
HETATM   25  H   UNL     1      -9.037   3.772  68.568  1.00  0.00     0.000 HD 
HETATM   26  I   UNL     1      -9.391   4.281  71.215  1.00  0.00    -0.254 I  
HETATM   27  C   UNL     1      -8.984   7.200  70.575  1.00  0.00    -0.155 A  
ENDBRANCH  17  18
ENDBRANCH  13  17
ENDBRANCH   8   9
ENDBRANCH   4   8
TORSDOF 4
ENDMDL
MODEL       53
REMARK 921   NORMALIZED FREE ENERGY PREDICTED BY IDOCK:   -5.18 KCAL/MOL
REMARK 922        TOTAL FREE ENERGY PREDICTED BY IDOCK:   -7.21 KCAL/MOL
REMARK 923 INTER-LIGAND FREE ENERGY PREDICTED BY IDOCK:   -6.73 KCAL/MOL
REMARK 924 INTRA-LIGAND FREE ENERGY PREDICTED BY IDOCK:   -0.48 KCAL/MOL
REMARK 927      BINDING AFFINITY PREDICTED BY RF-SCORE:    0.00 PKD
ROOT
HETATM    1  N   UNL     1     -10.017   5.496  70.842  1.00  0.00    -0.189 NA 
HETATM    2  H1  UNL     1     -10.461   4.590  70.991  1.00  0.00     0.000 HD 
HETATM    3  H2  UNL     1      -9.384   5.464  70.043  1.00  0.00     0.000 HD 
HETATM    4  CA  UNL     1      -9.314   6.011  72.061  1.00  0.00    -0.149 C  
HETATM    5  C   UNL     1     -10.344   6.130  73.197  1.00  0.00    -0.219 C  
HETATM    6  OXT UNL     1     -10.139   6.645  74.282  1.00  0.00    -0.323 OA 
HETATM    7  O   UNL     1     -11.534   5.577  72.841  1.00  0.00    -0.304 OA 
ENDROOT
BRANCH   4   8
HETATM    8  C   UNL     1      -8.643   7.378  71.836  1.00  0.00    -0.122 C  
BRANCH   8   9
HETATM    9  C   UNL     1      -9.484   8.313  71.001  1.00  0.00    -0.197 A  
HETATM   10  C   UNL     1     -10.588   8.973  71.549  1.00  0.00    -0.415 A  
HETATM   11  C   UNL     1     -11.390   9.797  70.747  1.00  0.00    -0.342 A  
HETATM   12  I   UNL     1     -13.085  10.649  71.667  1.00  0.00    -0.282 I  
HETATM   13  C   UNL     1     -11.115   9.980  69.377  1.00  0.00    -0.223 A  
HETATM   14  C   UNL     1     -10.059   9.242  68.815  1.00  0.00    -0.195 A  
HETATM   15  C   UNL     1      -9.222   8.465  69.636  1.00  0.00    -0.160 A  
HETATM   16  I   UNL     1      -9.724   8.971  66.743  1.00  0.00    -0.351 I  
BRANCH  13  17
HETATM   17  O   UNL     1     -12.012  10.769  68.692  1.00  0.00    -0.449 OA 
BRANCH  17  18
HETATM   18  C   UNL     1     -11.648  11.968  68.127  1.00  0.00    -0.340 A  
HETATM   19  C   UNL     1     -11.884  12.040  66.751  1.00  0.00    -0.244 A  
HETATM   20  C   UNL     1     -11.417  13.130  66.017  1.00  0.00    -0.335 A  
HETATM   21  I   UNL     1     -11.753  13.151  63.956  1.00  0.00    -0.494 I  
HETATM   22  C   UNL     1     -10.714  14.154  66.657  1.00  0.00    -0.289 A  
HETATM   23  C   UNL     1     -10.559  14.119  68.049  1.00  0.00    -0.239 A  
HETATM   24  O   UNL     1     -10.157  15.177  65.938  1.00  0.00    -0.281 OA 
HETATM   25  H   UNL     1      -9.678  15.874  66.373  1.00  0.00     0.000 HD 
HETATM   26  I   UNL     1      -9.473  15.591  69.070  1.00  0.00    -0.279 I  
HETATM   27  C   UNL     1     -11.067  13.046  68.793  1.00  0.00    -0.311 A  
ENDBRANCH  17  18
ENDBRANCH  13  17
ENDBRANCH   8   9
ENDBRANCH   4   8
TORSDOF 4
ENDMDL
MODEL       54
REMARK 921   NORMALIZED FREE ENERGY PREDICTED BY IDOCK:   -5.17 KCAL/MOL
REMARK 922        TOTAL FREE ENERGY PREDICTED BY IDOCK:   -7.21 KCAL/MOL
REMARK 923 INTER-LIGAND FREE ENERGY PREDICTED BY IDOCK:   -6.75 KCAL/MOL
REMARK 924 INTRA-LIGAND FREE ENERGY PREDICTED BY IDOCK:   -0.45 KCAL/MOL
REMARK 927      BINDING AFFINITY PREDICTED BY RF-SCORE:    0.00 PKD
ROOT
HETATM    1  N   UNL     1     -11.919  11.866  66.639  1.00  0.00    -0.564 NA 
HETATM    2  H1  UNL     1     -12.549  12.615  66.924  1.00  0.00     0.000 HD 
HETATM    3  H2  UNL     1     -11.301  11.597  67.404  1.00  0.00     0.000 HD 
HETATM    4  CA  UNL     1     -11.131  12.202  65.409  1.00  0.00    -0.317 C  
HETATM    5  C   UNL     1     -12.120  12.497  64.268  1.00  0.00    -0.428 C  
HETATM    6  OXT UNL     1     -11.817  12.669  63.101  1.00  0.00    -0.470 OA 
HETATM    7  O   UNL     1     -13.399  12.549  64.728  1.00  0.00    -0.773 OA 
ENDROOT
BRANCH   4   8
HETATM    8  C   UNL     1     -10.179  11.071  64.977  1.00  0.00    -0.360 C  
BRANCH   8   9
HETATM    9  C   UNL     1      -9.747  10.197  66.130  1.00  0.00    -0.275 A  
HETATM   10  C   UNL     1      -8.765  10.622  67.029  1.00  0.00    -0.128 A  
HETATM   11  C   UNL     1      -8.339   9.778  68.064  1.00  0.00    -0.110 A  
HETATM   12  I   UNL     1      -6.777  10.496  69.285  1.00  0.00    -0.109 I  
HETATM   13  C   UNL     1      -8.876   8.484  68.224  1.00  0.00    -0.142 A  
HETATM   14  C   UNL     1      -9.795   8.032  67.262  1.00  0.00    -0.197 A  
HETATM   15  C   UNL     1     -10.264   8.904  66.264  1.00  0.00    -0.203 A  
HETATM   16  I   UNL     1     -10.395   6.020  66.998  1.00  0.00    -0.391 I  
BRANCH  13  17
HETATM   17  O   UNL     1      -8.330   7.737  69.244  1.00  0.00    -0.132 OA 
BRANCH  17  18
HETATM   18  C   UNL     1      -9.034   7.433  70.384  1.00  0.00    -0.150 A  
HETATM   19  C   UNL     1     -10.200   8.187  70.549  1.00  0.00    -0.207 A  
HETATM   20  C   UNL     1     -10.926   8.102  71.736  1.00  0.00    -0.261 A  
HETATM   21  I   UNL     1     -12.626   9.298  71.942  1.00  0.00    -0.470 I  
HETATM   22  C   UNL     1     -10.492   7.258  72.762  1.00  0.00    -0.260 A  
HETATM   23  C   UNL     1      -9.375   6.439  72.556  1.00  0.00    -0.145 A  
HETATM   24  O   UNL     1     -11.132   7.242  73.973  1.00  0.00    -0.426 OA 
HETATM   25  H   UNL     1     -10.837   6.669  74.671  1.00  0.00     0.000 HD 
HETATM   26  I   UNL     1      -8.637   5.189  74.067  1.00  0.00    -0.105 I  
HETATM   27  C   UNL     1      -8.670   6.492  71.347  1.00  0.00    -0.130 A  
ENDBRANCH  17  18
ENDBRANCH  13  17
ENDBRANCH   8   9
ENDBRANCH   4   8
TORSDOF 4
ENDMDL
MODEL       55
REMARK 921   NORMALIZED FREE ENERGY PREDICTED BY IDOCK:   -5.17 KCAL/MOL
REMARK 922        TOTAL FREE ENERGY PREDICTED BY IDOCK:   -7.20 KCAL/MOL
REMARK 923 INTER-LIGAND FREE ENERGY PREDICTED BY IDOCK:   -6.39 KCAL/MOL
REMARK 924 INTRA-LIGAND FREE ENERGY PREDICTED BY IDOCK:   -0.81 KCAL/MOL
REMARK 927      BINDING AFFINITY PREDICTED BY RF-SCORE:    0.00 PKD
ROOT
HETATM    1  N   UNL     1      -9.282  17.210  67.633  1.00  0.00    -0.236 NA 
HETATM    2  H1  UNL     1      -8.470  17.724  67.291  1.00  0.00     0.000 HD 
HETATM    3  H2  UNL     1      -9.027  16.603  68.411  1.00  0.00     0.000 HD 
HETATM    4  CA  UNL     1      -9.979  16.435  66.556  1.00  0.00    -0.282 C  
HETATM    5  C   UNL     1     -10.424  17.422  65.463  1.00  0.00    -0.101 C  
HETATM    6  OXT UNL     1     -11.137  17.146  64.514  1.00  0.00    -1.105 OA 
HETATM    7  O   UNL     1      -9.914  18.663  65.684  1.00  0.00    -0.455 OA 
ENDROOT
BRANCH   4   8
HETATM    8  C   UNL     1     -11.205  15.659  67.072  1.00  0.00    -0.127 C  
BRANCH   8   9
HETATM    9  C   UNL     1     -11.002  14.163  67.052  1.00  0.00    -0.303 A  
HETATM   10  C   UNL     1     -10.652  13.498  65.873  1.00  0.00    -0.284 A  
HETATM   11  C   UNL     1     -10.517  12.103  65.860  1.00  0.00    -0.254 A  
HETATM   12  I   UNL     1     -10.091  11.213  63.996  1.00  0.00    -0.468 I  
HETATM   13  C   UNL     1     -10.736  11.334  67.020  1.00  0.00    -0.260 A  
HETATM   14  C   UNL     1     -11.176  12.001  68.177  1.00  0.00    -0.260 A  
HETATM   15  C   UNL     1     -11.249  13.405  68.201  1.00  0.00    -0.304 A  
HETATM   16  I   UNL     1     -12.006  11.067  69.884  1.00  0.00    -0.433 I  
BRANCH  13  17
HETATM   17  O   UNL     1     -10.627   9.971  66.858  1.00  0.00    -0.236 OA 
BRANCH  17  18
HETATM   18  C   UNL     1      -9.630   9.241  67.460  1.00  0.00    -0.149 A  
HETATM   19  C   UNL     1     -10.089   8.108  68.138  1.00  0.00    -0.237 A  
HETATM   20  C   UNL     1      -9.214   7.364  68.929  1.00  0.00    -0.142 A  
HETATM   21  I   UNL     1      -9.973   5.717  69.963  1.00  0.00    -0.338 I  
HETATM   22  C   UNL     1      -7.874   7.748  69.041  1.00  0.00    -0.118 A  
HETATM   23  C   UNL     1      -7.401   8.830  68.288  1.00  0.00    -0.087 A  
HETATM   24  O   UNL     1      -7.028   7.094  69.896  1.00  0.00    -0.055 OA 
HETATM   25  H   UNL     1      -6.117   7.355  69.972  1.00  0.00     0.000 HD 
HETATM   26  I   UNL     1      -5.421   9.495  68.445  1.00  0.00    -0.035 I  
HETATM   27  C   UNL     1      -8.271   9.551  67.459  1.00  0.00    -0.121 A  
ENDBRANCH  17  18
ENDBRANCH  13  17
ENDBRANCH   8   9
ENDBRANCH   4   8
TORSDOF 4
ENDMDL
MODEL       56
REMARK 921   NORMALIZED FREE ENERGY PREDICTED BY IDOCK:   -5.12 KCAL/MOL
REMARK 922        TOTAL FREE ENERGY PREDICTED BY IDOCK:   -7.14 KCAL/MOL
REMARK 923 INTER-LIGAND FREE ENERGY PREDICTED BY IDOCK:   -6.61 KCAL/MOL
REMARK 924 INTRA-LIGAND FREE ENERGY PREDICTED BY IDOCK:   -0.52 KCAL/MOL
REMARK 927      BINDING AFFINITY PREDICTED BY RF-SCORE:    0.00 PKD
ROOT
HETATM    1  N   UNL     1     -10.841  18.847  67.311  1.00  0.00    -0.443 NA 
HETATM    2  H1  UNL     1     -10.433  19.347  68.101  1.00  0.00     0.000 HD 
HETATM    3  H2  UNL     1     -11.735  18.428  67.567  1.00  0.00     0.000 HD 
HETATM    4  CA  UNL     1      -9.917  17.822  66.728  1.00  0.00    -0.333 C  
HETATM    5  C   UNL     1      -8.632  18.534  66.272  1.00  0.00    -0.205 C  
HETATM    6  OXT UNL     1      -7.733  18.020  65.632  1.00  0.00    -0.539 OA 
HETATM    7  O   UNL     1      -8.618  19.831  66.680  1.00  0.00    -0.305 OA 
ENDROOT
BRANCH   4   8
HETATM    8  C   UNL     1     -10.533  17.067  65.536  1.00  0.00    -0.181 C  
BRANCH   8   9
HETATM    9  C   UNL     1     -10.821  15.617  65.845  1.00  0.00    -0.297 A  
HETATM   10  C   UNL     1     -11.084  15.198  67.153  1.00  0.00    -0.335 A  
HETATM   11  C   UNL     1     -11.299  13.841  67.431  1.00  0.00    -0.324 A  
HETATM   12  I   UNL     1     -11.580  13.326  69.457  1.00  0.00    -0.220 I  
HETATM   13  C   UNL     1     -11.249  12.866  66.415  1.00  0.00    -0.300 A  
HETATM   14  C   UNL     1     -10.892  13.285  65.121  1.00  0.00    -0.310 A  
HETATM   15  C   UNL     1     -10.740  14.653  64.835  1.00  0.00    -0.447 A  
HETATM   16  I   UNL     1     -10.301  12.006  63.542  1.00  0.00    -0.305 I  
BRANCH  13  17
HETATM   17  O   UNL     1     -11.420  11.565  66.831  1.00  0.00    -0.441 OA 
BRANCH  17  18
HETATM   18  C   UNL     1     -10.368  10.686  66.933  1.00  0.00    -0.236 A  
HETATM   19  C   UNL     1     -10.753   9.342  66.952  1.00  0.00    -0.174 A  
HETATM   20  C   UNL     1      -9.811   8.348  67.214  1.00  0.00    -0.203 A  
HETATM   21  I   UNL     1     -10.460   6.365  67.285  1.00  0.00    -0.474 I  
HETATM   22  C   UNL     1      -8.478   8.694  67.455  1.00  0.00    -0.124 A  
HETATM   23  C   UNL     1      -8.082  10.034  67.347  1.00  0.00    -0.114 A  
HETATM   24  O   UNL     1      -7.563   7.743  67.819  1.00  0.00    -0.107 OA 
HETATM   25  H   UNL     1      -6.656   7.978  67.984  1.00  0.00     0.000 HD 
HETATM   26  I   UNL     1      -6.115  10.632  67.745  1.00  0.00    -0.048 I  
HETATM   27  C   UNL     1      -9.020  11.028  67.039  1.00  0.00    -0.151 A  
ENDBRANCH  17  18
ENDBRANCH  13  17
ENDBRANCH   8   9
ENDBRANCH   4   8
TORSDOF 4
ENDMDL
MODEL       57
REMARK 921   NORMALIZED FREE ENERGY PREDICTED BY IDOCK:   -5.10 KCAL/MOL
REMARK 922        TOTAL FREE ENERGY PREDICTED BY IDOCK:   -7.11 KCAL/MOL
REMARK 923 INTER-LIGAND FREE ENERGY PREDICTED BY IDOCK:   -6.31 KCAL/MOL
REMARK 924 INTRA-LIGAND FREE ENERGY PREDICTED BY IDOCK:   -0.80 KCAL/MOL
REMARK 927      BINDING AFFINITY PREDICTED BY RF-SCORE:    0.00 PKD
ROOT
HETATM    1  N   UNL     1     -10.974  15.258  64.981  1.00  0.00    -0.416 NA 
HETATM    2  H1  UNL     1     -10.606  15.274  64.030  1.00  0.00     0.000 HD 
HETATM    3  H2  UNL     1     -10.306  15.662  65.637  1.00  0.00     0.000 HD 
HETATM    4  CA  UNL     1     -11.396  13.890  65.423  1.00  0.00    -0.309 C  
HETATM    5  C   UNL     1     -12.474  13.380  64.451  1.00  0.00    -0.277 C  
HETATM    6  OXT UNL     1     -13.129  12.364  64.597  1.00  0.00    -0.825 OA 
HETATM    7  O   UNL     1     -12.609  14.214  63.386  1.00  0.00    -0.818 OA 
ENDROOT
BRANCH   4   8
HETATM    8  C   UNL     1     -11.951  13.866  66.859  1.00  0.00    -0.467 C  
BRANCH   8   9
HETATM    9  C   UNL     1     -11.363  12.756  67.696  1.00  0.00    -0.359 A  
HETATM   10  C   UNL     1     -12.116  12.127  68.692  1.00  0.00    -0.146 A  
HETATM   11  C   UNL     1     -11.538  11.135  69.496  1.00  0.00    -0.321 A  
HETATM   12  I   UNL     1     -12.747  10.341  71.031  1.00  0.00    -0.489 I  
HETATM   13  C   UNL     1     -10.193  10.748  69.332  1.00  0.00    -0.160 A  
HETATM   14  C   UNL     1      -9.419  11.449  68.391  1.00  0.00    -0.194 A  
HETATM   15  C   UNL     1     -10.019  12.399  67.546  1.00  0.00    -0.196 A  
HETATM   16  I   UNL     1      -7.307  11.397  68.265  1.00  0.00    -0.111 I  
BRANCH  13  17
HETATM   17  O   UNL     1      -9.734   9.804  70.222  1.00  0.00    -0.248 OA 
BRANCH  17  18
HETATM   18  C   UNL     1      -9.247   8.586  69.810  1.00  0.00    -0.157 A  
HETATM   19  C   UNL     1      -8.145   8.138  70.545  1.00  0.00    -0.104 A  
HETATM   20  C   UNL     1      -7.448   7.002  70.138  1.00  0.00    -0.086 A  
HETATM   21  I   UNL     1      -5.777   6.417  71.246  1.00  0.00    -0.028 I  
HETATM   22  C   UNL     1      -7.852   6.305  68.995  1.00  0.00    -0.109 A  
HETATM   23  C   UNL     1      -9.008   6.707  68.315  1.00  0.00    -0.122 A  
HETATM   24  O   UNL     1      -7.116   5.252  68.521  1.00  0.00    -0.059 OA 
HETATM   25  H   UNL     1      -7.391   4.779  67.743  1.00  0.00     0.000 HD 
HETATM   26  I   UNL     1      -9.644   5.745  66.566  1.00  0.00    -0.152 I  
HETATM   27  C   UNL     1      -9.735   7.823  68.749  1.00  0.00    -0.157 A  
ENDBRANCH  17  18
ENDBRANCH  13  17
ENDBRANCH   8   9
ENDBRANCH   4   8
TORSDOF 4
ENDMDL
MODEL       58
REMARK 921   NORMALIZED FREE ENERGY PREDICTED BY IDOCK:   -5.09 KCAL/MOL
REMARK 922        TOTAL FREE ENERGY PREDICTED BY IDOCK:   -7.11 KCAL/MOL
REMARK 923 INTER-LIGAND FREE ENERGY PREDICTED BY IDOCK:   -6.74 KCAL/MOL
REMARK 924 INTRA-LIGAND FREE ENERGY PREDICTED BY IDOCK:   -0.37 KCAL/MOL
REMARK 927      BINDING AFFINITY PREDICTED BY RF-SCORE:    0.00 PKD
ROOT
HETATM    1  N   UNL     1     -10.819  19.098  66.611  1.00  0.00    -0.352 NA 
HETATM    2  H1  UNL     1     -10.570  19.729  67.373  1.00  0.00     0.000 HD 
HETATM    3  H2  UNL     1     -11.804  18.840  66.660  1.00  0.00     0.000 HD 
HETATM    4  CA  UNL     1      -9.949  17.880  66.552  1.00  0.00    -0.357 C  
HETATM    5  C   UNL     1      -8.490  18.337  66.378  1.00  0.00    -0.244 C  
HETATM    6  OXT UNL     1      -7.544  17.602  66.157  1.00  0.00    -0.323 OA 
HETATM    7  O   UNL     1      -8.379  19.686  66.506  1.00  0.00    -0.299 OA 
ENDROOT
BRANCH   4   8
HETATM    8  C   UNL     1     -10.325  16.927  65.403  1.00  0.00    -0.126 C  
BRANCH   8   9
HETATM    9  C   UNL     1     -10.785  15.574  65.890  1.00  0.00    -0.346 A  
HETATM   10  C   UNL     1     -11.143  15.372  67.226  1.00  0.00    -0.302 A  
HETATM   11  C   UNL     1     -11.517  14.098  67.674  1.00  0.00    -0.338 A  
HETATM   12  I   UNL     1     -11.930  13.904  69.733  1.00  0.00    -0.346 I  
HETATM   13  C   UNL     1     -11.539  12.990  66.802  1.00  0.00    -0.368 A  
HETATM   14  C   UNL     1     -11.090  13.184  65.484  1.00  0.00    -0.278 A  
HETATM   15  C   UNL     1     -10.775  14.475  65.025  1.00  0.00    -0.444 A  
HETATM   16  I   UNL     1     -10.588  11.641  64.126  1.00  0.00    -0.527 I  
BRANCH  13  17
HETATM   17  O   UNL     1     -11.870  11.786  67.381  1.00  0.00    -0.590 OA 
BRANCH  17  18
HETATM   18  C   UNL     1     -10.926  10.829  67.669  1.00  0.00    -0.306 A  
HETATM   19  C   UNL     1      -9.673  11.353  68.004  1.00  0.00    -0.190 A  
HETATM   20  C   UNL     1      -8.579  10.503  68.162  1.00  0.00    -0.123 A  
HETATM   21  I   UNL     1      -6.724  11.352  68.605  1.00  0.00    -0.091 I  
HETATM   22  C   UNL     1      -8.734   9.125  67.989  1.00  0.00    -0.129 A  
HETATM   23  C   UNL     1     -10.009   8.599  67.742  1.00  0.00    -0.190 A  
HETATM   24  O   UNL     1      -7.651   8.288  68.034  1.00  0.00    -0.098 OA 
HETATM   25  H   UNL     1      -7.756   7.350  67.917  1.00  0.00     0.000 HD 
HETATM   26  I   UNL     1     -10.308   6.551  67.421  1.00  0.00    -0.416 I  
HETATM   27  C   UNL     1     -11.117   9.449  67.627  1.00  0.00     0.047 A  
ENDBRANCH  17  18
ENDBRANCH  13  17
ENDBRANCH   8   9
ENDBRANCH   4   8
TORSDOF 4
ENDMDL
MODEL       59
REMARK 921   NORMALIZED FREE ENERGY PREDICTED BY IDOCK:   -5.08 KCAL/MOL
REMARK 922        TOTAL FREE ENERGY PREDICTED BY IDOCK:   -7.10 KCAL/MOL
REMARK 923 INTER-LIGAND FREE ENERGY PREDICTED BY IDOCK:   -6.44 KCAL/MOL
REMARK 924 INTRA-LIGAND FREE ENERGY PREDICTED BY IDOCK:   -0.66 KCAL/MOL
REMARK 927      BINDING AFFINITY PREDICTED BY RF-SCORE:    0.00 PKD
ROOT
HETATM    1  N   UNL     1     -13.141  13.119  71.552  1.00  0.00    -0.353 NA 
HETATM    2  H1  UNL     1     -13.019  12.708  72.478  1.00  0.00     0.000 HD 
HETATM    3  H2  UNL     1     -13.094  12.404  70.827  1.00  0.00     0.000 HD 
HETATM    4  CA  UNL     1     -12.172  14.227  71.273  1.00  0.00    -0.350 C  
HETATM    5  C   UNL     1     -12.363  15.316  72.342  1.00  0.00    -0.373 C  
HETATM    6  OXT UNL     1     -11.834  16.413  72.332  1.00  0.00    -0.533 OA 
HETATM    7  O   UNL     1     -13.207  14.899  73.323  1.00  0.00    -0.494 OA 
ENDROOT
BRANCH   4   8
HETATM    8  C   UNL     1     -12.356  14.848  69.875  1.00  0.00    -0.322 C  
BRANCH   8   9
HETATM    9  C   UNL     1     -11.546  14.145  68.811  1.00  0.00    -0.362 A  
HETATM   10  C   UNL     1     -10.164  13.983  68.946  1.00  0.00    -0.159 A  
HETATM   11  C   UNL     1      -9.421  13.374  67.926  1.00  0.00    -0.216 A  
HETATM   12  I   UNL     1      -7.332  13.286  68.204  1.00  0.00    -0.174 I  
HETATM   13  C   UNL     1     -10.034  12.917  66.742  1.00  0.00    -0.243 A  
HETATM   14  C   UNL     1     -11.407  13.167  66.577  1.00  0.00    -0.315 A  
HETATM   15  C   UNL     1     -12.159  13.722  67.628  1.00  0.00    -0.333 A  
HETATM   16  I   UNL     1     -12.466  13.013  64.751  1.00  0.00    -0.368 I  
BRANCH  13  17
HETATM   17  O   UNL     1      -9.183  12.391  65.797  1.00  0.00    -0.088 OA 
BRANCH  17  18
HETATM   18  C   UNL     1      -9.168  11.051  65.492  1.00  0.00    -0.213 A  
HETATM   19  C   UNL     1      -9.546  10.224  66.554  1.00  0.00    -0.228 A  
HETATM   20  C   UNL     1      -9.423   8.840  66.441  1.00  0.00    -0.228 A  
HETATM   21  I   UNL     1      -9.950   7.663  68.084  1.00  0.00    -0.243 I  
HETATM   22  C   UNL     1      -8.925   8.276  65.263  1.00  0.00     0.045 A  
HETATM   23  C   UNL     1      -8.632   9.104  64.172  1.00  0.00    -0.170 A  
HETATM   24  O   UNL     1      -8.696   6.929  65.174  1.00  0.00    -0.348 OA 
HETATM   25  H   UNL     1      -8.357   6.545  64.373  1.00  0.00     0.000 HD 
HETATM   26  I   UNL     1      -7.834   8.336  62.394  1.00  0.00    -0.159 I  
HETATM   27  C   UNL     1      -8.798  10.492  64.269  1.00  0.00    -0.209 A  
ENDBRANCH  17  18
ENDBRANCH  13  17
ENDBRANCH   8   9
ENDBRANCH   4   8
TORSDOF 4
ENDMDL
MODEL       60
REMARK 921   NORMALIZED FREE ENERGY PREDICTED BY IDOCK:   -5.07 KCAL/MOL
REMARK 922        TOTAL FREE ENERGY PREDICTED BY IDOCK:   -7.08 KCAL/MOL
REMARK 923 INTER-LIGAND FREE ENERGY PREDICTED BY IDOCK:   -6.93 KCAL/MOL
REMARK 924 INTRA-LIGAND FREE ENERGY PREDICTED BY IDOCK:   -0.15 KCAL/MOL
REMARK 927      BINDING AFFINITY PREDICTED BY RF-SCORE:    0.00 PKD
ROOT
HETATM    1  N   UNL     1      -6.993   7.224  67.002  1.00  0.00    -0.079 NA 
HETATM    2  H1  UNL     1      -6.749   6.643  67.805  1.00  0.00     0.000 HD 
HETATM    3  H2  UNL     1      -6.418   8.065  66.973  1.00  0.00     0.000 HD 
HETATM    4  CA  UNL     1      -8.450   7.571  66.953  1.00  0.00    -0.122 C  
HETATM    5  C   UNL     1      -9.256   6.261  66.898  1.00  0.00    -0.130 C  
HETATM    6  OXT UNL     1     -10.457   6.182  66.712  1.00  0.00    -0.225 OA 
HETATM    7  O   UNL     1      -8.452   5.182  67.089  1.00  0.00    -0.107 OA 
ENDROOT
BRANCH   4   8
HETATM    8  C   UNL     1      -8.819   8.448  65.743  1.00  0.00    -0.204 C  
BRANCH   8   9
HETATM    9  C   UNL     1      -9.711   9.609  66.111  1.00  0.00    -0.317 A  
HETATM   10  C   UNL     1     -10.167   9.781  67.421  1.00  0.00    -0.284 A  
HETATM   11  C   UNL     1     -11.036  10.835  67.735  1.00  0.00    -0.318 A  
HETATM   12  I   UNL     1     -11.735  10.921  69.723  1.00  0.00    -0.481 I  
HETATM   13  C   UNL     1     -11.479  11.740  66.750  1.00  0.00    -0.281 A  
HETATM   14  C   UNL     1     -11.089  11.505  65.420  1.00  0.00    -0.186 A  
HETATM   15  C   UNL     1     -10.169  10.485  65.121  1.00  0.00    -0.358 A  
HETATM   16  I   UNL     1     -11.958  12.407  63.715  1.00  0.00    -0.665 I  
BRANCH  13  17
HETATM   17  O   UNL     1     -12.374  12.694  67.179  1.00  0.00    -0.370 OA 
BRANCH  17  18
HETATM   18  C   UNL     1     -11.971  13.831  67.837  1.00  0.00    -0.356 A  
HETATM   19  C   UNL     1     -11.044  14.598  67.126  1.00  0.00    -0.328 A  
HETATM   20  C   UNL     1     -10.426  15.690  67.734  1.00  0.00    -0.273 A  
HETATM   21  I   UNL     1      -9.007  16.760  66.638  1.00  0.00    -0.337 I  
HETATM   22  C   UNL     1     -10.735  16.022  69.056  1.00  0.00    -0.274 A  
HETATM   23  C   UNL     1     -11.730  15.304  69.733  1.00  0.00    -0.323 A  
HETATM   24  O   UNL     1     -10.061  17.022  69.704  1.00  0.00    -0.106 OA 
HETATM   25  H   UNL     1     -10.271  17.248  70.603  1.00  0.00     0.000 HD 
HETATM   26  I   UNL     1     -12.209  15.710  71.731  1.00  0.00    -0.642 I  
HETATM   27  C   UNL     1     -12.383  14.235  69.107  1.00  0.00    -0.165 A  
ENDBRANCH  17  18
ENDBRANCH  13  17
ENDBRANCH   8   9
ENDBRANCH   4   8
TORSDOF 4
ENDMDL
MODEL       61
REMARK 921   NORMALIZED FREE ENERGY PREDICTED BY IDOCK:   -5.05 KCAL/MOL
REMARK 922        TOTAL FREE ENERGY PREDICTED BY IDOCK:   -7.05 KCAL/MOL
REMARK 923 INTER-LIGAND FREE ENERGY PREDICTED BY IDOCK:   -7.03 KCAL/MOL
REMARK 924 INTRA-LIGAND FREE ENERGY PREDICTED BY IDOCK:   -0.02 KCAL/MOL
REMARK 927      BINDING AFFINITY PREDICTED BY RF-SCORE:    0.00 PKD
ROOT
HETATM    1  N   UNL     1     -12.911  14.461  65.044  1.00  0.00    -0.588 NA 
HETATM    2  H1  UNL     1     -13.850  14.438  64.646  1.00  0.00     0.000 HD 
HETATM    3  H2  UNL     1     -12.676  15.398  65.367  1.00  0.00     0.000 HD 
HETATM    4  CA  UNL     1     -11.865  13.939  64.107  1.00  0.00    -0.385 C  
HETATM    5  C   UNL     1     -12.227  12.490  63.739  1.00  0.00    -0.525 C  
HETATM    6  OXT UNL     1     -11.519  11.727  63.107  1.00  0.00    -0.290 OA 
HETATM    7  O   UNL     1     -13.459  12.156  64.208  1.00  0.00    -0.708 OA 
ENDROOT
BRANCH   4   8
HETATM    8  C   UNL     1     -10.448  13.974  64.707  1.00  0.00    -0.445 C  
BRANCH   8   9
HETATM    9  C   UNL     1     -10.324  13.144  65.963  1.00  0.00    -0.292 A  
HETATM   10  C   UNL     1     -11.013  13.492  67.129  1.00  0.00    -0.302 A  
HETATM   11  C   UNL     1     -10.846  12.741  68.300  1.00  0.00    -0.248 A  
HETATM   12  I   UNL     1     -11.857  13.433  70.017  1.00  0.00    -0.148 I  
HETATM   13  C   UNL     1      -9.983  11.627  68.342  1.00  0.00    -0.201 A  
HETATM   14  C   UNL     1      -9.226  11.340  67.193  1.00  0.00    -0.163 A  
HETATM   15  C   UNL     1      -9.443  12.058  66.003  1.00  0.00    -0.229 A  
HETATM   16  I   UNL     1      -7.553  10.046  67.124  1.00  0.00    -0.091 I  
BRANCH  13  17
HETATM   17  O   UNL     1      -9.867  11.012  69.568  1.00  0.00    -0.046 OA 
BRANCH  17  18
HETATM   18  C   UNL     1     -10.418   9.779  69.822  1.00  0.00    -0.250 A  
HETATM   19  C   UNL     1     -11.615   9.832  70.543  1.00  0.00    -0.365 A  
HETATM   20  C   UNL     1     -12.201   8.657  71.012  1.00  0.00    -0.179 A  
HETATM   21  I   UNL     1     -13.958   8.807  72.132  1.00  0.00    -0.397 I  
HETATM   22  C   UNL     1     -11.595   7.423  70.759  1.00  0.00    -0.290 A  
HETATM   23  C   UNL     1     -10.445   7.370  69.961  1.00  0.00    -0.226 A  
HETATM   24  O   UNL     1     -12.098   6.271  71.302  1.00  0.00    -0.242 OA 
HETATM   25  H   UNL     1     -11.685   5.432  71.131  1.00  0.00     0.000 HD 
HETATM   26  I   UNL     1      -9.453   5.564  69.583  1.00  0.00    -0.237 I  
HETATM   27  C   UNL     1      -9.880   8.547  69.452  1.00  0.00    -0.185 A  
ENDBRANCH  17  18
ENDBRANCH  13  17
ENDBRANCH   8   9
ENDBRANCH   4   8
TORSDOF 4
ENDMDL
MODEL       62
REMARK 921   NORMALIZED FREE ENERGY PREDICTED BY IDOCK:   -5.04 KCAL/MOL
REMARK 922        TOTAL FREE ENERGY PREDICTED BY IDOCK:   -7.05 KCAL/MOL
REMARK 923 INTER-LIGAND FREE ENERGY PREDICTED BY IDOCK:   -6.27 KCAL/MOL
REMARK 924 INTRA-LIGAND FREE ENERGY PREDICTED BY IDOCK:   -0.78 KCAL/MOL
REMARK 927      BINDING AFFINITY PREDICTED BY RF-SCORE:    0.00 PKD
ROOT
HETATM    1  N   UNL     1      -9.483   6.113  72.148  1.00  0.00    -0.152 NA 
HETATM    2  H1  UNL     1      -9.633   6.093  73.156  1.00  0.00     0.000 HD 
HETATM    3  H2  UNL     1      -8.514   6.342  71.928  1.00  0.00     0.000 HD 
HETATM    4  CA  UNL     1     -10.425   7.035  71.434  1.00  0.00    -0.208 C  
HETATM    5  C   UNL     1     -11.863   6.574  71.726  1.00  0.00    -0.335 C  
HETATM    6  OXT UNL     1     -12.865   7.017  71.193  1.00  0.00    -0.374 OA 
HETATM    7  O   UNL     1     -11.884   5.598  72.672  1.00  0.00    -0.283 OA 
ENDROOT
BRANCH   4   8
HETATM    8  C   UNL     1     -10.198   7.065  69.912  1.00  0.00    -0.213 C  
BRANCH   8   9
HETATM    9  C   UNL     1      -9.881   8.448  69.394  1.00  0.00    -0.185 A  
HETATM   10  C   UNL     1      -8.619   8.752  68.875  1.00  0.00    -0.136 A  
HETATM   11  C   UNL     1      -8.325  10.054  68.447  1.00  0.00    -0.111 A  
HETATM   12  I   UNL     1      -6.354  10.407  67.786  1.00  0.00    -0.061 I  
HETATM   13  C   UNL     1      -9.279  11.088  68.531  1.00  0.00    -0.177 A  
HETATM   14  C   UNL     1     -10.512  10.794  69.138  1.00  0.00    -0.218 A  
HETATM   15  C   UNL     1     -10.824   9.474  69.508  1.00  0.00    -0.243 A  
HETATM   16  I   UNL     1     -11.919  12.229  69.801  1.00  0.00    -0.127 I  
BRANCH  13  17
HETATM   17  O   UNL     1      -8.844  12.331  68.130  1.00  0.00    -0.178 OA 
BRANCH  17  18
HETATM   18  C   UNL     1      -9.413  12.997  67.071  1.00  0.00    -0.237 A  
HETATM   19  C   UNL     1      -9.353  14.390  67.181  1.00  0.00    -0.226 A  
HETATM   20  C   UNL     1     -10.031  15.193  66.264  1.00  0.00    -0.288 A  
HETATM   21  I   UNL     1      -9.949  17.265  66.516  1.00  0.00    -0.306 I  
HETATM   22  C   UNL     1     -10.769  14.607  65.232  1.00  0.00    -0.381 A  
HETATM   23  C   UNL     1     -10.751  13.216  65.075  1.00  0.00    -0.323 A  
HETATM   24  O   UNL     1     -11.526  15.376  64.389  1.00  0.00    -0.648 OA 
HETATM   25  H   UNL     1     -12.028  14.978  63.687  1.00  0.00     0.000 HD 
HETATM   26  I   UNL     1     -11.874  12.265  63.584  1.00  0.00    -0.592 I  
HETATM   27  C   UNL     1     -10.034  12.410  65.969  1.00  0.00    -0.270 A  
ENDBRANCH  17  18
ENDBRANCH  13  17
ENDBRANCH   8   9
ENDBRANCH   4   8
TORSDOF 4
ENDMDL
MODEL       63
REMARK 921   NORMALIZED FREE ENERGY PREDICTED BY IDOCK:   -5.04 KCAL/MOL
REMARK 922        TOTAL FREE ENERGY PREDICTED BY IDOCK:   -7.04 KCAL/MOL
REMARK 923 INTER-LIGAND FREE ENERGY PREDICTED BY IDOCK:   -6.57 KCAL/MOL
REMARK 924 INTRA-LIGAND FREE ENERGY PREDICTED BY IDOCK:   -0.47 KCAL/MOL
REMARK 927      BINDING AFFINITY PREDICTED BY RF-SCORE:    0.00 PKD
ROOT
HETATM    1  N   UNL     1      -9.922   6.203  71.079  1.00  0.00    -0.182 NA 
HETATM    2  H1  UNL     1      -9.856   5.949  72.065  1.00  0.00     0.000 HD 
HETATM    3  H2  UNL     1      -9.002   6.204  70.641  1.00  0.00     0.000 HD 
HETATM    4  CA  UNL     1     -10.622   7.509  70.857  1.00  0.00    -0.220 C  
HETATM    5  C   UNL     1     -12.037   7.406  71.452  1.00  0.00    -0.327 C  
HETATM    6  OXT UNL     1     -12.916   8.239  71.323  1.00  0.00    -0.261 OA 
HETATM    7  O   UNL     1     -12.190   6.253  72.156  1.00  0.00    -0.328 OA 
ENDROOT
BRANCH   4   8
HETATM    8  C   UNL     1     -10.721   7.892  69.369  1.00  0.00    -0.174 C  
BRANCH   8   9
HETATM    9  C   UNL     1     -10.286   9.313  69.100  1.00  0.00    -0.222 A  
HETATM   10  C   UNL     1     -11.106  10.394  69.438  1.00  0.00    -0.304 A  
HETATM   11  C   UNL     1     -10.710  11.704  69.134  1.00  0.00    -0.145 A  
HETATM   12  I   UNL     1     -12.082  13.236  69.599  1.00  0.00    -0.106 I  
HETATM   13  C   UNL     1      -9.491  11.970  68.479  1.00  0.00    -0.133 A  
HETATM   14  C   UNL     1      -8.718  10.872  68.062  1.00  0.00    -0.132 A  
HETATM   15  C   UNL     1      -9.088   9.565  68.423  1.00  0.00    -0.127 A  
HETATM   16  I   UNL     1      -7.114  10.962  66.684  1.00  0.00    -0.114 I  
BRANCH  13  17
HETATM   17  O   UNL     1      -9.249  13.294  68.189  1.00  0.00    -0.203 OA 
BRANCH  17  18
HETATM   18  C   UNL     1      -9.715  13.887  67.040  1.00  0.00    -0.250 A  
HETATM   19  C   UNL     1      -9.607  15.281  67.038  1.00  0.00    -0.233 A  
HETATM   20  C   UNL     1     -10.186  16.026  66.012  1.00  0.00    -0.341 A  
HETATM   21  I   UNL     1     -10.039  18.107  66.098  1.00  0.00    -0.108 I  
HETATM   22  C   UNL     1     -10.873  15.380  64.980  1.00  0.00    -0.444 A  
HETATM   23  C   UNL     1     -10.901  13.980  64.941  1.00  0.00    -0.410 A  
HETATM   24  O   UNL     1     -11.538  16.100  64.024  1.00  0.00    -1.235 OA 
HETATM   25  H   UNL     1     -12.006  15.660  63.322  1.00  0.00     0.000 HD 
HETATM   26  I   UNL     1     -11.954  12.945  63.455  1.00  0.00    -0.273 I  
HETATM   27  C   UNL     1     -10.281  13.229  65.948  1.00  0.00    -0.295 A  
ENDBRANCH  17  18
ENDBRANCH  13  17
ENDBRANCH   8   9
ENDBRANCH   4   8
TORSDOF 4
ENDMDL
MODEL       64
REMARK 921   NORMALIZED FREE ENERGY PREDICTED BY IDOCK:   -5.03 KCAL/MOL
REMARK 922        TOTAL FREE ENERGY PREDICTED BY IDOCK:   -7.02 KCAL/MOL
REMARK 923 INTER-LIGAND FREE ENERGY PREDICTED BY IDOCK:   -6.65 KCAL/MOL
REMARK 924 INTRA-LIGAND FREE ENERGY PREDICTED BY IDOCK:   -0.38 KCAL/MOL
REMARK 927      BINDING AFFINITY PREDICTED BY RF-SCORE:    0.00 PKD
ROOT
HETATM    1  N   UNL     1     -11.464   4.219  64.774  1.00  0.00    -0.992 NA 
HETATM    2  H1  UNL     1     -11.173   3.941  63.837  1.00  0.00     0.000 HD 
HETATM    3  H2  UNL     1     -12.200   4.923  64.733  1.00  0.00     0.000 HD 
HETATM    4  CA  UNL     1     -10.324   4.687  65.626  1.00  0.00    -0.238 C  
HETATM    5  C   UNL     1      -9.299   3.545  65.730  1.00  0.00    -0.157 C  
HETATM    6  OXT UNL     1      -8.322   3.540  66.457  1.00  0.00    -0.099 OA 
HETATM    7  O   UNL     1      -9.617   2.522  64.892  1.00  0.00    -0.118 OA 
ENDROOT
BRANCH   4   8
HETATM    8  C   UNL     1     -10.764   5.106  67.041  1.00  0.00    -0.103 C  
BRANCH   8   9
HETATM    9  C   UNL     1     -10.452   6.552  67.347  1.00  0.00    -0.314 A  
HETATM   10  C   UNL     1      -9.886   7.388  66.379  1.00  0.00    -0.137 A  
HETATM   11  C   UNL     1      -9.555   8.713  66.695  1.00  0.00    -0.221 A  
HETATM   12  I   UNL     1      -8.611   9.836  65.180  1.00  0.00    -0.241 I  
HETATM   13  C   UNL     1      -9.772   9.237  67.985  1.00  0.00    -0.150 A  
HETATM   14  C   UNL     1     -10.255   8.363  68.975  1.00  0.00    -0.207 A  
HETATM   15  C   UNL     1     -10.644   7.055  68.638  1.00  0.00    -0.238 A  
HETATM   16  I   UNL     1     -10.236   8.746  71.056  1.00  0.00    -0.386 I  
BRANCH  13  17
HETATM   17  O   UNL     1      -9.350  10.533  68.179  1.00  0.00    -0.142 OA 
BRANCH  17  18
HETATM   18  C   UNL     1     -10.231  11.586  68.244  1.00  0.00    -0.196 A  
HETATM   19  C   UNL     1     -10.233  12.394  67.104  1.00  0.00    -0.226 A  
HETATM   20  C   UNL     1     -10.954  13.588  67.094  1.00  0.00    -0.291 A  
HETATM   21  I   UNL     1     -10.870  14.779  65.381  1.00  0.00    -0.465 I  
HETATM   22  C   UNL     1     -11.680  13.975  68.224  1.00  0.00    -0.357 A  
HETATM   23  C   UNL     1     -11.746  13.118  69.330  1.00  0.00    -0.321 A  
HETATM   24  O   UNL     1     -12.306  15.193  68.270  1.00  0.00    -0.538 OA 
HETATM   25  H   UNL     1     -12.799  15.457  69.039  1.00  0.00     0.000 HD 
HETATM   26  I   UNL     1     -12.771  13.656  71.076  1.00  0.00    -0.246 I  
HETATM   27  C   UNL     1     -11.058  11.898  69.323  1.00  0.00    -0.264 A  
ENDBRANCH  17  18
ENDBRANCH  13  17
ENDBRANCH   8   9
ENDBRANCH   4   8
TORSDOF 4
ENDMDL
MODEL       65
REMARK 921   NORMALIZED FREE ENERGY PREDICTED BY IDOCK:   -5.02 KCAL/MOL
REMARK 922        TOTAL FREE ENERGY PREDICTED BY IDOCK:   -7.02 KCAL/MOL
REMARK 923 INTER-LIGAND FREE ENERGY PREDICTED BY IDOCK:   -6.77 KCAL/MOL
REMARK 924 INTRA-LIGAND FREE ENERGY PREDICTED BY IDOCK:   -0.25 KCAL/MOL
REMARK 927      BINDING AFFINITY PREDICTED BY RF-SCORE:    0.00 PKD
ROOT
HETATM    1  N   UNL     1      -9.836   9.860  70.749  1.00  0.00    -0.306 NA 
HETATM    2  H1  UNL     1      -9.134   9.688  71.468  1.00  0.00     0.000 HD 
HETATM    3  H2  UNL     1      -9.609  10.694  70.210  1.00  0.00     0.000 HD 
HETATM    4  CA  UNL     1     -11.228   9.940  71.297  1.00  0.00    -0.286 C  
HETATM    5  C   UNL     1     -11.543   8.614  72.010  1.00  0.00    -0.370 C  
HETATM    6  OXT UNL     1     -12.633   8.291  72.447  1.00  0.00    -0.331 OA 
HETATM    7  O   UNL     1     -10.436   7.830  72.100  1.00  0.00    -0.208 OA 
ENDROOT
BRANCH   4   8
HETATM    8  C   UNL     1     -12.288  10.199  70.211  1.00  0.00    -0.211 C  
BRANCH   8   9
HETATM    9  C   UNL     1     -11.900  11.312  69.267  1.00  0.00    -0.423 A  
HETATM   10  C   UNL     1     -11.471  11.036  67.965  1.00  0.00    -0.365 A  
HETATM   11  C   UNL     1     -11.064  12.077  67.119  1.00  0.00    -0.290 A  
HETATM   12  I   UNL     1     -10.338  11.519  65.219  1.00  0.00    -0.352 I  
HETATM   13  C   UNL     1     -11.069  13.419  67.550  1.00  0.00    -0.274 A  
HETATM   14  C   UNL     1     -11.414  13.676  68.888  1.00  0.00    -0.303 A  
HETATM   15  C   UNL     1     -11.880  12.637  69.713  1.00  0.00    -0.379 A  
HETATM   16  I   UNL     1     -11.068  15.496  69.910  1.00  0.00    -0.431 I  
BRANCH  13  17
HETATM   17  O   UNL     1     -10.593  14.336  66.641  1.00  0.00    -0.275 OA 
BRANCH  17  18
HETATM   18  C   UNL     1      -9.333  14.876  66.740  1.00  0.00    -0.250 A  
HETATM   19  C   UNL     1      -8.396  14.025  67.333  1.00  0.00    -0.207 A  
HETATM   20  C   UNL     1      -7.122  14.496  67.646  1.00  0.00    -0.183 A  
HETATM   21  I   UNL     1      -5.788  13.191  68.584  1.00  0.00    -0.101 I  
HETATM   22  C   UNL     1      -6.777  15.821  67.363  1.00  0.00    -0.194 A  
HETATM   23  C   UNL     1      -7.689  16.642  66.688  1.00  0.00    -0.281 A  
HETATM   24  O   UNL     1      -5.570  16.330  67.760  1.00  0.00    -0.119 OA 
HETATM   25  H   UNL     1      -5.335  17.231  67.568  1.00  0.00     0.000 HD 
HETATM   26  I   UNL     1      -7.262  18.651  66.278  1.00  0.00    -0.281 I  
HETATM   27  C   UNL     1      -8.954  16.156  66.334  1.00  0.00    -0.353 A  
ENDBRANCH  17  18
ENDBRANCH  13  17
ENDBRANCH   8   9
ENDBRANCH   4   8
TORSDOF 4
ENDMDL
MODEL       66
REMARK 921   NORMALIZED FREE ENERGY PREDICTED BY IDOCK:   -5.01 KCAL/MOL
REMARK 922        TOTAL FREE ENERGY PREDICTED BY IDOCK:   -7.01 KCAL/MOL
REMARK 923 INTER-LIGAND FREE ENERGY PREDICTED BY IDOCK:   -6.34 KCAL/MOL
REMARK 924 INTRA-LIGAND FREE ENERGY PREDICTED BY IDOCK:   -0.67 KCAL/MOL
REMARK 927      BINDING AFFINITY PREDICTED BY RF-SCORE:    0.00 PKD
ROOT
HETATM    1  N   UNL     1      -9.981  17.269  68.336  1.00  0.00    -0.302 NA 
HETATM    2  H1  UNL     1      -9.102  17.753  68.157  1.00  0.00     0.000 HD 
HETATM    3  H2  UNL     1     -10.067  17.022  69.322  1.00  0.00     0.000 HD 
HETATM    4  CA  UNL     1     -10.173  16.064  67.465  1.00  0.00    -0.275 C  
HETATM    5  C   UNL     1     -10.133  16.520  65.997  1.00  0.00    -0.348 C  
HETATM    6  OXT UNL     1     -10.392  15.818  65.035  1.00  0.00    -0.468 OA 
HETATM    7  O   UNL     1      -9.762  17.824  65.897  1.00  0.00    -0.528 OA 
ENDROOT
BRANCH   4   8
HETATM    8  C   UNL     1     -11.500  15.332  67.736  1.00  0.00    -0.312 C  
BRANCH   8   9
HETATM    9  C   UNL     1     -11.301  13.899  68.169  1.00  0.00    -0.324 A  
HETATM   10  C   UNL     1     -10.721  12.960  67.311  1.00  0.00    -0.260 A  
HETATM   11  C   UNL     1     -10.590  11.623  67.710  1.00  0.00    -0.194 A  
HETATM   12  I   UNL     1      -9.797  10.287  66.285  1.00  0.00    -0.305 I  
HETATM   13  C   UNL     1     -11.041  11.185  68.971  1.00  0.00    -0.242 A  
HETATM   14  C   UNL     1     -11.706  12.116  69.789  1.00  0.00    -0.310 A  
HETATM   15  C   UNL     1     -11.778  13.468  69.411  1.00  0.00    -0.381 A  
HETATM   16  I   UNL     1     -12.868  11.635  71.491  1.00  0.00    -0.033 I  
BRANCH  13  17
HETATM   17  O   UNL     1     -10.905   9.837  69.215  1.00  0.00    -0.219 OA 
BRANCH  17  18
HETATM   18  C   UNL     1     -10.104   9.354  70.222  1.00  0.00    -0.240 A  
HETATM   19  C   UNL     1      -8.748   9.656  70.061  1.00  0.00    -0.256 A  
HETATM   20  C   UNL     1      -7.801   9.094  70.915  1.00  0.00    -0.132 A  
HETATM   21  I   UNL     1      -5.787   9.539  70.587  1.00  0.00    -0.085 I  
HETATM   22  C   UNL     1      -8.205   8.231  71.938  1.00  0.00    -0.149 A  
HETATM   23  C   UNL     1      -9.571   8.004  72.149  1.00  0.00    -0.215 A  
HETATM   24  O   UNL     1      -7.281   7.587  72.717  1.00  0.00    -0.067 OA 
HETATM   25  H   UNL     1      -7.556   7.000  73.412  1.00  0.00     0.000 HD 
HETATM   26  I   UNL     1     -10.248   6.682  73.627  1.00  0.00    -0.378 I  
HETATM   27  C   UNL     1     -10.526   8.603  71.318  1.00  0.00    -0.311 A  
ENDBRANCH  17  18
ENDBRANCH  13  17
ENDBRANCH   8   9
ENDBRANCH   4   8
TORSDOF 4
ENDMDL
MODEL       67
REMARK 921   NORMALIZED FREE ENERGY PREDICTED BY IDOCK:   -5.01 KCAL/MOL
REMARK 922        TOTAL FREE ENERGY PREDICTED BY IDOCK:   -7.00 KCAL/MOL
REMARK 923 INTER-LIGAND FREE ENERGY PREDICTED BY IDOCK:   -7.26 KCAL/MOL
REMARK 924 INTRA-LIGAND FREE ENERGY PREDICTED BY IDOCK:    0.26 KCAL/MOL
REMARK 927      BINDING AFFINITY PREDICTED BY RF-SCORE:    0.00 PKD
ROOT
HETATM    1  N   UNL     1     -13.229  13.982  66.076  1.00  0.00    -0.459 NA 
HETATM    2  H1  UNL     1     -13.809  13.239  66.467  1.00  0.00     0.000 HD 
HETATM    3  H2  UNL     1     -13.730  14.870  66.072  1.00  0.00     0.000 HD 
HETATM    4  CA  UNL     1     -12.705  13.657  64.710  1.00  0.00    -0.219 C  
HETATM    5  C   UNL     1     -11.878  12.364  64.806  1.00  0.00    -0.382 C  
HETATM    6  OXT UNL     1     -11.198  11.895  63.911  1.00  0.00    -0.360 OA 
HETATM    7  O   UNL     1     -12.001  11.791  66.033  1.00  0.00    -0.435 OA 
ENDROOT
BRANCH   4   8
HETATM    8  C   UNL     1     -11.831  14.779  64.120  1.00  0.00    -0.235 C  
BRANCH   8   9
HETATM    9  C   UNL     1     -10.834  15.328  65.112  1.00  0.00    -0.441 A  
HETATM   10  C   UNL     1      -9.936  14.485  65.775  1.00  0.00    -0.361 A  
HETATM   11  C   UNL     1      -9.053  15.004  66.731  1.00  0.00    -0.262 A  
HETATM   12  I   UNL     1      -7.826  13.614  67.735  1.00  0.00    -0.217 I  
HETATM   13  C   UNL     1      -9.045  16.376  67.057  1.00  0.00    -0.214 A  
HETATM   14  C   UNL     1     -10.012  17.198  66.453  1.00  0.00    -0.306 A  
HETATM   15  C   UNL     1     -10.854  16.685  65.450  1.00  0.00    -0.182 A  
HETATM   16  I   UNL     1     -10.521  19.152  67.087  1.00  0.00    -0.563 I  
BRANCH  13  17
HETATM   17  O   UNL     1      -8.169  16.745  68.052  1.00  0.00    -0.184 OA 
BRANCH  17  18
HETATM   18  C   UNL     1      -7.307  17.806  67.910  1.00  0.00    -0.215 A  
HETATM   19  C   UNL     1      -6.804  18.293  69.120  1.00  0.00    -0.247 A  
HETATM   20  C   UNL     1      -6.049  19.465  69.143  1.00  0.00    -0.266 A  
HETATM   21  I   UNL     1      -5.377  20.172  70.989  1.00  0.00    -0.352 I  
HETATM   22  C   UNL     1      -5.790  20.153  67.954  1.00  0.00    -0.214 A  
HETATM   23  C   UNL     1      -6.220  19.611  66.735  1.00  0.00    -0.182 A  
HETATM   24  O   UNL     1      -5.142  21.359  67.970  1.00  0.00    -0.423 OA 
HETATM   25  H   UNL     1      -4.966  21.827  67.161  1.00  0.00     0.000 HD 
HETATM   26  I   UNL     1      -5.913  20.612  64.921  1.00  0.00    -0.322 I  
HETATM   27  C   UNL     1      -6.940  18.410  66.708  1.00  0.00    -0.219 A  
ENDBRANCH  17  18
ENDBRANCH  13  17
ENDBRANCH   8   9
ENDBRANCH   4   8
TORSDOF 4
ENDMDL
MODEL       68
REMARK 921   NORMALIZED FREE ENERGY PREDICTED BY IDOCK:   -5.00 KCAL/MOL
REMARK 922        TOTAL FREE ENERGY PREDICTED BY IDOCK:   -6.99 KCAL/MOL
REMARK 923 INTER-LIGAND FREE ENERGY PREDICTED BY IDOCK:   -6.58 KCAL/MOL
REMARK 924 INTRA-LIGAND FREE ENERGY PREDICTED BY IDOCK:   -0.41 KCAL/MOL
REMARK 927      BINDING AFFINITY PREDICTED BY RF-SCORE:    0.00 PKD
ROOT
HETATM    1  N   UNL     1     -14.377  15.409  70.992  1.00  0.00    -0.848 NA 
HETATM    2  H1  UNL     1     -15.026  15.475  71.776  1.00  0.00     0.000 HD 
HETATM    3  H2  UNL     1     -14.823  14.974  70.185  1.00  0.00     0.000 HD 
HETATM    4  CA  UNL     1     -13.103  14.703  71.345  1.00  0.00    -0.347 C  
HETATM    5  C   UNL     1     -12.432  15.467  72.500  1.00  0.00    -0.409 C  
HETATM    6  OXT UNL     1     -11.318  15.244  72.937  1.00  0.00    -0.341 OA 
HETATM    7  O   UNL     1     -13.250  16.438  72.987  1.00  0.00    -0.298 OA 
ENDROOT
BRANCH   4   8
HETATM    8  C   UNL     1     -12.123  14.603  70.162  1.00  0.00    -0.385 C  
BRANCH   8   9
HETATM    9  C   UNL     1     -11.871  13.178  69.729  1.00  0.00    -0.386 A  
HETATM   10  C   UNL     1     -12.212  12.103  70.554  1.00  0.00    -0.392 A  
HETATM   11  C   UNL     1     -11.924  10.789  70.160  1.00  0.00    -0.349 A  
HETATM   12  I   UNL     1     -12.392   9.265  71.541  1.00  0.00    -0.489 I  
HETATM   13  C   UNL     1     -11.283  10.514  68.936  1.00  0.00    -0.266 A  
HETATM   14  C   UNL     1     -10.861  11.605  68.156  1.00  0.00    -0.217 A  
HETATM   15  C   UNL     1     -11.207  12.916  68.526  1.00  0.00    -0.310 A  
HETATM   16  I   UNL     1      -9.499  11.498  66.541  1.00  0.00    -0.246 I  
BRANCH  13  17
HETATM   17  O   UNL     1     -11.007   9.187  68.695  1.00  0.00    -0.099 OA 
BRANCH  17  18
HETATM   18  C   UNL     1      -9.884   8.571  69.195  1.00  0.00    -0.186 A  
HETATM   19  C   UNL     1     -10.028   7.193  69.377  1.00  0.00    -0.164 A  
HETATM   20  C   UNL     1      -9.031   6.465  70.027  1.00  0.00    -0.146 A  
HETATM   21  I   UNL     1      -9.331   4.420  70.320  1.00  0.00    -0.268 I  
HETATM   22  C   UNL     1      -7.884   7.114  70.493  1.00  0.00    -0.100 A  
HETATM   23  C   UNL     1      -7.706   8.478  70.228  1.00  0.00    -0.077 A  
HETATM   24  O   UNL     1      -6.946   6.437  71.226  1.00  0.00    -0.071 OA 
HETATM   25  H   UNL     1      -6.166   6.877  71.543  1.00  0.00     0.000 HD 
HETATM   26  I   UNL     1      -6.038   9.526  70.940  1.00  0.00    -0.046 I  
HETATM   27  C   UNL     1      -8.687   9.200  69.536  1.00  0.00    -0.140 A  
ENDBRANCH  17  18
ENDBRANCH  13  17
ENDBRANCH   8   9
ENDBRANCH   4   8
TORSDOF 4
ENDMDL
MODEL       69
REMARK 921   NORMALIZED FREE ENERGY PREDICTED BY IDOCK:   -5.00 KCAL/MOL
REMARK 922        TOTAL FREE ENERGY PREDICTED BY IDOCK:   -6.99 KCAL/MOL
REMARK 923 INTER-LIGAND FREE ENERGY PREDICTED BY IDOCK:   -6.84 KCAL/MOL
REMARK 924 INTRA-LIGAND FREE ENERGY PREDICTED BY IDOCK:   -0.16 KCAL/MOL
REMARK 927      BINDING AFFINITY PREDICTED BY RF-SCORE:    0.00 PKD
ROOT
HETATM    1  N   UNL     1      -9.507  17.434  68.522  1.00  0.00    -0.289 NA 
HETATM    2  H1  UNL     1      -9.895  17.988  69.286  1.00  0.00     0.000 HD 
HETATM    3  H2  UNL     1      -8.878  16.715  68.878  1.00  0.00     0.000 HD 
HETATM    4  CA  UNL     1      -8.829  18.270  67.480  1.00  0.00    -0.253 C  
HETATM    5  C   UNL     1      -9.857  19.265  66.915  1.00  0.00    -0.342 C  
HETATM    6  OXT UNL     1      -9.676  19.997  65.958  1.00  0.00    -0.424 OA 
HETATM    7  O   UNL     1     -11.014  19.234  67.629  1.00  0.00    -0.431 OA 
ENDROOT
BRANCH   4   8
HETATM    8  C   UNL     1      -8.242  17.434  66.328  1.00  0.00    -0.288 C  
BRANCH   8   9
HETATM    9  C   UNL     1      -8.766  16.018  66.305  1.00  0.00    -0.372 A  
HETATM   10  C   UNL     1      -9.995  15.714  65.711  1.00  0.00    -0.390 A  
HETATM   11  C   UNL     1     -10.491  14.403  65.744  1.00  0.00    -0.318 A  
HETATM   12  I   UNL     1     -12.403  14.096  64.908  1.00  0.00    -0.306 I  
HETATM   13  C   UNL     1      -9.779  13.364  66.376  1.00  0.00    -0.277 A  
HETATM   14  C   UNL     1      -8.591  13.698  67.049  1.00  0.00    -0.159 A  
HETATM   15  C   UNL     1      -8.067  14.999  66.960  1.00  0.00    -0.225 A  
HETATM   16  I   UNL     1      -7.585  12.459  68.439  1.00  0.00    -0.073 I  
BRANCH  13  17
HETATM   17  O   UNL     1     -10.404  12.137  66.387  1.00  0.00    -0.213 OA 
BRANCH  17  18
HETATM   18  C   UNL     1     -10.849  11.554  67.549  1.00  0.00    -0.237 A  
HETATM   19  C   UNL     1     -11.482  12.444  68.423  1.00  0.00    -0.356 A  
HETATM   20  C   UNL     1     -11.839  12.030  69.705  1.00  0.00    -0.331 A  
HETATM   21  I   UNL     1     -12.729  13.423  70.982  1.00  0.00    -0.148 I  
HETATM   22  C   UNL     1     -11.569  10.722  70.119  1.00  0.00    -0.337 A  
HETATM   23  C   UNL     1     -11.016   9.811  69.209  1.00  0.00    -0.193 A  
HETATM   24  O   UNL     1     -11.814  10.330  71.408  1.00  0.00    -0.355 OA 
HETATM   25  H   UNL     1     -11.630   9.441  71.689  1.00  0.00     0.000 HD 
HETATM   26  I   UNL     1     -10.536   7.852  69.773  1.00  0.00    -0.200 I  
HETATM   27  C   UNL     1     -10.698  10.215  67.906  1.00  0.00    -0.317 A  
ENDBRANCH  17  18
ENDBRANCH  13  17
ENDBRANCH   8   9
ENDBRANCH   4   8
TORSDOF 4
ENDMDL
MODEL       70
REMARK 921   NORMALIZED FREE ENERGY PREDICTED BY IDOCK:   -4.99 KCAL/MOL
REMARK 922        TOTAL FREE ENERGY PREDICTED BY IDOCK:   -6.98 KCAL/MOL
REMARK 923 INTER-LIGAND FREE ENERGY PREDICTED BY IDOCK:   -6.47 KCAL/MOL
REMARK 924 INTRA-LIGAND FREE ENERGY PREDICTED BY IDOCK:   -0.51 KCAL/MOL
REMARK 927      BINDING AFFINITY PREDICTED BY RF-SCORE:    0.00 PKD
ROOT
HETATM    1  N   UNL     1      -8.388  19.428  67.916  1.00  0.00    -0.300 NA 
HETATM    2  H1  UNL     1      -7.737  19.929  68.521  1.00  0.00     0.000 HD 
HETATM    3  H2  UNL     1      -9.183  19.078  68.448  1.00  0.00     0.000 HD 
HETATM    4  CA  UNL     1      -7.734  18.325  67.141  1.00  0.00    -0.221 C  
HETATM    5  C   UNL     1      -6.611  18.935  66.286  1.00  0.00    -0.208 C  
HETATM    6  OXT UNL     1      -5.972  18.341  65.436  1.00  0.00    -0.214 OA 
HETATM    7  O   UNL     1      -6.409  20.242  66.600  1.00  0.00    -0.187 OA 
ENDROOT
BRANCH   4   8
HETATM    8  C   UNL     1      -8.716  17.568  66.228  1.00  0.00    -0.226 C  
BRANCH   8   9
HETATM    9  C   UNL     1      -9.102  16.215  66.776  1.00  0.00    -0.257 A  
HETATM   10  C   UNL     1      -8.241  15.507  67.619  1.00  0.00    -0.168 A  
HETATM   11  C   UNL     1      -8.591  14.229  68.077  1.00  0.00    -0.169 A  
HETATM   12  I   UNL     1      -7.160  13.224  69.256  1.00  0.00     0.369 I  
HETATM   13  C   UNL     1      -9.805  13.621  67.701  1.00  0.00    -0.228 A  
HETATM   14  C   UNL     1     -10.621  14.302  66.780  1.00  0.00    -0.278 A  
HETATM   15  C   UNL     1     -10.295  15.607  66.373  1.00  0.00    -0.303 A  
HETATM   16  I   UNL     1     -12.233  13.444  65.710  1.00  0.00    -0.476 I  
BRANCH  13  17
HETATM   17  O   UNL     1     -10.001  12.343  68.173  1.00  0.00    -0.204 OA 
BRANCH  17  18
HETATM   18  C   UNL     1     -10.954  12.053  69.121  1.00  0.00    -0.178 A  
HETATM   19  C   UNL     1     -11.627  13.176  69.611  1.00  0.00    -0.321 A  
HETATM   20  C   UNL     1     -12.502  13.052  70.689  1.00  0.00    -0.268 A  
HETATM   21  I   UNL     1     -13.431  14.778  71.411  1.00  0.00    -0.527 I  
HETATM   22  C   UNL     1     -12.713  11.803  71.279  1.00  0.00    -0.316 A  
HETATM   23  C   UNL     1     -12.106  10.668  70.726  1.00  0.00    -0.374 A  
HETATM   24  O   UNL     1     -13.485  11.680  72.403  1.00  0.00    -0.602 OA 
HETATM   25  H   UNL     1     -13.628  10.831  72.805  1.00  0.00     0.000 HD 
HETATM   26  I   UNL     1     -12.333   8.772  71.588  1.00  0.00    -0.463 I  
HETATM   27  C   UNL     1     -11.260  10.785  69.615  1.00  0.00    -0.355 A  
ENDBRANCH  17  18
ENDBRANCH  13  17
ENDBRANCH   8   9
ENDBRANCH   4   8
TORSDOF 4
ENDMDL
MODEL       71
REMARK 921   NORMALIZED FREE ENERGY PREDICTED BY IDOCK:   -4.99 KCAL/MOL
REMARK 922        TOTAL FREE ENERGY PREDICTED BY IDOCK:   -6.98 KCAL/MOL
REMARK 923 INTER-LIGAND FREE ENERGY PREDICTED BY IDOCK:   -6.58 KCAL/MOL
REMARK 924 INTRA-LIGAND FREE ENERGY PREDICTED BY IDOCK:   -0.39 KCAL/MOL
REMARK 927      BINDING AFFINITY PREDICTED BY RF-SCORE:    0.00 PKD
ROOT
HETATM    1  N   UNL     1     -14.260  15.519  70.718  1.00  0.00    -0.782 NA 
HETATM    2  H1  UNL     1     -15.151  15.731  71.167  1.00  0.00     0.000 HD 
HETATM    3  H2  UNL     1     -14.393  15.303  69.730  1.00  0.00     0.000 HD 
HETATM    4  CA  UNL     1     -13.504  14.424  71.407  1.00  0.00    -0.351 C  
HETATM    5  C   UNL     1     -13.251  14.855  72.862  1.00  0.00    -0.492 C  
HETATM    6  OXT UNL     1     -12.546  14.262  73.658  1.00  0.00    -0.333 OA 
HETATM    7  O   UNL     1     -13.924  15.997  73.160  1.00  0.00    -0.526 OA 
ENDROOT
BRANCH   4   8
HETATM    8  C   UNL     1     -12.159  14.103  70.729  1.00  0.00    -0.419 C  
BRANCH   8   9
HETATM    9  C   UNL     1     -11.980  12.630  70.450  1.00  0.00    -0.331 A  
HETATM   10  C   UNL     1     -11.315  12.189  69.302  1.00  0.00    -0.327 A  
HETATM   11  C   UNL     1     -11.202  10.818  69.032  1.00  0.00    -0.262 A  
HETATM   12  I   UNL     1     -10.270  10.288  67.217  1.00  0.00    -0.315 I  
HETATM   13  C   UNL     1     -11.757   9.852  69.895  1.00  0.00    -0.071 A  
HETATM   14  C   UNL     1     -12.502  10.307  70.996  1.00  0.00    -0.384 A  
HETATM   15  C   UNL     1     -12.559  11.679  71.296  1.00  0.00    -0.425 A  
HETATM   16  I   UNL     1     -13.803   9.116  72.166  1.00  0.00    -0.353 I  
BRANCH  13  17
HETATM   17  O   UNL     1     -11.626   8.544  69.485  1.00  0.00     0.304 OA 
BRANCH  17  18
HETATM   18  C   UNL     1     -10.839   7.642  70.160  1.00  0.00    -0.248 A  
HETATM   19  C   UNL     1     -10.204   8.175  71.285  1.00  0.00    -0.240 A  
HETATM   20  C   UNL     1      -9.250   7.425  71.972  1.00  0.00    -0.132 A  
HETATM   21  I   UNL     1      -8.296   8.299  73.611  1.00  0.00     0.068 I  
HETATM   22  C   UNL     1      -8.931   6.135  71.538  1.00  0.00    -0.143 A  
HETATM   23  C   UNL     1      -9.634   5.574  70.464  1.00  0.00    -0.173 A  
HETATM   24  O   UNL     1      -7.922   5.425  72.134  1.00  0.00    -0.104 OA 
HETATM   25  H   UNL     1      -7.705   4.548  71.839  1.00  0.00     0.000 HD 
HETATM   26  I   UNL     1      -9.174   3.668  69.726  1.00  0.00    -0.223 I  
HETATM   27  C   UNL     1     -10.624   6.311  69.802  1.00  0.00    -0.323 A  
ENDBRANCH  17  18
ENDBRANCH  13  17
ENDBRANCH   8   9
ENDBRANCH   4   8
TORSDOF 4
ENDMDL
MODEL       72
REMARK 921   NORMALIZED FREE ENERGY PREDICTED BY IDOCK:   -4.98 KCAL/MOL
REMARK 922        TOTAL FREE ENERGY PREDICTED BY IDOCK:   -6.96 KCAL/MOL
REMARK 923 INTER-LIGAND FREE ENERGY PREDICTED BY IDOCK:   -6.74 KCAL/MOL
REMARK 924 INTRA-LIGAND FREE ENERGY PREDICTED BY IDOCK:   -0.22 KCAL/MOL
REMARK 927      BINDING AFFINITY PREDICTED BY RF-SCORE:    0.00 PKD
ROOT
HETATM    1  N   UNL     1     -12.172  10.920  68.799  1.00  0.00    -0.793 NA 
HETATM    2  H1  UNL     1     -12.588  10.330  69.518  1.00  0.00     0.000 HD 
HETATM    3  H2  UNL     1     -12.880  11.250  68.144  1.00  0.00     0.000 HD 
HETATM    4  CA  UNL     1     -11.043  10.252  68.074  1.00  0.00    -0.274 C  
HETATM    5  C   UNL     1      -9.967   9.870  69.105  1.00  0.00    -0.198 C  
HETATM    6  OXT UNL     1      -8.860   9.436  68.839  1.00  0.00    -0.131 OA 
HETATM    7  O   UNL     1     -10.408  10.075  70.374  1.00  0.00    -0.282 OA 
ENDROOT
BRANCH   4   8
HETATM    8  C   UNL     1     -10.415  11.143  66.987  1.00  0.00    -0.277 C  
BRANCH   8   9
HETATM    9  C   UNL     1      -9.879  12.445  67.535  1.00  0.00    -0.194 A  
HETATM   10  C   UNL     1      -8.507  12.713  67.543  1.00  0.00    -0.176 A  
HETATM   11  C   UNL     1      -8.022  13.904  68.102  1.00  0.00    -0.148 A  
HETATM   12  I   UNL     1      -5.927  14.140  68.149  1.00  0.00    -0.134 I  
HETATM   13  C   UNL     1      -8.892  14.855  68.673  1.00  0.00    -0.179 A  
HETATM   14  C   UNL     1     -10.259  14.535  68.742  1.00  0.00    -0.244 A  
HETATM   15  C   UNL     1     -10.747  13.369  68.126  1.00  0.00    -0.267 A  
HETATM   16  I   UNL     1     -11.691  15.542  69.932  1.00  0.00    -0.417 I  
BRANCH  13  17
HETATM   17  O   UNL     1      -8.283  15.953  69.237  1.00  0.00    -0.226 OA 
BRANCH  17  18
HETATM   18  C   UNL     1      -8.202  17.159  68.584  1.00  0.00    -0.255 A  
HETATM   19  C   UNL     1      -7.107  17.939  68.969  1.00  0.00    -0.229 A  
HETATM   20  C   UNL     1      -6.987  19.250  68.512  1.00  0.00    -0.294 A  
HETATM   21  I   UNL     1      -5.358  20.381  69.168  1.00  0.00    -0.383 I  
HETATM   22  C   UNL     1      -7.960  19.787  67.664  1.00  0.00    -0.290 A  
HETATM   23  C   UNL     1      -9.006  18.974  67.212  1.00  0.00    -0.284 A  
HETATM   24  O   UNL     1      -7.915  21.104  67.292  1.00  0.00    -0.584 OA 
HETATM   25  H   UNL     1      -8.577  21.470  66.716  1.00  0.00     0.000 HD 
HETATM   26  I   UNL     1     -10.528  19.724  65.984  1.00  0.00    -0.240 I  
HETATM   27  C   UNL     1      -9.103  17.642  67.636  1.00  0.00    -0.241 A  
ENDBRANCH  17  18
ENDBRANCH  13  17
ENDBRANCH   8   9
ENDBRANCH   4   8
TORSDOF 4
ENDMDL
MODEL       73
REMARK 921   NORMALIZED FREE ENERGY PREDICTED BY IDOCK:   -4.98 KCAL/MOL
REMARK 922        TOTAL FREE ENERGY PREDICTED BY IDOCK:   -6.96 KCAL/MOL
REMARK 923 INTER-LIGAND FREE ENERGY PREDICTED BY IDOCK:   -6.81 KCAL/MOL
REMARK 924 INTRA-LIGAND FREE ENERGY PREDICTED BY IDOCK:   -0.15 KCAL/MOL
REMARK 927      BINDING AFFINITY PREDICTED BY RF-SCORE:    0.00 PKD
ROOT
HETATM    1  N   UNL     1      -8.675  17.075  66.003  1.00  0.00    -0.523 NA 
HETATM    2  H1  UNL     1      -8.266  17.347  65.109  1.00  0.00     0.000 HD 
HETATM    3  H2  UNL     1      -8.741  16.061  66.080  1.00  0.00     0.000 HD 
HETATM    4  CA  UNL     1     -10.005  17.718  66.257  1.00  0.00    -0.318 C  
HETATM    5  C   UNL     1      -9.816  19.244  66.227  1.00  0.00    -0.392 C  
HETATM    6  OXT UNL     1     -10.664  20.064  66.531  1.00  0.00    -0.423 OA 
HETATM    7  O   UNL     1      -8.566  19.577  65.807  1.00  0.00    -0.407 OA 
ENDROOT
BRANCH   4   8
HETATM    8  C   UNL     1     -10.623  17.308  67.607  1.00  0.00    -0.350 C  
BRANCH   8   9
HETATM    9  C   UNL     1     -10.884  15.823  67.704  1.00  0.00    -0.310 A  
HETATM   10  C   UNL     1     -10.899  15.017  66.562  1.00  0.00    -0.320 A  
HETATM   11  C   UNL     1     -11.194  13.651  66.664  1.00  0.00    -0.313 A  
HETATM   12  I   UNL     1     -11.291  12.569  64.857  1.00  0.00    -0.419 I  
HETATM   13  C   UNL     1     -11.488  13.054  67.906  1.00  0.00    -0.311 A  
HETATM   14  C   UNL     1     -11.560  13.889  69.035  1.00  0.00    -0.310 A  
HETATM   15  C   UNL     1     -11.203  15.245  68.937  1.00  0.00    -0.291 A  
HETATM   16  I   UNL     1     -12.413  13.356  70.896  1.00  0.00    -0.126 I  
BRANCH  13  17
HETATM   17  O   UNL     1     -11.816  11.718  67.860  1.00  0.00    -0.518 OA 
BRANCH  17  18
HETATM   18  C   UNL     1     -10.884  10.729  68.073  1.00  0.00    -0.255 A  
HETATM   19  C   UNL     1      -9.618  11.209  68.418  1.00  0.00    -0.192 A  
HETATM   20  C   UNL     1      -8.537  10.332  68.504  1.00  0.00    -0.126 A  
HETATM   21  I   UNL     1      -6.659  11.119  68.967  1.00  0.00    -0.106 I  
HETATM   22  C   UNL     1      -8.720   8.970  68.248  1.00  0.00    -0.130 A  
HETATM   23  C   UNL     1     -10.007   8.483  67.991  1.00  0.00    -0.183 A  
HETATM   24  O   UNL     1      -7.652   8.113  68.223  1.00  0.00    -0.098 OA 
HETATM   25  H   UNL     1      -7.776   7.187  68.049  1.00  0.00     0.000 HD 
HETATM   26  I   UNL     1     -10.349   6.464  67.548  1.00  0.00    -0.406 I  
HETATM   27  C   UNL     1     -11.101   9.357  67.948  1.00  0.00     0.011 A  
ENDBRANCH  17  18
ENDBRANCH  13  17
ENDBRANCH   8   9
ENDBRANCH   4   8
TORSDOF 4
ENDMDL
MODEL       74
REMARK 921   NORMALIZED FREE ENERGY PREDICTED BY IDOCK:   -4.96 KCAL/MOL
REMARK 922        TOTAL FREE ENERGY PREDICTED BY IDOCK:   -6.94 KCAL/MOL
REMARK 923 INTER-LIGAND FREE ENERGY PREDICTED BY IDOCK:   -6.88 KCAL/MOL
REMARK 924 INTRA-LIGAND FREE ENERGY PREDICTED BY IDOCK:   -0.06 KCAL/MOL
REMARK 927      BINDING AFFINITY PREDICTED BY RF-SCORE:    0.00 PKD
ROOT
HETATM    1  N   UNL     1     -10.092  13.526  64.300  1.00  0.00    -0.771 NA 
HETATM    2  H1  UNL     1     -10.394  14.496  64.210  1.00  0.00     0.000 HD 
HETATM    3  H2  UNL     1      -9.096  13.435  64.102  1.00  0.00     0.000 HD 
HETATM    4  CA  UNL     1     -10.894  12.583  63.456  1.00  0.00    -0.397 C  
HETATM    5  C   UNL     1     -12.370  12.698  63.875  1.00  0.00    -0.459 C  
HETATM    6  OXT UNL     1     -13.269  11.974  63.487  1.00  0.00    -0.724 OA 
HETATM    7  O   UNL     1     -12.556  13.727  64.743  1.00  0.00    -0.594 OA 
ENDROOT
BRANCH   4   8
HETATM    8  C   UNL     1     -10.438  11.119  63.592  1.00  0.00    -0.438 C  
BRANCH   8   9
HETATM    9  C   UNL     1      -9.918  10.792  64.972  1.00  0.00    -0.361 A  
HETATM   10  C   UNL     1     -10.737  10.916  66.098  1.00  0.00    -0.225 A  
HETATM   11  C   UNL     1     -10.224  10.660  67.377  1.00  0.00    -0.204 A  
HETATM   12  I   UNL     1     -11.529  10.986  69.001  1.00  0.00    -0.430 I  
HETATM   13  C   UNL     1      -8.880  10.279  67.567  1.00  0.00    -0.128 A  
HETATM   14  C   UNL     1      -8.042  10.246  66.439  1.00  0.00    -0.123 A  
HETATM   15  C   UNL     1      -8.576  10.444  65.153  1.00  0.00    -0.189 A  
HETATM   16  I   UNL     1      -5.928  10.163  66.489  1.00  0.00    -0.080 I  
BRANCH  13  17
HETATM   17  O   UNL     1      -8.489  10.112  68.876  1.00  0.00    -0.121 OA 
BRANCH  17  18
HETATM   18  C   UNL     1      -8.694   8.935  69.556  1.00  0.00    -0.142 A  
HETATM   19  C   UNL     1      -8.944   7.838  68.726  1.00  0.00    -0.141 A  
HETATM   20  C   UNL     1      -9.329   6.617  69.278  1.00  0.00    -0.142 A  
HETATM   21  I   UNL     1      -9.745   5.034  67.981  1.00  0.00    -0.169 I  
HETATM   22  C   UNL     1      -9.461   6.486  70.663  1.00  0.00    -0.166 A  
HETATM   23  C   UNL     1      -9.123   7.562  71.493  1.00  0.00    -0.135 A  
HETATM   24  O   UNL     1      -9.941   5.328  71.214  1.00  0.00    -0.177 OA 
HETATM   25  H   UNL     1     -10.031   5.239  72.156  1.00  0.00     0.000 HD 
HETATM   26  I   UNL     1      -9.346   7.457  73.573  1.00  0.00    -0.334 I  
HETATM   27  C   UNL     1      -8.693   8.776  70.941  1.00  0.00    -0.235 A  
ENDBRANCH  17  18
ENDBRANCH  13  17
ENDBRANCH   8   9
ENDBRANCH   4   8
TORSDOF 4
ENDMDL
MODEL       75
REMARK 921   NORMALIZED FREE ENERGY PREDICTED BY IDOCK:   -4.95 KCAL/MOL
REMARK 922        TOTAL FREE ENERGY PREDICTED BY IDOCK:   -6.93 KCAL/MOL
REMARK 923 INTER-LIGAND FREE ENERGY PREDICTED BY IDOCK:   -6.62 KCAL/MOL
REMARK 924 INTRA-LIGAND FREE ENERGY PREDICTED BY IDOCK:   -0.31 KCAL/MOL
REMARK 927      BINDING AFFINITY PREDICTED BY RF-SCORE:    0.00 PKD
ROOT
HETATM    1  N   UNL     1     -14.411  15.349  71.070  1.00  0.00    -0.848 NA 
HETATM    2  H1  UNL     1     -15.039  15.333  71.874  1.00  0.00     0.000 HD 
HETATM    3  H2  UNL     1     -14.866  14.964  70.244  1.00  0.00     0.000 HD 
HETATM    4  CA  UNL     1     -13.108  14.657  71.334  1.00  0.00    -0.347 C  
HETATM    5  C   UNL     1     -12.427  15.349  72.527  1.00  0.00    -0.377 C  
HETATM    6  OXT UNL     1     -11.294  15.127  72.917  1.00  0.00    -0.304 OA 
HETATM    7  O   UNL     1     -13.258  16.254  73.110  1.00  0.00    -0.462 OA 
ENDROOT
BRANCH   4   8
HETATM    8  C   UNL     1     -12.159  14.679  70.122  1.00  0.00    -0.385 C  
BRANCH   8   9
HETATM    9  C   UNL     1     -11.962  13.314  69.506  1.00  0.00    -0.366 A  
HETATM   10  C   UNL     1     -12.076  12.153  70.276  1.00  0.00    -0.385 A  
HETATM   11  C   UNL     1     -11.840  10.897  69.701  1.00  0.00    -0.344 A  
HETATM   12  I   UNL     1     -11.939   9.233  70.994  1.00  0.00    -0.310 I  
HETATM   13  C   UNL     1     -11.477  10.766  68.345  1.00  0.00    -0.288 A  
HETATM   14  C   UNL     1     -11.276  11.943  67.604  1.00  0.00    -0.276 A  
HETATM   15  C   UNL     1     -11.574  13.196  68.168  1.00  0.00    -0.375 A  
HETATM   16  I   UNL     1     -10.304  12.054  65.728  1.00  0.00    -0.327 I  
BRANCH  13  17
HETATM   17  O   UNL     1     -11.219   9.483  67.921  1.00  0.00    -0.097 OA 
BRANCH  17  18
HETATM   18  C   UNL     1      -9.938   9.011  67.759  1.00  0.00    -0.187 A  
HETATM   19  C   UNL     1      -9.019   9.544  68.668  1.00  0.00    -0.132 A  
HETATM   20  C   UNL     1      -7.657   9.282  68.520  1.00  0.00    -0.085 A  
HETATM   21  I   UNL     1      -6.330  10.156  69.875  1.00  0.00    -0.120 I  
HETATM   22  C   UNL     1      -7.209   8.482  67.465  1.00  0.00    -0.084 A  
HETATM   23  C   UNL     1      -8.142   7.878  66.613  1.00  0.00    -0.107 A  
HETATM   24  O   UNL     1      -5.870   8.302  67.243  1.00  0.00    -0.041 OA 
HETATM   25  H   UNL     1      -5.565   7.758  66.525  1.00  0.00     0.000 HD 
HETATM   26  I   UNL     1      -7.542   6.709  64.981  1.00  0.00    -0.117 I  
HETATM   27  C   UNL     1      -9.513   8.105  66.787  1.00  0.00    -0.256 A  
ENDBRANCH  17  18
ENDBRANCH  13  17
ENDBRANCH   8   9
ENDBRANCH   4   8
TORSDOF 4
ENDMDL
MODEL       76
REMARK 921   NORMALIZED FREE ENERGY PREDICTED BY IDOCK:   -4.95 KCAL/MOL
REMARK 922        TOTAL FREE ENERGY PREDICTED BY IDOCK:   -6.92 KCAL/MOL
REMARK 923 INTER-LIGAND FREE ENERGY PREDICTED BY IDOCK:   -7.31 KCAL/MOL
REMARK 924 INTRA-LIGAND FREE ENERGY PREDICTED BY IDOCK:    0.39 KCAL/MOL
REMARK 927      BINDING AFFINITY PREDICTED BY RF-SCORE:    0.00 PKD
ROOT
HETATM    1  N   UNL     1     -10.655   6.511  66.375  1.00  0.00    -0.489 NA 
HETATM    2  H1  UNL     1     -11.115   5.601  66.367  1.00  0.00     0.000 HD 
HETATM    3  H2  UNL     1     -10.765   6.983  65.478  1.00  0.00     0.000 HD 
HETATM    4  CA  UNL     1      -9.210   6.432  66.764  1.00  0.00    -0.142 C  
HETATM    5  C   UNL     1      -9.121   5.804  68.166  1.00  0.00    -0.110 C  
HETATM    6  OXT UNL     1      -8.108   5.720  68.836  1.00  0.00    -0.100 OA 
HETATM    7  O   UNL     1     -10.332   5.341  68.574  1.00  0.00    -0.167 OA 
ENDROOT
BRANCH   4   8
HETATM    8  C   UNL     1      -8.514   7.805  66.776  1.00  0.00    -0.126 C  
BRANCH   8   9
HETATM    9  C   UNL     1      -9.489   8.955  66.871  1.00  0.00    -0.230 A  
HETATM   10  C   UNL     1      -9.642   9.859  65.815  1.00  0.00    -0.312 A  
HETATM   11  C   UNL     1     -10.513  10.950  65.939  1.00  0.00    -0.221 A  
HETATM   12  I   UNL     1     -10.574  12.298  64.319  1.00  0.00    -0.510 I  
HETATM   13  C   UNL     1     -11.248  11.172  67.121  1.00  0.00    -0.249 A  
HETATM   14  C   UNL     1     -11.018  10.311  68.208  1.00  0.00    -0.264 A  
HETATM   15  C   UNL     1     -10.192   9.184  68.058  1.00  0.00    -0.258 A  
HETATM   16  I   UNL     1     -11.619  10.677  70.204  1.00  0.00    -0.441 I  
BRANCH  13  17
HETATM   17  O   UNL     1     -12.023  12.310  67.134  1.00  0.00    -0.564 OA 
BRANCH  17  18
HETATM   18  C   UNL     1     -11.587  13.485  67.699  1.00  0.00    -0.339 A  
HETATM   19  C   UNL     1     -12.160  13.762  68.943  1.00  0.00    -0.348 A  
HETATM   20  C   UNL     1     -11.936  14.993  69.558  1.00  0.00    -0.313 A  
HETATM   21  I   UNL     1     -12.868  15.367  71.389  1.00  0.00    -0.595 I  
HETATM   22  C   UNL     1     -11.135  15.952  68.932  1.00  0.00    -0.316 A  
HETATM   23  C   UNL     1     -10.491  15.635  67.729  1.00  0.00    -0.273 A  
HETATM   24  O   UNL     1     -10.991  17.203  69.469  1.00  0.00    -0.344 OA 
HETATM   25  H   UNL     1     -10.446  17.856  69.044  1.00  0.00     0.000 HD 
HETATM   26  I   UNL     1      -9.318  17.038  66.709  1.00  0.00    -0.316 I  
HETATM   27  C   UNL     1     -10.680  14.381  67.133  1.00  0.00    -0.283 A  
ENDBRANCH  17  18
ENDBRANCH  13  17
ENDBRANCH   8   9
ENDBRANCH   4   8
TORSDOF 4
ENDMDL
MODEL       77
REMARK 921   NORMALIZED FREE ENERGY PREDICTED BY IDOCK:   -4.88 KCAL/MOL
REMARK 922        TOTAL FREE ENERGY PREDICTED BY IDOCK:   -6.84 KCAL/MOL
REMARK 923 INTER-LIGAND FREE ENERGY PREDICTED BY IDOCK:   -6.21 KCAL/MOL
REMARK 924 INTRA-LIGAND FREE ENERGY PREDICTED BY IDOCK:   -0.64 KCAL/MOL
REMARK 927      BINDING AFFINITY PREDICTED BY RF-SCORE:    0.00 PKD
ROOT
HETATM    1  N   UNL     1      -9.030   7.070  69.797  1.00  0.00    -0.142 NA 
HETATM    2  H1  UNL     1      -8.607   6.850  70.699  1.00  0.00     0.000 HD 
HETATM    3  H2  UNL     1      -8.316   7.187  69.079  1.00  0.00     0.000 HD 
HETATM    4  CA  UNL     1      -9.933   8.265  69.852  1.00  0.00    -0.190 C  
HETATM    5  C   UNL     1     -11.042   7.984  70.880  1.00  0.00    -0.255 C  
HETATM    6  OXT UNL     1     -12.018   8.687  71.072  1.00  0.00    -0.290 OA 
HETATM    7  O   UNL     1     -10.797   6.837  71.567  1.00  0.00    -0.228 OA 
ENDROOT
BRANCH   4   8
HETATM    8  C   UNL     1     -10.571   8.599  68.492  1.00  0.00    -0.162 C  
BRANCH   8   9
HETATM    9  C   UNL     1     -10.253   9.999  68.023  1.00  0.00    -0.216 A  
HETATM   10  C   UNL     1     -11.084  10.662  67.116  1.00  0.00    -0.267 A  
HETATM   11  C   UNL     1     -10.747  11.941  66.651  1.00  0.00    -0.256 A  
HETATM   12  I   UNL     1     -12.027  12.788  65.205  1.00  0.00    -0.527 I  
HETATM   13  C   UNL     1      -9.568  12.589  67.073  1.00  0.00    -0.216 A  
HETATM   14  C   UNL     1      -8.694  11.877  67.913  1.00  0.00    -0.167 A  
HETATM   15  C   UNL     1      -9.067  10.622  68.425  1.00  0.00    -0.156 A  
HETATM   16  I   UNL     1      -6.686  12.410  68.318  1.00  0.00    -0.108 I  
BRANCH  13  17
HETATM   17  O   UNL     1      -9.327  13.816  66.498  1.00  0.00    -0.269 OA 
BRANCH  17  18
HETATM   18  C   UNL     1      -9.487  14.992  67.191  1.00  0.00    -0.216 A  
HETATM   19  C   UNL     1     -10.190  14.851  68.391  1.00  0.00    -0.231 A  
HETATM   20  C   UNL     1     -10.569  15.980  69.116  1.00  0.00    -0.260 A  
HETATM   21  I   UNL     1     -11.668  15.704  70.871  1.00  0.00    -0.547 I  
HETATM   22  C   UNL     1     -10.243  17.255  68.647  1.00  0.00    -0.351 A  
HETATM   23  C   UNL     1      -9.462  17.386  67.491  1.00  0.00    -0.250 A  
HETATM   24  O   UNL     1     -10.698  18.375  69.289  1.00  0.00    -0.220 OA 
HETATM   25  H   UNL     1     -10.477  19.243  68.969  1.00  0.00     0.000 HD 
HETATM   26  I   UNL     1      -8.978  19.264  66.700  1.00  0.00    -0.426 I  
HETATM   27  C   UNL     1      -9.043  16.250  66.786  1.00  0.00    -0.257 A  
ENDBRANCH  17  18
ENDBRANCH  13  17
ENDBRANCH   8   9
ENDBRANCH   4   8
TORSDOF 4
ENDMDL
MODEL       78
REMARK 921   NORMALIZED FREE ENERGY PREDICTED BY IDOCK:   -4.88 KCAL/MOL
REMARK 922        TOTAL FREE ENERGY PREDICTED BY IDOCK:   -6.84 KCAL/MOL
REMARK 923 INTER-LIGAND FREE ENERGY PREDICTED BY IDOCK:   -6.52 KCAL/MOL
REMARK 924 INTRA-LIGAND FREE ENERGY PREDICTED BY IDOCK:   -0.31 KCAL/MOL
REMARK 927      BINDING AFFINITY PREDICTED BY RF-SCORE:    0.00 PKD
ROOT
HETATM    1  N   UNL     1     -10.353  19.133  68.147  1.00  0.00    -0.388 NA 
HETATM    2  H1  UNL     1      -9.799  19.601  68.864  1.00  0.00     0.000 HD 
HETATM    3  H2  UNL     1     -11.103  18.585  68.567  1.00  0.00     0.000 HD 
HETATM    4  CA  UNL     1      -9.524  18.288  67.227  1.00  0.00    -0.264 C  
HETATM    5  C   UNL     1      -8.479  19.193  66.553  1.00  0.00    -0.317 C  
HETATM    6  OXT UNL     1      -7.737  18.857  65.647  1.00  0.00    -0.478 OA 
HETATM    7  O   UNL     1      -8.479  20.437  67.101  1.00  0.00    -0.338 OA 
ENDROOT
BRANCH   4   8
HETATM    8  C   UNL     1     -10.359  17.580  66.145  1.00  0.00    -0.330 C  
BRANCH   8   9
HETATM    9  C   UNL     1     -10.069  16.101  66.055  1.00  0.00    -0.372 A  
HETATM   10  C   UNL     1     -10.890  15.249  65.310  1.00  0.00    -0.417 A  
HETATM   11  C   UNL     1     -10.637  13.871  65.279  1.00  0.00    -0.361 A  
HETATM   12  I   UNL     1     -12.010  12.683  64.208  1.00  0.00    -0.591 I  
HETATM   13  C   UNL     1      -9.563  13.305  65.995  1.00  0.00    -0.160 A  
HETATM   14  C   UNL     1      -8.799  14.156  66.813  1.00  0.00    -0.167 A  
HETATM   15  C   UNL     1      -9.019  15.545  66.792  1.00  0.00    -0.295 A  
HETATM   16  I   UNL     1      -7.454  13.521  68.318  1.00  0.00    -0.158 I  
BRANCH  13  17
HETATM   17  O   UNL     1      -9.459  11.935  65.926  1.00  0.00    -0.232 OA 
BRANCH  17  18
HETATM   18  C   UNL     1      -9.632  11.132  67.028  1.00  0.00    -0.181 A  
HETATM   19  C   UNL     1     -10.641  11.567  67.892  1.00  0.00    -0.224 A  
HETATM   20  C   UNL     1     -10.820  10.946  69.128  1.00  0.00    -0.235 A  
HETATM   21  I   UNL     1     -12.306  11.680  70.397  1.00  0.00    -0.180 I  
HETATM   22  C   UNL     1      -9.992   9.884  69.503  1.00  0.00    -0.222 A  
HETATM   23  C   UNL     1      -9.042   9.396  68.596  1.00  0.00    -0.132 A  
HETATM   24  O   UNL     1     -10.082   9.333  70.753  1.00  0.00    -0.245 OA 
HETATM   25  H   UNL     1      -9.519   8.611  71.008  1.00  0.00     0.000 HD 
HETATM   26  I   UNL     1      -7.733   7.843  69.108  1.00  0.00    -0.103 I  
HETATM   27  C   UNL     1      -8.892   9.991  67.337  1.00  0.00    -0.132 A  
ENDBRANCH  17  18
ENDBRANCH  13  17
ENDBRANCH   8   9
ENDBRANCH   4   8
TORSDOF 4
ENDMDL
MODEL       79
REMARK 921   NORMALIZED FREE ENERGY PREDICTED BY IDOCK:   -4.86 KCAL/MOL
REMARK 922        TOTAL FREE ENERGY PREDICTED BY IDOCK:   -6.82 KCAL/MOL
REMARK 923 INTER-LIGAND FREE ENERGY PREDICTED BY IDOCK:   -6.64 KCAL/MOL
REMARK 924 INTRA-LIGAND FREE ENERGY PREDICTED BY IDOCK:   -0.18 KCAL/MOL
REMARK 927      BINDING AFFINITY PREDICTED BY RF-SCORE:    0.00 PKD
ROOT
HETATM    1  N   UNL     1      -9.661  20.915  67.168  1.00  0.00    -0.689 NA 
HETATM    2  H1  UNL     1      -9.273  21.343  66.328  1.00  0.00     0.000 HD 
HETATM    3  H2  UNL     1      -9.214  21.286  68.006  1.00  0.00     0.000 HD 
HETATM    4  CA  UNL     1      -9.595  19.418  67.145  1.00  0.00    -0.327 C  
HETATM    5  C   UNL     1     -10.372  18.920  65.915  1.00  0.00    -0.355 C  
HETATM    6  OXT UNL     1     -10.632  17.755  65.671  1.00  0.00    -0.577 OA 
HETATM    7  O   UNL     1     -10.736  19.954  65.112  1.00  0.00    -0.246 OA 
ENDROOT
BRANCH   4   8
HETATM    8  C   UNL     1     -10.181  18.771  68.414  1.00  0.00    -0.413 C  
BRANCH   8   9
HETATM    9  C   UNL     1      -9.759  17.331  68.585  1.00  0.00    -0.301 A  
HETATM   10  C   UNL     1      -8.453  16.923  68.300  1.00  0.00    -0.229 A  
HETATM   11  C   UNL     1      -8.091  15.574  68.415  1.00  0.00    -0.136 A  
HETATM   12  I   UNL     1      -6.121  15.074  67.854  1.00  0.00    -0.076 I  
HETATM   13  C   UNL     1      -9.024  14.595  68.810  1.00  0.00    -0.173 A  
HETATM   14  C   UNL     1     -10.356  14.999  69.006  1.00  0.00    -0.243 A  
HETATM   15  C   UNL     1     -10.699  16.362  68.950  1.00  0.00    -0.319 A  
HETATM   16  I   UNL     1     -12.020  13.699  69.146  1.00  0.00    -0.215 I  
BRANCH  13  17
HETATM   17  O   UNL     1      -8.555  13.301  68.828  1.00  0.00    -0.027 OA 
BRANCH  17  18
HETATM   18  C   UNL     1      -9.064  12.328  68.002  1.00  0.00    -0.191 A  
HETATM   19  C   UNL     1      -9.112  11.058  68.585  1.00  0.00    -0.174 A  
HETATM   20  C   UNL     1      -9.452   9.947  67.814  1.00  0.00    -0.140 A  
HETATM   21  I   UNL     1      -9.449   8.070  68.729  1.00  0.00    -0.157 I  
HETATM   22  C   UNL     1      -9.749  10.102  66.456  1.00  0.00    -0.200 A  
HETATM   23  C   UNL     1      -9.786  11.387  65.900  1.00  0.00    -0.226 A  
HETATM   24  O   UNL     1      -9.979   9.011  65.661  1.00  0.00    -0.457 OA 
HETATM   25  H   UNL     1     -10.181   9.116  64.738  1.00  0.00     0.000 HD 
HETATM   26  I   UNL     1     -10.172  11.691  63.864  1.00  0.00    -0.527 I  
HETATM   27  C   UNL     1      -9.489  12.508  66.685  1.00  0.00    -0.242 A  
ENDBRANCH  17  18
ENDBRANCH  13  17
ENDBRANCH   8   9
ENDBRANCH   4   8
TORSDOF 4
ENDMDL
MODEL       80
REMARK 921   NORMALIZED FREE ENERGY PREDICTED BY IDOCK:   -4.85 KCAL/MOL
REMARK 922        TOTAL FREE ENERGY PREDICTED BY IDOCK:   -6.81 KCAL/MOL
REMARK 923 INTER-LIGAND FREE ENERGY PREDICTED BY IDOCK:   -6.44 KCAL/MOL
REMARK 924 INTRA-LIGAND FREE ENERGY PREDICTED BY IDOCK:   -0.37 KCAL/MOL
REMARK 927      BINDING AFFINITY PREDICTED BY RF-SCORE:    0.00 PKD
ROOT
HETATM    1  N   UNL     1      -9.523  17.451  68.529  1.00  0.00    -0.289 NA 
HETATM    2  H1  UNL     1      -9.940  18.062  69.231  1.00  0.00     0.000 HD 
HETATM    3  H2  UNL     1      -8.896  16.774  68.962  1.00  0.00     0.000 HD 
HETATM    4  CA  UNL     1      -8.824  18.206  67.439  1.00  0.00    -0.256 C  
HETATM    5  C   UNL     1      -9.847  19.134  66.763  1.00  0.00    -0.342 C  
HETATM    6  OXT UNL     1      -9.646  19.784  65.753  1.00  0.00    -0.363 OA 
HETATM    7  O   UNL     1     -11.024  19.146  67.442  1.00  0.00    -0.475 OA 
ENDROOT
BRANCH   4   8
HETATM    8  C   UNL     1      -8.193  17.284  66.380  1.00  0.00    -0.317 C  
BRANCH   8   9
HETATM    9  C   UNL     1      -8.665  15.854  66.491  1.00  0.00    -0.350 A  
HETATM   10  C   UNL     1      -9.927  15.473  66.026  1.00  0.00    -0.356 A  
HETATM   11  C   UNL     1     -10.370  14.153  66.184  1.00  0.00    -0.300 A  
HETATM   12  I   UNL     1     -12.333  13.733  65.538  1.00  0.00    -0.508 I  
HETATM   13  C   UNL     1      -9.570  13.180  66.815  1.00  0.00    -0.249 A  
HETATM   14  C   UNL     1      -8.342  13.594  67.360  1.00  0.00    -0.192 A  
HETATM   15  C   UNL     1      -7.876  14.902  67.145  1.00  0.00    -0.203 A  
HETATM   16  I   UNL     1      -7.178  12.480  68.732  1.00  0.00     0.059 I  
BRANCH  13  17
HETATM   17  O   UNL     1     -10.146  11.938  66.956  1.00  0.00    -0.203 OA 
BRANCH  17  18
HETATM   18  C   UNL     1     -10.568  11.462  68.175  1.00  0.00    -0.189 A  
HETATM   19  C   UNL     1     -10.335  10.096  68.361  1.00  0.00    -0.210 A  
HETATM   20  C   UNL     1     -10.855   9.444  69.479  1.00  0.00    -0.213 A  
HETATM   21  I   UNL     1     -10.521   7.392  69.670  1.00  0.00    -0.230 I  
HETATM   22  C   UNL     1     -11.606  10.157  70.418  1.00  0.00    -0.316 A  
HETATM   23  C   UNL     1     -11.760  11.542  70.272  1.00  0.00    -0.289 A  
HETATM   24  O   UNL     1     -12.213   9.513  71.463  1.00  0.00    -0.336 OA 
HETATM   25  H   UNL     1     -12.724   9.998  72.102  1.00  0.00     0.000 HD 
HETATM   26  I   UNL     1     -12.915  12.665  71.610  1.00  0.00    -0.013 I  
HETATM   27  C   UNL     1     -11.200  12.205  69.172  1.00  0.00    -0.303 A  
ENDBRANCH  17  18
ENDBRANCH  13  17
ENDBRANCH   8   9
ENDBRANCH   4   8
TORSDOF 4
ENDMDL
MODEL       81
REMARK 921   NORMALIZED FREE ENERGY PREDICTED BY IDOCK:   -4.82 KCAL/MOL
REMARK 922        TOTAL FREE ENERGY PREDICTED BY IDOCK:   -6.77 KCAL/MOL
REMARK 923 INTER-LIGAND FREE ENERGY PREDICTED BY IDOCK:   -6.23 KCAL/MOL
REMARK 924 INTRA-LIGAND FREE ENERGY PREDICTED BY IDOCK:   -0.54 KCAL/MOL
REMARK 927      BINDING AFFINITY PREDICTED BY RF-SCORE:    0.00 PKD
ROOT
HETATM    1  N   UNL     1     -13.610  15.441  70.833  1.00  0.00    -0.771 NA 
HETATM    2  H1  UNL     1     -14.537  15.095  71.081  1.00  0.00     0.000 HD 
HETATM    3  H2  UNL     1     -13.676  16.307  70.300  1.00  0.00     0.000 HD 
HETATM    4  CA  UNL     1     -12.782  14.426  70.106  1.00  0.00    -0.207 C  
HETATM    5  C   UNL     1     -12.638  13.186  71.005  1.00  0.00    -0.312 C  
HETATM    6  OXT UNL     1     -11.915  12.233  70.778  1.00  0.00    -0.266 OA 
HETATM    7  O   UNL     1     -13.434  13.282  72.104  1.00  0.00    -0.485 OA 
ENDROOT
BRANCH   4   8
HETATM    8  C   UNL     1     -11.383  14.949  69.731  1.00  0.00    -0.314 C  
BRANCH   8   9
HETATM    9  C   UNL     1     -10.800  14.250  68.526  1.00  0.00    -0.264 A  
HETATM   10  C   UNL     1     -11.603  13.903  67.435  1.00  0.00    -0.398 A  
HETATM   11  C   UNL     1     -11.056  13.209  66.347  1.00  0.00    -0.289 A  
HETATM   12  I   UNL     1     -12.394  12.651  64.815  1.00  0.00    -0.367 I  
HETATM   13  C   UNL     1      -9.697  12.836  66.321  1.00  0.00    -0.262 A  
HETATM   14  C   UNL     1      -8.921  13.108  67.461  1.00  0.00    -0.197 A  
HETATM   15  C   UNL     1      -9.457  13.858  68.522  1.00  0.00    -0.174 A  
HETATM   16  I   UNL     1      -7.023  12.269  67.874  1.00  0.00    -0.155 I  
BRANCH  13  17
HETATM   17  O   UNL     1      -9.302  12.109  65.221  1.00  0.00    -0.055 OA 
BRANCH  17  18
HETATM   18  C   UNL     1      -9.072  10.755  65.284  1.00  0.00    -0.195 A  
HETATM   19  C   UNL     1      -8.234  10.276  64.273  1.00  0.00    -0.157 A  
HETATM   20  C   UNL     1      -8.043   8.904  64.115  1.00  0.00    -0.160 A  
HETATM   21  I   UNL     1      -6.826   8.249  62.550  1.00  0.00    -0.091 I  
HETATM   22  C   UNL     1      -8.688   8.005  64.969  1.00  0.00     0.070 A  
HETATM   23  C   UNL     1      -9.454   8.494  66.035  1.00  0.00    -0.186 A  
HETATM   24  O   UNL     1      -8.598   6.654  64.762  1.00  0.00    -0.344 OA 
HETATM   25  H   UNL     1      -9.036   6.043  65.343  1.00  0.00     0.000 HD 
HETATM   26  I   UNL     1     -10.490   7.209  67.324  1.00  0.00    -0.386 I  
HETATM   27  C   UNL     1      -9.610   9.874  66.221  1.00  0.00    -0.265 A  
ENDBRANCH  17  18
ENDBRANCH  13  17
ENDBRANCH   8   9
ENDBRANCH   4   8
TORSDOF 4
ENDMDL
MODEL       82
REMARK 921   NORMALIZED FREE ENERGY PREDICTED BY IDOCK:   -4.81 KCAL/MOL
REMARK 922        TOTAL FREE ENERGY PREDICTED BY IDOCK:   -6.75 KCAL/MOL
REMARK 923 INTER-LIGAND FREE ENERGY PREDICTED BY IDOCK:   -6.34 KCAL/MOL
REMARK 924 INTRA-LIGAND FREE ENERGY PREDICTED BY IDOCK:   -0.41 KCAL/MOL
REMARK 927      BINDING AFFINITY PREDICTED BY RF-SCORE:    0.00 PKD
ROOT
HETATM    1  N   UNL     1     -10.053  13.496  64.227  1.00  0.00    -0.771 NA 
HETATM    2  H1  UNL     1     -10.368  14.449  64.048  1.00  0.00     0.000 HD 
HETATM    3  H2  UNL     1      -9.050  13.408  64.070  1.00  0.00     0.000 HD 
HETATM    4  CA  UNL     1     -10.810  12.471  63.438  1.00  0.00    -0.302 C  
HETATM    5  C   UNL     1     -12.301  12.591  63.797  1.00  0.00    -0.502 C  
HETATM    6  OXT UNL     1     -13.174  11.820  63.440  1.00  0.00    -0.569 OA 
HETATM    7  O   UNL     1     -12.534  13.684  64.571  1.00  0.00    -0.565 OA 
ENDROOT
BRANCH   4   8
HETATM    8  C   UNL     1     -10.335  11.032  63.709  1.00  0.00    -0.427 C  
BRANCH   8   9
HETATM    9  C   UNL     1      -9.891  10.821  65.137  1.00  0.00    -0.333 A  
HETATM   10  C   UNL     1     -10.747  11.099  66.207  1.00  0.00    -0.298 A  
HETATM   11  C   UNL     1     -10.302  10.946  67.527  1.00  0.00    -0.202 A  
HETATM   12  I   UNL     1     -11.654  11.500  69.048  1.00  0.00    -0.449 I  
HETATM   13  C   UNL     1      -8.990  10.520  67.815  1.00  0.00    -0.132 A  
HETATM   14  C   UNL     1      -8.110  10.332  66.736  1.00  0.00    -0.121 A  
HETATM   15  C   UNL     1      -8.578  10.426  65.414  1.00  0.00    -0.183 A  
HETATM   16  I   UNL     1      -6.007  10.149  66.893  1.00  0.00    -0.062 I  
BRANCH  13  17
HETATM   17  O   UNL     1      -8.663  10.467  69.151  1.00  0.00    -0.154 OA 
BRANCH  17  18
HETATM   18  C   UNL     1      -8.551   9.276  69.829  1.00  0.00    -0.159 A  
HETATM   19  C   UNL     1      -7.662   9.320  70.907  1.00  0.00    -0.134 A  
HETATM   20  C   UNL     1      -7.325   8.149  71.584  1.00  0.00    -0.083 A  
HETATM   21  I   UNL     1      -5.947   8.272  73.149  1.00  0.00    -0.088 I  
HETATM   22  C   UNL     1      -7.880   6.928  71.188  1.00  0.00    -0.100 A  
HETATM   23  C   UNL     1      -8.837   6.904  70.166  1.00  0.00    -0.145 A  
HETATM   24  O   UNL     1      -7.479   5.755  71.771  1.00  0.00    -0.090 OA 
HETATM   25  H   UNL     1      -7.856   4.925  71.501  1.00  0.00     0.000 HD 
HETATM   26  I   UNL     1      -9.671   5.108  69.485  1.00  0.00    -0.315 I  
HETATM   27  C   UNL     1      -9.209   8.088  69.515  1.00  0.00    -0.152 A  
ENDBRANCH  17  18
ENDBRANCH  13  17
ENDBRANCH   8   9
ENDBRANCH   4   8
TORSDOF 4
ENDMDL
MODEL       83
REMARK 921   NORMALIZED FREE ENERGY PREDICTED BY IDOCK:   -4.80 KCAL/MOL
REMARK 922        TOTAL FREE ENERGY PREDICTED BY IDOCK:   -6.75 KCAL/MOL
REMARK 923 INTER-LIGAND FREE ENERGY PREDICTED BY IDOCK:   -6.49 KCAL/MOL
REMARK 924 INTRA-LIGAND FREE ENERGY PREDICTED BY IDOCK:   -0.25 KCAL/MOL
REMARK 927      BINDING AFFINITY PREDICTED BY RF-SCORE:    0.00 PKD
ROOT
HETATM    1  N   UNL     1     -12.382  13.973  66.590  1.00  0.00    -0.506 NA 
HETATM    2  H1  UNL     1     -13.400  13.926  66.615  1.00  0.00     0.000 HD 
HETATM    3  H2  UNL     1     -12.030  14.621  67.294  1.00  0.00     0.000 HD 
HETATM    4  CA  UNL     1     -11.845  14.313  65.233  1.00  0.00    -0.374 C  
HETATM    5  C   UNL     1     -12.330  13.242  64.240  1.00  0.00    -0.340 C  
HETATM    6  OXT UNL     1     -11.965  13.139  63.083  1.00  0.00    -0.517 OA 
HETATM    7  O   UNL     1     -13.237  12.411  64.819  1.00  0.00    -0.784 OA 
ENDROOT
BRANCH   4   8
HETATM    8  C   UNL     1     -10.307  14.383  65.195  1.00  0.00    -0.447 C  
BRANCH   8   9
HETATM    9  C   UNL     1      -9.652  13.387  66.123  1.00  0.00    -0.216 A  
HETATM   10  C   UNL     1      -8.787  13.808  67.137  1.00  0.00    -0.240 A  
HETATM   11  C   UNL     1      -8.147  12.867  67.956  1.00  0.00    -0.159 A  
HETATM   12  I   UNL     1      -6.785  13.625  69.376  1.00  0.00     0.123 I  
HETATM   13  C   UNL     1      -8.347  11.483  67.781  1.00  0.00    -0.136 A  
HETATM   14  C   UNL     1      -9.147  11.068  66.701  1.00  0.00    -0.166 A  
HETATM   15  C   UNL     1      -9.835  12.015  65.923  1.00  0.00    -0.259 A  
HETATM   16  I   UNL     1      -9.241   9.096  65.939  1.00  0.00    -0.293 I  
BRANCH  13  17
HETATM   17  O   UNL     1      -7.616  10.667  68.613  1.00  0.00    -0.089 OA 
BRANCH  17  18
HETATM   18  C   UNL     1      -8.203   9.926  69.611  1.00  0.00    -0.171 A  
HETATM   19  C   UNL     1      -9.576  10.151  69.750  1.00  0.00    -0.213 A  
HETATM   20  C   UNL     1     -10.270   9.593  70.823  1.00  0.00    -0.260 A  
HETATM   21  I   UNL     1     -12.307  10.015  71.008  1.00  0.00    -0.489 I  
HETATM   22  C   UNL     1      -9.596   8.804  71.759  1.00  0.00    -0.301 A  
HETATM   23  C   UNL     1      -8.240   8.509  71.563  1.00  0.00    -0.155 A  
HETATM   24  O   UNL     1     -10.238   8.337  72.874  1.00  0.00    -0.295 OA 
HETATM   25  H   UNL     1      -9.779   7.801  73.511  1.00  0.00     0.000 HD 
HETATM   26  I   UNL     1      -7.153   7.377  72.950  1.00  0.00    -0.094 I  
HETATM   27  C   UNL     1      -7.552   9.033  70.461  1.00  0.00    -0.113 A  
ENDBRANCH  17  18
ENDBRANCH  13  17
ENDBRANCH   8   9
ENDBRANCH   4   8
TORSDOF 4
ENDMDL
MODEL       84
REMARK 921   NORMALIZED FREE ENERGY PREDICTED BY IDOCK:   -4.76 KCAL/MOL
REMARK 922        TOTAL FREE ENERGY PREDICTED BY IDOCK:   -6.70 KCAL/MOL
REMARK 923 INTER-LIGAND FREE ENERGY PREDICTED BY IDOCK:   -6.07 KCAL/MOL
REMARK 924 INTRA-LIGAND FREE ENERGY PREDICTED BY IDOCK:   -0.63 KCAL/MOL
REMARK 927      BINDING AFFINITY PREDICTED BY RF-SCORE:    0.00 PKD
ROOT
HETATM    1  N   UNL     1     -12.279  14.327  67.470  1.00  0.00    -0.598 NA 
HETATM    2  H1  UNL     1     -13.151  14.853  67.509  1.00  0.00     0.000 HD 
HETATM    3  H2  UNL     1     -12.294  13.653  66.705  1.00  0.00     0.000 HD 
HETATM    4  CA  UNL     1     -11.942  13.656  68.767  1.00  0.00    -0.359 C  
HETATM    5  C   UNL     1     -11.835  14.737  69.856  1.00  0.00    -0.316 C  
HETATM    6  OXT UNL     1     -11.442  14.553  70.994  1.00  0.00    -0.230 OA 
HETATM    7  O   UNL     1     -12.246  15.946  69.389  1.00  0.00    -0.284 OA 
ENDROOT
BRANCH   4   8
HETATM    8  C   UNL     1     -10.625  12.861  68.707  1.00  0.00    -0.217 C  
BRANCH   8   9
HETATM    9  C   UNL     1     -10.800  11.408  69.083  1.00  0.00    -0.260 A  
HETATM   10  C   UNL     1     -11.697  11.026  70.085  1.00  0.00    -0.442 A  
HETATM   11  C   UNL     1     -11.810   9.680  70.458  1.00  0.00    -0.215 A  
HETATM   12  I   UNL     1     -13.119   9.248  72.053  1.00  0.00    -0.556 I  
HETATM   13  C   UNL     1     -11.026   8.680  69.846  1.00  0.00    -0.168 A  
HETATM   14  C   UNL     1     -10.063   9.086  68.906  1.00  0.00    -0.196 A  
HETATM   15  C   UNL     1      -9.997  10.428  68.492  1.00  0.00    -0.179 A  
HETATM   16  I   UNL     1      -8.473   7.886  68.191  1.00  0.00    -0.121 I  
BRANCH  13  17
HETATM   17  O   UNL     1     -11.193   7.408  70.344  1.00  0.00    -0.266 OA 
BRANCH  17  18
HETATM   18  C   UNL     1     -10.296   6.842  71.218  1.00  0.00    -0.204 A  
HETATM   19  C   UNL     1     -10.306   5.444  71.214  1.00  0.00    -0.296 A  
HETATM   20  C   UNL     1      -9.569   4.736  72.162  1.00  0.00    -0.153 A  
HETATM   21  I   UNL     1      -9.671   2.650  72.138  1.00  0.00    -0.214 I  
HETATM   22  C   UNL     1      -8.815   5.423  73.117  1.00  0.00    -0.119 A  
HETATM   23  C   UNL     1      -8.738   6.821  73.061  1.00  0.00    -0.119 A  
HETATM   24  O   UNL     1      -8.172   4.748  74.120  1.00  0.00    -0.100 OA 
HETATM   25  H   UNL     1      -7.659   5.216  74.770  1.00  0.00     0.000 HD 
HETATM   26  I   UNL     1      -7.671   7.920  74.489  1.00  0.00    -0.279 I  
HETATM   27  C   UNL     1      -9.444   7.531  72.080  1.00  0.00    -0.185 A  
ENDBRANCH  17  18
ENDBRANCH  13  17
ENDBRANCH   8   9
ENDBRANCH   4   8
TORSDOF 4
ENDMDL
MODEL       85
REMARK 921   NORMALIZED FREE ENERGY PREDICTED BY IDOCK:   -4.75 KCAL/MOL
REMARK 922        TOTAL FREE ENERGY PREDICTED BY IDOCK:   -6.68 KCAL/MOL
REMARK 923 INTER-LIGAND FREE ENERGY PREDICTED BY IDOCK:   -6.33 KCAL/MOL
REMARK 924 INTRA-LIGAND FREE ENERGY PREDICTED BY IDOCK:   -0.35 KCAL/MOL
REMARK 927      BINDING AFFINITY PREDICTED BY RF-SCORE:    0.00 PKD
ROOT
HETATM    1  N   UNL     1     -10.547   8.100  67.420  1.00  0.00    -0.427 NA 
HETATM    2  H1  UNL     1     -10.075   7.251  67.109  1.00  0.00     0.000 HD 
HETATM    3  H2  UNL     1     -10.284   8.896  66.838  1.00  0.00     0.000 HD 
HETATM    4  CA  UNL     1     -10.318   8.400  68.870  1.00  0.00    -0.215 C  
HETATM    5  C   UNL     1     -10.827   7.205  69.695  1.00  0.00    -0.234 C  
HETATM    6  OXT UNL     1     -10.919   7.177  70.909  1.00  0.00    -0.239 OA 
HETATM    7  O   UNL     1     -11.165   6.162  68.891  1.00  0.00    -0.372 OA 
ENDROOT
BRANCH   4   8
HETATM    8  C   UNL     1     -11.030   9.682  69.338  1.00  0.00    -0.215 C  
BRANCH   8   9
HETATM    9  C   UNL     1     -10.489  10.927  68.676  1.00  0.00    -0.216 A  
HETATM   10  C   UNL     1     -11.321  11.763  67.924  1.00  0.00    -0.362 A  
HETATM   11  C   UNL     1     -10.793  12.886  67.273  1.00  0.00    -0.255 A  
HETATM   12  I   UNL     1     -12.130  14.003  66.085  1.00  0.00    -0.420 I  
HETATM   13  C   UNL     1      -9.421  13.202  67.349  1.00  0.00    -0.214 A  
HETATM   14  C   UNL     1      -8.579  12.306  68.030  1.00  0.00    -0.176 A  
HETATM   15  C   UNL     1      -9.122  11.216  68.732  1.00  0.00    -0.144 A  
HETATM   16  I   UNL     1      -6.466  12.285  67.909  1.00  0.00    -0.137 I  
BRANCH  13  17
HETATM   17  O   UNL     1      -9.023  14.298  66.618  1.00  0.00    -0.245 OA 
BRANCH  17  18
HETATM   18  C   UNL     1      -8.679  15.488  67.214  1.00  0.00    -0.195 A  
HETATM   19  C   UNL     1      -9.466  16.571  66.811  1.00  0.00    -0.266 A  
HETATM   20  C   UNL     1      -9.130  17.865  67.206  1.00  0.00    -0.251 A  
HETATM   21  I   UNL     1     -10.311  19.446  66.524  1.00  0.00    -0.632 I  
HETATM   22  C   UNL     1      -8.007  18.081  68.011  1.00  0.00    -0.255 A  
HETATM   23  C   UNL     1      -7.276  16.984  68.484  1.00  0.00    -0.209 A  
HETATM   24  O   UNL     1      -7.601  19.352  68.320  1.00  0.00    -0.287 OA 
HETATM   25  H   UNL     1      -6.837  19.499  68.866  1.00  0.00     0.000 HD 
HETATM   26  I   UNL     1      -5.553  17.233  69.649  1.00  0.00    -0.241 I  
HETATM   27  C   UNL     1      -7.639  15.680  68.123  1.00  0.00    -0.124 A  
ENDBRANCH  17  18
ENDBRANCH  13  17
ENDBRANCH   8   9
ENDBRANCH   4   8
TORSDOF 4
ENDMDL
MODEL       86
REMARK 921   NORMALIZED FREE ENERGY PREDICTED BY IDOCK:   -4.73 KCAL/MOL
REMARK 922        TOTAL FREE ENERGY PREDICTED BY IDOCK:   -6.66 KCAL/MOL
REMARK 923 INTER-LIGAND FREE ENERGY PREDICTED BY IDOCK:   -6.07 KCAL/MOL
REMARK 924 INTRA-LIGAND FREE ENERGY PREDICTED BY IDOCK:   -0.58 KCAL/MOL
REMARK 927      BINDING AFFINITY PREDICTED BY RF-SCORE:    0.00 PKD
ROOT
HETATM    1  N   UNL     1     -12.416  14.047  66.735  1.00  0.00    -0.526 NA 
HETATM    2  H1  UNL     1     -13.424  13.936  66.848  1.00  0.00     0.000 HD 
HETATM    3  H2  UNL     1     -12.032  14.649  67.462  1.00  0.00     0.000 HD 
HETATM    4  CA  UNL     1     -12.032  14.542  65.373  1.00  0.00    -0.332 C  
HETATM    5  C   UNL     1     -12.554  13.539  64.330  1.00  0.00    -0.174 C  
HETATM    6  OXT UNL     1     -12.298  13.565  63.140  1.00  0.00    -0.712 OA 
HETATM    7  O   UNL     1     -13.355  12.604  64.906  1.00  0.00    -0.741 OA 
ENDROOT
BRANCH   4   8
HETATM    8  C   UNL     1     -10.511  14.710  65.202  1.00  0.00    -0.440 C  
BRANCH   8   9
HETATM    9  C   UNL     1      -9.718  13.677  65.967  1.00  0.00    -0.239 A  
HETATM   10  C   UNL     1      -8.813  14.056  66.963  1.00  0.00    -0.234 A  
HETATM   11  C   UNL     1      -8.047  13.088  67.628  1.00  0.00    -0.172 A  
HETATM   12  I   UNL     1      -6.642  13.798  69.032  1.00  0.00    -0.094 I  
HETATM   13  C   UNL     1      -8.157  11.719  67.312  1.00  0.00    -0.164 A  
HETATM   14  C   UNL     1      -9.002  11.358  66.248  1.00  0.00    -0.200 A  
HETATM   15  C   UNL     1      -9.813  12.324  65.627  1.00  0.00    -0.247 A  
HETATM   16  I   UNL     1      -9.007   9.478  65.277  1.00  0.00    -0.268 I  
BRANCH  13  17
HETATM   17  O   UNL     1      -7.308  10.881  67.998  1.00  0.00    -0.085 OA 
BRANCH  17  18
HETATM   18  C   UNL     1      -7.769   9.959  68.907  1.00  0.00    -0.085 A  
HETATM   19  C   UNL     1      -6.982   8.806  68.993  1.00  0.00    -0.064 A  
HETATM   20  C   UNL     1      -7.414   7.719  69.751  1.00  0.00    -0.089 A  
HETATM   21  I   UNL     1      -6.221   6.006  69.792  1.00  0.00    -0.029 I  
HETATM   22  C   UNL     1      -8.635   7.780  70.430  1.00  0.00    -0.137 A  
HETATM   23  C   UNL     1      -9.375   8.969  70.412  1.00  0.00    -0.208 A  
HETATM   24  O   UNL     1      -9.125   6.685  71.090  1.00  0.00    -0.151 OA 
HETATM   25  H   UNL     1      -9.955   6.727  71.551  1.00  0.00     0.000 HD 
HETATM   26  I   UNL     1     -11.236   9.118  71.362  1.00  0.00    -0.464 I  
HETATM   27  C   UNL     1      -8.919  10.078  69.687  1.00  0.00    -0.221 A  
ENDBRANCH  17  18
ENDBRANCH  13  17
ENDBRANCH   8   9
ENDBRANCH   4   8
TORSDOF 4
ENDMDL
MODEL       87
REMARK 921   NORMALIZED FREE ENERGY PREDICTED BY IDOCK:   -4.72 KCAL/MOL
REMARK 922        TOTAL FREE ENERGY PREDICTED BY IDOCK:   -6.65 KCAL/MOL
REMARK 923 INTER-LIGAND FREE ENERGY PREDICTED BY IDOCK:   -6.29 KCAL/MOL
REMARK 924 INTRA-LIGAND FREE ENERGY PREDICTED BY IDOCK:   -0.36 KCAL/MOL
REMARK 927      BINDING AFFINITY PREDICTED BY RF-SCORE:    0.00 PKD
ROOT
HETATM    1  N   UNL     1      -9.327  15.269  69.811  1.00  0.00    -0.448 NA 
HETATM    2  H1  UNL     1      -9.882  15.509  70.633  1.00  0.00     0.000 HD 
HETATM    3  H2  UNL     1      -8.448  14.831  70.081  1.00  0.00     0.000 HD 
HETATM    4  CA  UNL     1      -9.086  16.439  68.907  1.00  0.00    -0.256 C  
HETATM    5  C   UNL     1     -10.450  16.991  68.457  1.00  0.00    -0.373 C  
HETATM    6  OXT UNL     1     -10.617  17.851  67.611  1.00  0.00    -0.390 OA 
HETATM    7  O   UNL     1     -11.468  16.394  69.133  1.00  0.00    -0.288 OA 
ENDROOT
BRANCH   4   8
HETATM    8  C   UNL     1      -8.249  16.077  67.666  1.00  0.00    -0.162 C  
BRANCH   8   9
HETATM    9  C   UNL     1      -8.466  14.655  67.208  1.00  0.00    -0.234 A  
HETATM   10  C   UNL     1      -9.650  14.277  66.566  1.00  0.00    -0.313 A  
HETATM   11  C   UNL     1      -9.857  12.942  66.193  1.00  0.00    -0.270 A  
HETATM   12  I   UNL     1     -11.726  12.483  65.330  1.00  0.00    -0.425 I  
HETATM   13  C   UNL     1      -8.894  11.947  66.456  1.00  0.00    -0.178 A  
HETATM   14  C   UNL     1      -7.749  12.320  67.182  1.00  0.00    -0.134 A  
HETATM   15  C   UNL     1      -7.518  13.670  67.499  1.00  0.00    -0.181 A  
HETATM   16  I   UNL     1      -6.394  10.976  68.099  1.00  0.00    -0.059 I  
BRANCH  13  17
HETATM   17  O   UNL     1      -9.245  10.668  66.090  1.00  0.00    -0.163 OA 
BRANCH  17  18
HETATM   18  C   UNL     1      -9.671   9.737  67.007  1.00  0.00    -0.183 A  
HETATM   19  C   UNL     1      -9.652   8.423  66.530  1.00  0.00    -0.304 A  
HETATM   20  C   UNL     1     -10.207   7.394  67.290  1.00  0.00    -0.260 A  
HETATM   21  I   UNL     1     -10.199   5.463  66.496  1.00  0.00    -0.270 I  
HETATM   22  C   UNL     1     -10.782   7.675  68.533  1.00  0.00    -0.051 A  
HETATM   23  C   UNL     1     -10.718   8.978  69.044  1.00  0.00    -0.141 A  
HETATM   24  O   UNL     1     -11.426   6.698  69.243  1.00  0.00    -0.578 OA 
HETATM   25  H   UNL     1     -11.817   6.889  70.088  1.00  0.00     0.000 HD 
HETATM   26  I   UNL     1     -11.603   9.484  70.874  1.00  0.00    -0.447 I  
HETATM   27  C   UNL     1     -10.120  10.003  68.300  1.00  0.00    -0.182 A  
ENDBRANCH  17  18
ENDBRANCH  13  17
ENDBRANCH   8   9
ENDBRANCH   4   8
TORSDOF 4
ENDMDL
MODEL       88
REMARK 921   NORMALIZED FREE ENERGY PREDICTED BY IDOCK:   -4.72 KCAL/MOL
REMARK 922        TOTAL FREE ENERGY PREDICTED BY IDOCK:   -6.64 KCAL/MOL
REMARK 923 INTER-LIGAND FREE ENERGY PREDICTED BY IDOCK:   -6.23 KCAL/MOL
REMARK 924 INTRA-LIGAND FREE ENERGY PREDICTED BY IDOCK:   -0.41 KCAL/MOL
REMARK 927      BINDING AFFINITY PREDICTED BY RF-SCORE:    0.00 PKD
ROOT
HETATM    1  N   UNL     1     -10.221  19.763  69.334  1.00  0.00    -0.611 NA 
HETATM    2  H1  UNL     1      -9.515  20.480  69.500  1.00  0.00     0.000 HD 
HETATM    3  H2  UNL     1     -10.477  19.296  70.203  1.00  0.00     0.000 HD 
HETATM    4  CA  UNL     1      -9.809  18.768  68.293  1.00  0.00    -0.373 C  
HETATM    5  C   UNL     1      -9.535  19.526  66.982  1.00  0.00    -0.337 C  
HETATM    6  OXT UNL     1      -9.315  19.007  65.903  1.00  0.00    -0.445 OA 
HETATM    7  O   UNL     1      -9.564  20.871  67.178  1.00  0.00    -0.414 OA 
ENDROOT
BRANCH   4   8
HETATM    8  C   UNL     1     -10.875  17.685  68.042  1.00  0.00    -0.240 C  
BRANCH   8   9
HETATM    9  C   UNL     1     -10.319  16.284  68.133  1.00  0.00    -0.277 A  
HETATM   10  C   UNL     1     -11.130  15.210  68.511  1.00  0.00    -0.281 A  
HETATM   11  C   UNL     1     -10.587  13.924  68.642  1.00  0.00    -0.257 A  
HETATM   12  I   UNL     1     -11.891  12.413  69.321  1.00  0.00    -0.209 I  
HETATM   13  C   UNL     1      -9.220  13.677  68.405  1.00  0.00    -0.169 A  
HETATM   14  C   UNL     1      -8.395  14.778  68.115  1.00  0.00    -0.144 A  
HETATM   15  C   UNL     1      -8.955  16.053  67.925  1.00  0.00    -0.186 A  
HETATM   16  I   UNL     1      -6.280  14.767  68.171  1.00  0.00    -0.175 I  
BRANCH  13  17
HETATM   17  O   UNL     1      -8.804  12.383  68.623  1.00  0.00    -0.096 OA 
BRANCH  17  18
HETATM   18  C   UNL     1      -8.758  11.450  67.615  1.00  0.00    -0.136 A  
HETATM   19  C   UNL     1      -9.363  11.871  66.427  1.00  0.00    -0.233 A  
HETATM   20  C   UNL     1      -9.536  10.973  65.374  1.00  0.00    -0.222 A  
HETATM   21  I   UNL     1     -10.498  11.647  63.648  1.00  0.00    -0.543 I  
HETATM   22  C   UNL     1      -9.100   9.651  65.503  1.00  0.00    -0.204 A  
HETATM   23  C   UNL     1      -8.415   9.261  66.661  1.00  0.00    -0.126 A  
HETATM   24  O   UNL     1      -9.357   8.730  64.523  1.00  0.00    -0.324 OA 
HETATM   25  H   UNL     1      -9.061   7.831  64.611  1.00  0.00     0.000 HD 
HETATM   26  I   UNL     1      -7.780   7.285  66.947  1.00  0.00    -0.115 I  
HETATM   27  C   UNL     1      -8.202  10.174  67.702  1.00  0.00    -0.110 A  
ENDBRANCH  17  18
ENDBRANCH  13  17
ENDBRANCH   8   9
ENDBRANCH   4   8
TORSDOF 4
ENDMDL
MODEL       89
REMARK 921   NORMALIZED FREE ENERGY PREDICTED BY IDOCK:   -4.68 KCAL/MOL
REMARK 922        TOTAL FREE ENERGY PREDICTED BY IDOCK:   -6.60 KCAL/MOL
REMARK 923 INTER-LIGAND FREE ENERGY PREDICTED BY IDOCK:   -6.76 KCAL/MOL
REMARK 924 INTRA-LIGAND FREE ENERGY PREDICTED BY IDOCK:    0.16 KCAL/MOL
REMARK 927      BINDING AFFINITY PREDICTED BY RF-SCORE:    0.00 PKD
ROOT
HETATM    1  N   UNL     1     -14.021  15.834  72.227  1.00  0.00    -0.460 NA 
HETATM    2  H1  UNL     1     -14.940  15.420  72.383  1.00  0.00     0.000 HD 
HETATM    3  H2  UNL     1     -14.100  16.833  72.035  1.00  0.00     0.000 HD 
HETATM    4  CA  UNL     1     -13.244  15.143  71.148  1.00  0.00    -0.469 C  
HETATM    5  C   UNL     1     -13.075  13.666  71.547  1.00  0.00    -0.350 C  
HETATM    6  OXT UNL     1     -12.378  12.856  70.964  1.00  0.00    -0.351 OA 
HETATM    7  O   UNL     1     -13.815  13.367  72.647  1.00  0.00    -0.726 OA 
ENDROOT
BRANCH   4   8
HETATM    8  C   UNL     1     -11.857  15.768  70.912  1.00  0.00    -0.451 C  
BRANCH   8   9
HETATM    9  C   UNL     1     -11.239  15.345  69.601  1.00  0.00    -0.289 A  
HETATM   10  C   UNL     1     -12.033  15.083  68.481  1.00  0.00    -0.257 A  
HETATM   11  C   UNL     1     -11.448  14.641  67.286  1.00  0.00    -0.372 A  
HETATM   12  I   UNL     1     -12.765  14.179  65.705  1.00  0.00     0.085 I  
HETATM   13  C   UNL     1     -10.057  14.441  67.179  1.00  0.00    -0.253 A  
HETATM   14  C   UNL     1      -9.279  14.618  68.336  1.00  0.00    -0.197 A  
HETATM   15  C   UNL     1      -9.861  15.121  69.513  1.00  0.00    -0.191 A  
HETATM   16  I   UNL     1      -7.283  13.956  68.579  1.00  0.00    -0.126 I  
BRANCH  13  17
HETATM   17  O   UNL     1      -9.619  13.950  65.970  1.00  0.00    -0.264 OA 
BRANCH  17  18
HETATM   18  C   UNL     1      -9.690  12.614  65.654  1.00  0.00    -0.139 A  
HETATM   19  C   UNL     1      -9.874  11.780  66.761  1.00  0.00    -0.218 A  
HETATM   20  C   UNL     1      -9.802  10.396  66.613  1.00  0.00    -0.202 A  
HETATM   21  I   UNL     1     -10.029   9.206  68.314  1.00  0.00    -0.242 I  
HETATM   22  C   UNL     1      -9.549   9.839  65.356  1.00  0.00    -0.292 A  
HETATM   23  C   UNL     1      -9.454  10.676  64.237  1.00  0.00    -0.274 A  
HETATM   24  O   UNL     1      -9.368   8.490  65.211  1.00  0.00    -0.429 OA 
HETATM   25  H   UNL     1      -9.196   8.111  64.356  1.00  0.00     0.000 HD 
HETATM   26  I   UNL     1      -9.024   9.919  62.332  1.00  0.00    -0.299 I  
HETATM   27  C   UNL     1      -9.571  12.065  64.378  1.00  0.00     0.002 A  
ENDBRANCH  17  18
ENDBRANCH  13  17
ENDBRANCH   8   9
ENDBRANCH   4   8
TORSDOF 4
ENDMDL
MODEL       90
REMARK 921   NORMALIZED FREE ENERGY PREDICTED BY IDOCK:   -4.68 KCAL/MOL
REMARK 922        TOTAL FREE ENERGY PREDICTED BY IDOCK:   -6.60 KCAL/MOL
REMARK 923 INTER-LIGAND FREE ENERGY PREDICTED BY IDOCK:   -5.80 KCAL/MOL
REMARK 924 INTRA-LIGAND FREE ENERGY PREDICTED BY IDOCK:   -0.80 KCAL/MOL
REMARK 927      BINDING AFFINITY PREDICTED BY RF-SCORE:    0.00 PKD
ROOT
HETATM    1  N   UNL     1      -9.647   7.479  74.163  1.00  0.00    -0.404 NA 
HETATM    2  H1  UNL     1     -10.470   7.445  74.764  1.00  0.00     0.000 HD 
HETATM    3  H2  UNL     1      -9.105   8.325  74.335  1.00  0.00     0.000 HD 
HETATM    4  CA  UNL     1      -9.981   7.346  72.708  1.00  0.00    -0.215 C  
HETATM    5  C   UNL     1     -10.708   6.006  72.501  1.00  0.00    -0.227 C  
HETATM    6  OXT UNL     1     -10.997   5.522  71.421  1.00  0.00    -0.224 OA 
HETATM    7  O   UNL     1     -11.000   5.417  73.691  1.00  0.00    -0.289 OA 
ENDROOT
BRANCH   4   8
HETATM    8  C   UNL     1      -8.739   7.398  71.799  1.00  0.00    -0.125 C  
BRANCH   8   9
HETATM    9  C   UNL     1      -8.775   8.550  70.824  1.00  0.00    -0.183 A  
HETATM   10  C   UNL     1      -7.595   9.117  70.333  1.00  0.00    -0.118 A  
HETATM   11  C   UNL     1      -7.645  10.219  69.469  1.00  0.00    -0.150 A  
HETATM   12  I   UNL     1      -5.795  11.046  68.886  1.00  0.00    -0.042 I  
HETATM   13  C   UNL     1      -8.872  10.790  69.077  1.00  0.00    -0.127 A  
HETATM   14  C   UNL     1     -10.048  10.272  69.647  1.00  0.00    -0.224 A  
HETATM   15  C   UNL     1      -9.997   9.129  70.464  1.00  0.00    -0.288 A  
HETATM   16  I   UNL     1     -11.944  11.211  69.600  1.00  0.00    -0.381 I  
BRANCH  13  17
HETATM   17  O   UNL     1      -8.779  11.902  68.272  1.00  0.00    -0.163 OA 
BRANCH  17  18
HETATM   18  C   UNL     1      -9.107  11.868  66.937  1.00  0.00    -0.196 A  
HETATM   19  C   UNL     1     -10.085  12.796  66.570  1.00  0.00    -0.264 A  
HETATM   20  C   UNL     1     -10.632  12.766  65.287  1.00  0.00    -0.290 A  
HETATM   21  I   UNL     1     -12.131  14.142  64.819  1.00  0.00    -0.441 I  
HETATM   22  C   UNL     1     -10.198  11.809  64.365  1.00  0.00    -0.289 A  
HETATM   23  C   UNL     1      -9.155  10.941  64.710  1.00  0.00    -0.178 A  
HETATM   24  O   UNL     1     -10.798  11.696  63.139  1.00  0.00    -0.628 OA 
HETATM   25  H   UNL     1     -10.504  11.046  62.512  1.00  0.00     0.000 HD 
HETATM   26  I   UNL     1      -8.490   9.449  63.399  1.00  0.00    -0.178 I  
HETATM   27  C   UNL     1      -8.575  11.000  65.984  1.00  0.00    -0.173 A  
ENDBRANCH  17  18
ENDBRANCH  13  17
ENDBRANCH   8   9
ENDBRANCH   4   8
TORSDOF 4
ENDMDL
MODEL       91
REMARK 921   NORMALIZED FREE ENERGY PREDICTED BY IDOCK:   -4.67 KCAL/MOL
REMARK 922        TOTAL FREE ENERGY PREDICTED BY IDOCK:   -6.58 KCAL/MOL
REMARK 923 INTER-LIGAND FREE ENERGY PREDICTED BY IDOCK:   -5.99 KCAL/MOL
REMARK 924 INTRA-LIGAND FREE ENERGY PREDICTED BY IDOCK:   -0.59 KCAL/MOL
REMARK 927      BINDING AFFINITY PREDICTED BY RF-SCORE:    0.00 PKD
ROOT
HETATM    1  N   UNL     1     -10.127  19.552  69.306  1.00  0.00    -0.606 NA 
HETATM    2  H1  UNL     1      -9.393  20.250  69.425  1.00  0.00     0.000 HD 
HETATM    3  H2  UNL     1     -10.383  19.136  70.200  1.00  0.00     0.000 HD 
HETATM    4  CA  UNL     1      -9.771  18.495  68.306  1.00  0.00    -0.356 C  
HETATM    5  C   UNL     1      -9.495  19.180  66.956  1.00  0.00    -0.316 C  
HETATM    6  OXT UNL     1      -9.314  18.603  65.899  1.00  0.00    -0.475 OA 
HETATM    7  O   UNL     1      -9.472  20.533  67.088  1.00  0.00    -0.412 OA 
ENDROOT
BRANCH   4   8
HETATM    8  C   UNL     1     -10.880  17.441  68.125  1.00  0.00    -0.273 C  
BRANCH   8   9
HETATM    9  C   UNL     1     -10.356  16.026  68.170  1.00  0.00    -0.260 A  
HETATM   10  C   UNL     1     -11.151  14.977  68.643  1.00  0.00    -0.272 A  
HETATM   11  C   UNL     1     -10.632  13.678  68.727  1.00  0.00    -0.231 A  
HETATM   12  I   UNL     1     -11.896  12.209  69.558  1.00  0.00    -0.232 I  
HETATM   13  C   UNL     1      -9.305  13.391  68.347  1.00  0.00    -0.165 A  
HETATM   14  C   UNL     1      -8.487  14.466  67.960  1.00  0.00    -0.164 A  
HETATM   15  C   UNL     1      -9.029  15.756  67.819  1.00  0.00    -0.176 A  
HETATM   16  I   UNL     1      -6.379  14.397  67.788  1.00  0.00     0.049 I  
BRANCH  13  17
HETATM   17  O   UNL     1      -8.903  12.088  68.532  1.00  0.00    -0.166 OA 
BRANCH  17  18
HETATM   18  C   UNL     1      -9.094  11.121  67.574  1.00  0.00    -0.146 A  
HETATM   19  C   UNL     1      -8.955   9.815  68.051  1.00  0.00    -0.118 A  
HETATM   20  C   UNL     1      -8.960   8.741  67.162  1.00  0.00    -0.131 A  
HETATM   21  I   UNL     1      -8.689   6.819  67.932  1.00  0.00    -0.116 I  
HETATM   22  C   UNL     1      -9.108   8.969  65.791  1.00  0.00    -0.219 A  
HETATM   23  C   UNL     1      -9.337  10.271  65.329  1.00  0.00    -0.215 A  
HETATM   24  O   UNL     1      -9.008   7.938  64.895  1.00  0.00    -0.371 OA 
HETATM   25  H   UNL     1      -9.109   8.093  63.962  1.00  0.00     0.000 HD 
HETATM   26  I   UNL     1      -9.516  10.695  63.285  1.00  0.00    -0.394 I  
HETATM   27  C   UNL     1      -9.376  11.346  66.226  1.00  0.00    -0.228 A  
ENDBRANCH  17  18
ENDBRANCH  13  17
ENDBRANCH   8   9
ENDBRANCH   4   8
TORSDOF 4
ENDMDL
MODEL       92
REMARK 921   NORMALIZED FREE ENERGY PREDICTED BY IDOCK:   -4.65 KCAL/MOL
REMARK 922        TOTAL FREE ENERGY PREDICTED BY IDOCK:   -6.56 KCAL/MOL
REMARK 923 INTER-LIGAND FREE ENERGY PREDICTED BY IDOCK:   -6.43 KCAL/MOL
REMARK 924 INTRA-LIGAND FREE ENERGY PREDICTED BY IDOCK:   -0.13 KCAL/MOL
REMARK 927      BINDING AFFINITY PREDICTED BY RF-SCORE:    0.00 PKD
ROOT
HETATM    1  N   UNL     1     -10.125   5.982  67.339  1.00  0.00    -0.146 NA 
HETATM    2  H1  UNL     1     -10.615   5.090  67.281  1.00  0.00     0.000 HD 
HETATM    3  H2  UNL     1      -9.905   6.338  66.410  1.00  0.00     0.000 HD 
HETATM    4  CA  UNL     1      -8.895   5.919  68.193  1.00  0.00    -0.110 C  
HETATM    5  C   UNL     1      -9.310   5.473  69.605  1.00  0.00    -0.134 C  
HETATM    6  OXT UNL     1      -8.579   5.452  70.580  1.00  0.00    -0.118 OA 
HETATM    7  O   UNL     1     -10.615   5.094  69.637  1.00  0.00    -0.261 OA 
ENDROOT
BRANCH   4   8
HETATM    8  C   UNL     1      -8.154   7.265  68.280  1.00  0.00    -0.124 C  
BRANCH   8   9
HETATM    9  C   UNL     1      -9.092   8.446  68.364  1.00  0.00    -0.135 A  
HETATM   10  C   UNL     1      -9.949   8.610  69.456  1.00  0.00    -0.196 A  
HETATM   11  C   UNL     1     -10.851   9.682  69.494  1.00  0.00    -0.231 A  
HETATM   12  I   UNL     1     -12.161   9.756  71.144  1.00  0.00    -0.489 I  
HETATM   13  C   UNL     1     -10.926  10.616  68.440  1.00  0.00    -0.251 A  
HETATM   14  C   UNL     1     -10.126  10.391  67.307  1.00  0.00    -0.200 A  
HETATM   15  C   UNL     1      -9.181   9.350  67.301  1.00  0.00    -0.151 A  
HETATM   16  I   UNL     1     -10.368  11.344  65.433  1.00  0.00    -0.343 I  
BRANCH  13  17
HETATM   17  O   UNL     1     -11.892  11.587  68.576  1.00  0.00    -0.388 OA 
BRANCH  17  18
HETATM   18  C   UNL     1     -11.608  12.836  69.075  1.00  0.00    -0.316 A  
HETATM   19  C   UNL     1     -12.396  13.201  70.170  1.00  0.00    -0.284 A  
HETATM   20  C   UNL     1     -12.332  14.498  70.676  1.00  0.00    -0.339 A  
HETATM   21  I   UNL     1     -13.577  14.998  72.276  1.00  0.00    -0.726 I  
HETATM   22  C   UNL     1     -11.475  15.436  70.091  1.00  0.00    -0.317 A  
HETATM   23  C   UNL     1     -10.624  15.039  69.053  1.00  0.00    -0.245 A  
HETATM   24  O   UNL     1     -11.478  16.741  70.506  1.00  0.00    -0.445 OA 
HETATM   25  H   UNL     1     -10.896  17.379  70.108  1.00  0.00     0.000 HD 
HETATM   26  I   UNL     1      -9.352  16.400  68.095  1.00  0.00    -0.223 I  
HETATM   27  C   UNL     1     -10.656  13.723  68.573  1.00  0.00    -0.261 A  
ENDBRANCH  17  18
ENDBRANCH  13  17
ENDBRANCH   8   9
ENDBRANCH   4   8
TORSDOF 4
ENDMDL
MODEL       93
REMARK 921   NORMALIZED FREE ENERGY PREDICTED BY IDOCK:   -4.62 KCAL/MOL
REMARK 922        TOTAL FREE ENERGY PREDICTED BY IDOCK:   -6.52 KCAL/MOL
REMARK 923 INTER-LIGAND FREE ENERGY PREDICTED BY IDOCK:   -5.72 KCAL/MOL
REMARK 924 INTRA-LIGAND FREE ENERGY PREDICTED BY IDOCK:   -0.80 KCAL/MOL
REMARK 927      BINDING AFFINITY PREDICTED BY RF-SCORE:    0.00 PKD
ROOT
HETATM    1  N   UNL     1      -9.466  18.447  67.976  1.00  0.00    -0.281 NA 
HETATM    2  H1  UNL     1      -8.903  19.233  67.651  1.00  0.00     0.000 HD 
HETATM    3  H2  UNL     1      -9.023  17.986  68.769  1.00  0.00     0.000 HD 
HETATM    4  CA  UNL     1      -9.776  17.462  66.889  1.00  0.00    -0.286 C  
HETATM    5  C   UNL     1     -10.530  18.200  65.770  1.00  0.00    -0.207 C  
HETATM    6  OXT UNL     1     -11.050  17.670  64.805  1.00  0.00    -0.915 OA 
HETATM    7  O   UNL     1     -10.544  19.542  65.989  1.00  0.00    -0.485 OA 
ENDROOT
BRANCH   4   8
HETATM    8  C   UNL     1     -10.625  16.275  67.379  1.00  0.00    -0.307 C  
BRANCH   8   9
HETATM    9  C   UNL     1      -9.894  14.956  67.290  1.00  0.00    -0.229 A  
HETATM   10  C   UNL     1      -8.672  14.764  67.942  1.00  0.00    -0.167 A  
HETATM   11  C   UNL     1      -7.981  13.552  67.807  1.00  0.00    -0.168 A  
HETATM   12  I   UNL     1      -6.100  13.427  68.751  1.00  0.00    -0.115 I  
HETATM   13  C   UNL     1      -8.487  12.502  67.014  1.00  0.00    -0.161 A  
HETATM   14  C   UNL     1      -9.669  12.738  66.291  1.00  0.00    -0.262 A  
HETATM   15  C   UNL     1     -10.389  13.931  66.478  1.00  0.00    -0.286 A  
HETATM   16  I   UNL     1     -10.389  11.539  64.702  1.00  0.00    -0.413 I  
BRANCH  13  17
HETATM   17  O   UNL     1      -7.684  11.388  66.921  1.00  0.00    -0.143 OA 
BRANCH  17  18
HETATM   18  C   UNL     1      -7.966  10.225  67.597  1.00  0.00    -0.102 A  
HETATM   19  C   UNL     1      -7.457   9.076  66.984  1.00  0.00    -0.087 A  
HETATM   20  C   UNL     1      -7.802   7.815  67.468  1.00  0.00    -0.122 A  
HETATM   21  I   UNL     1      -7.056   6.137  66.473  1.00  0.00    -0.071 I  
HETATM   22  C   UNL     1      -8.655   7.697  68.569  1.00  0.00    -0.129 A  
HETATM   23  C   UNL     1      -9.089   8.851  69.233  1.00  0.00    -0.145 A  
HETATM   24  O   UNL     1      -9.089   6.468  68.990  1.00  0.00    -0.132 OA 
HETATM   25  H   UNL     1      -9.669   6.388  69.739  1.00  0.00     0.000 HD 
HETATM   26  I   UNL     1     -10.408   8.754  70.857  1.00  0.00    -0.367 I  
HETATM   27  C   UNL     1      -8.707  10.119  68.774  1.00  0.00    -0.138 A  
ENDBRANCH  17  18
ENDBRANCH  13  17
ENDBRANCH   8   9
ENDBRANCH   4   8
TORSDOF 4
ENDMDL
MODEL       94
REMARK 921   NORMALIZED FREE ENERGY PREDICTED BY IDOCK:   -4.61 KCAL/MOL
REMARK 922        TOTAL FREE ENERGY PREDICTED BY IDOCK:   -6.51 KCAL/MOL
REMARK 923 INTER-LIGAND FREE ENERGY PREDICTED BY IDOCK:   -6.55 KCAL/MOL
REMARK 924 INTRA-LIGAND FREE ENERGY PREDICTED BY IDOCK:    0.04 KCAL/MOL
REMARK 927      BINDING AFFINITY PREDICTED BY RF-SCORE:    0.00 PKD
ROOT
HETATM    1  N   UNL     1      -8.379   5.874  67.859  1.00  0.00    -0.111 NA 
HETATM    2  H1  UNL     1      -8.765   4.957  68.082  1.00  0.00     0.000 HD 
HETATM    3  H2  UNL     1      -8.560   6.538  68.610  1.00  0.00     0.000 HD 
HETATM    4  CA  UNL     1      -8.862   6.407  66.544  1.00  0.00    -0.136 C  
HETATM    5  C   UNL     1      -8.469   5.406  65.444  1.00  0.00    -0.144 C  
HETATM    6  OXT UNL     1      -8.587   5.595  64.246  1.00  0.00    -0.087 OA 
HETATM    7  O   UNL     1      -7.967   4.261  65.978  1.00  0.00    -0.097 OA 
ENDROOT
BRANCH   4   8
HETATM    8  C   UNL     1      -8.280   7.791  66.206  1.00  0.00    -0.122 C  
BRANCH   8   9
HETATM    9  C   UNL     1      -9.296   8.901  66.331  1.00  0.00    -0.262 A  
HETATM   10  C   UNL     1      -9.572   9.751  65.256  1.00  0.00    -0.368 A  
HETATM   11  C   UNL     1     -10.480  10.808  65.405  1.00  0.00    -0.202 A  
HETATM   12  I   UNL     1     -10.727  12.081  63.742  1.00  0.00    -0.568 I  
HETATM   13  C   UNL     1     -11.132  11.050  66.631  1.00  0.00    -0.133 A  
HETATM   14  C   UNL     1     -10.780  10.247  67.730  1.00  0.00    -0.275 A  
HETATM   15  C   UNL     1      -9.916   9.151  67.560  1.00  0.00    -0.258 A  
HETATM   16  I   UNL     1     -11.242  10.673  69.751  1.00  0.00    -0.388 I  
BRANCH  13  17
HETATM   17  O   UNL     1     -11.955  12.153  66.659  1.00  0.00    -0.616 OA 
BRANCH  17  18
HETATM   18  C   UNL     1     -11.628  13.291  67.358  1.00  0.00    -0.353 A  
HETATM   19  C   UNL     1     -10.586  14.026  66.787  1.00  0.00    -0.277 A  
HETATM   20  C   UNL     1     -10.041  15.113  67.470  1.00  0.00    -0.232 A  
HETATM   21  I   UNL     1      -8.447  16.135  66.590  1.00  0.00    -0.352 I  
HETATM   22  C   UNL     1     -10.539  15.470  68.726  1.00  0.00    -0.242 A  
HETATM   23  C   UNL     1     -11.641  14.785  69.252  1.00  0.00    -0.303 A  
HETATM   24  O   UNL     1      -9.946  16.465  69.457  1.00  0.00    -0.236 OA 
HETATM   25  H   UNL     1     -10.284  16.708  70.312  1.00  0.00     0.000 HD 
HETATM   26  I   UNL     1     -12.408  15.231  71.150  1.00  0.00    -0.589 I  
HETATM   27  C   UNL     1     -12.218  13.721  68.546  1.00  0.00    -0.194 A  
ENDBRANCH  17  18
ENDBRANCH  13  17
ENDBRANCH   8   9
ENDBRANCH   4   8
TORSDOF 4
ENDMDL
MODEL       95
REMARK 921   NORMALIZED FREE ENERGY PREDICTED BY IDOCK:   -4.60 KCAL/MOL
REMARK 922        TOTAL FREE ENERGY PREDICTED BY IDOCK:   -6.49 KCAL/MOL
REMARK 923 INTER-LIGAND FREE ENERGY PREDICTED BY IDOCK:   -5.81 KCAL/MOL
REMARK 924 INTRA-LIGAND FREE ENERGY PREDICTED BY IDOCK:   -0.68 KCAL/MOL
REMARK 927      BINDING AFFINITY PREDICTED BY RF-SCORE:    0.00 PKD
ROOT
HETATM    1  N   UNL     1     -10.319  14.065  64.932  1.00  0.00    -0.476 NA 
HETATM    2  H1  UNL     1     -10.058  14.247  63.963  1.00  0.00     0.000 HD 
HETATM    3  H2  UNL     1      -9.498  14.054  65.535  1.00  0.00     0.000 HD 
HETATM    4  CA  UNL     1     -11.119  12.808  65.095  1.00  0.00    -0.291 C  
HETATM    5  C   UNL     1     -12.391  12.931  64.238  1.00  0.00    -0.385 C  
HETATM    6  OXT UNL     1     -13.323  12.147  64.248  1.00  0.00    -0.761 OA 
HETATM    7  O   UNL     1     -12.347  14.038  63.451  1.00  0.00    -0.748 OA 
ENDROOT
BRANCH   4   8
HETATM    8  C   UNL     1     -11.514  12.532  66.557  1.00  0.00    -0.418 C  
BRANCH   8   9
HETATM    9  C   UNL     1     -10.716  11.411  67.178  1.00  0.00    -0.292 A  
HETATM   10  C   UNL     1     -11.125  10.810  68.373  1.00  0.00    -0.323 A  
HETATM   11  C   UNL     1     -10.346   9.806  68.963  1.00  0.00    -0.208 A  
HETATM   12  I   UNL     1     -11.017   9.057  70.817  1.00  0.00    -0.396 I  
HETATM   13  C   UNL     1      -9.135   9.378  68.382  1.00  0.00    -0.128 A  
HETATM   14  C   UNL     1      -8.687  10.051  67.231  1.00  0.00    -0.125 A  
HETATM   15  C   UNL     1      -9.501  11.014  66.610  1.00  0.00    -0.207 A  
HETATM   16  I   UNL     1      -6.730   9.936  66.434  1.00  0.00    -0.099 I  
BRANCH  13  17
HETATM   17  O   UNL     1      -8.439   8.427  69.091  1.00  0.00    -0.120 OA 
BRANCH  17  18
HETATM   18  C   UNL     1      -8.585   7.082  68.848  1.00  0.00    -0.128 A  
HETATM   19  C   UNL     1      -7.883   6.265  69.740  1.00  0.00    -0.110 A  
HETATM   20  C   UNL     1      -7.807   4.891  69.519  1.00  0.00    -0.067 A  
HETATM   21  I   UNL     1      -6.695   3.735  70.856  1.00  0.00    -0.033 I  
HETATM   22  C   UNL     1      -8.435   4.326  68.405  1.00  0.00    -0.092 A  
HETATM   23  C   UNL     1      -9.211   5.136  67.566  1.00  0.00    -0.117 A  
HETATM   24  O   UNL     1      -8.281   2.997  68.114  1.00  0.00    -0.075 OA 
HETATM   25  H   UNL     1      -8.709   2.613  67.357  1.00  0.00     0.000 HD 
HETATM   26  I   UNL     1     -10.138   4.369  65.851  1.00  0.00    -0.098 I  
HETATM   27  C   UNL     1      -9.324   6.510  67.813  1.00  0.00    -0.118 A  
ENDBRANCH  17  18
ENDBRANCH  13  17
ENDBRANCH   8   9
ENDBRANCH   4   8
TORSDOF 4
ENDMDL
MODEL       96
REMARK 921   NORMALIZED FREE ENERGY PREDICTED BY IDOCK:   -4.58 KCAL/MOL
REMARK 922        TOTAL FREE ENERGY PREDICTED BY IDOCK:   -6.48 KCAL/MOL
REMARK 923 INTER-LIGAND FREE ENERGY PREDICTED BY IDOCK:   -6.13 KCAL/MOL
REMARK 924 INTRA-LIGAND FREE ENERGY PREDICTED BY IDOCK:   -0.35 KCAL/MOL
REMARK 927      BINDING AFFINITY PREDICTED BY RF-SCORE:    0.00 PKD
ROOT
HETATM    1  N   UNL     1     -11.442   4.446  64.856  1.00  0.00    -1.068 NA 
HETATM    2  H1  UNL     1     -11.772   4.485  63.891  1.00  0.00     0.000 HD 
HETATM    3  H2  UNL     1     -11.689   5.297  65.360  1.00  0.00     0.000 HD 
HETATM    4  CA  UNL     1      -9.973   4.169  64.960  1.00  0.00    -0.208 C  
HETATM    5  C   UNL     1      -9.686   2.825  64.268  1.00  0.00    -0.143 C  
HETATM    6  OXT UNL     1      -8.619   2.237  64.290  1.00  0.00    -0.085 OA 
HETATM    7  O   UNL     1     -10.784   2.365  63.613  1.00  0.00    -0.175 OA 
ENDROOT
BRANCH   4   8
HETATM    8  C   UNL     1      -9.475   4.110  66.415  1.00  0.00    -0.199 C  
BRANCH   8   9
HETATM    9  C   UNL     1      -9.544   5.448  67.113  1.00  0.00    -0.144 A  
HETATM   10  C   UNL     1      -9.578   6.640  66.384  1.00  0.00    -0.147 A  
HETATM   11  C   UNL     1      -9.590   7.875  67.047  1.00  0.00    -0.192 A  
HETATM   12  I   UNL     1      -9.532   9.599  65.834  1.00  0.00    -0.350 I  
HETATM   13  C   UNL     1      -9.562   7.953  68.454  1.00  0.00    -0.150 A  
HETATM   14  C   UNL     1      -9.436   6.753  69.175  1.00  0.00    -0.141 A  
HETATM   15  C   UNL     1      -9.487   5.516  68.509  1.00  0.00    -0.150 A  
HETATM   16  I   UNL     1      -8.917   6.607  71.222  1.00  0.00    -0.141 I  
BRANCH  13  17
HETATM   17  O   UNL     1      -9.521   9.226  68.977  1.00  0.00    -0.152 OA 
BRANCH  17  18
HETATM   18  C   UNL     1     -10.609   9.801  69.589  1.00  0.00    -0.239 A  
HETATM   19  C   UNL     1     -10.705  11.182  69.393  1.00  0.00    -0.220 A  
HETATM   20  C   UNL     1     -11.663  11.921  70.085  1.00  0.00    -0.253 A  
HETATM   21  I   UNL     1     -11.717  13.988  69.792  1.00  0.00    -0.333 I  
HETATM   22  C   UNL     1     -12.531  11.282  70.975  1.00  0.00    -0.400 A  
HETATM   23  C   UNL     1     -12.489   9.888  71.099  1.00  0.00    -0.368 A  
HETATM   24  O   UNL     1     -13.405  12.006  71.742  1.00  0.00    -0.406 OA 
HETATM   25  H   UNL     1     -13.995  11.572  72.347  1.00  0.00     0.000 HD 
HETATM   26  I   UNL     1     -13.723   8.868  72.450  1.00  0.00    -0.285 I  
HETATM   27  C   UNL     1     -11.556   9.139  70.370  1.00  0.00    -0.181 A  
ENDBRANCH  17  18
ENDBRANCH  13  17
ENDBRANCH   8   9
ENDBRANCH   4   8
TORSDOF 4
ENDMDL
MODEL       97
REMARK 921   NORMALIZED FREE ENERGY PREDICTED BY IDOCK:   -4.57 KCAL/MOL
REMARK 922        TOTAL FREE ENERGY PREDICTED BY IDOCK:   -6.46 KCAL/MOL
REMARK 923 INTER-LIGAND FREE ENERGY PREDICTED BY IDOCK:   -5.72 KCAL/MOL
REMARK 924 INTRA-LIGAND FREE ENERGY PREDICTED BY IDOCK:   -0.73 KCAL/MOL
REMARK 927      BINDING AFFINITY PREDICTED BY RF-SCORE:    0.00 PKD
ROOT
HETATM    1  N   UNL     1     -11.297   4.693  65.439  1.00  0.00    -1.028 NA 
HETATM    2  H1  UNL     1     -11.070   4.313  64.520  1.00  0.00     0.000 HD 
HETATM    3  H2  UNL     1     -12.055   5.371  65.376  1.00  0.00     0.000 HD 
HETATM    4  CA  UNL     1     -10.109   5.281  66.138  1.00  0.00    -0.172 C  
HETATM    5  C   UNL     1      -9.045   4.181  66.290  1.00  0.00    -0.134 C  
HETATM    6  OXT UNL     1      -8.015   4.282  66.933  1.00  0.00    -0.096 OA 
HETATM    7  O   UNL     1      -9.395   3.061  65.604  1.00  0.00    -0.150 OA 
ENDROOT
BRANCH   4   8
HETATM    8  C   UNL     1     -10.452   5.854  67.526  1.00  0.00    -0.306 C  
BRANCH   8   9
HETATM    9  C   UNL     1     -10.015   7.291  67.691  1.00  0.00    -0.207 A  
HETATM   10  C   UNL     1      -8.800   7.740  67.165  1.00  0.00    -0.130 A  
HETATM   11  C   UNL     1      -8.386   9.063  67.371  1.00  0.00    -0.112 A  
HETATM   12  I   UNL     1      -6.486   9.585  66.618  1.00  0.00    -0.068 I  
HETATM   13  C   UNL     1      -9.169   9.971  68.112  1.00  0.00    -0.128 A  
HETATM   14  C   UNL     1     -10.343   9.485  68.714  1.00  0.00    -0.208 A  
HETATM   15  C   UNL     1     -10.784   8.176  68.453  1.00  0.00    -0.066 A  
HETATM   16  I   UNL     1     -11.440  10.477  70.227  1.00  0.00    -0.389 I  
BRANCH  13  17
HETATM   17  O   UNL     1      -8.621  11.221  68.289  1.00  0.00    -0.140 OA 
BRANCH  17  18
HETATM   18  C   UNL     1      -9.038  12.310  67.561  1.00  0.00    -0.182 A  
HETATM   19  C   UNL     1      -8.167  13.402  67.628  1.00  0.00    -0.177 A  
HETATM   20  C   UNL     1      -8.538  14.627  67.075  1.00  0.00    -0.224 A  
HETATM   21  I   UNL     1      -7.218  16.235  67.258  1.00  0.00    -0.257 I  
HETATM   22  C   UNL     1      -9.780  14.765  66.450  1.00  0.00    -0.291 A  
HETATM   23  C   UNL     1     -10.609  13.644  66.308  1.00  0.00    -0.289 A  
HETATM   24  O   UNL     1     -10.205  15.985  65.997  1.00  0.00    -0.301 OA 
HETATM   25  H   UNL     1     -11.050  16.079  65.572  1.00  0.00     0.000 HD 
HETATM   26  I   UNL     1     -12.505  13.786  65.429  1.00  0.00    -0.439 I  
HETATM   27  C   UNL     1     -10.218  12.402  66.824  1.00  0.00    -0.234 A  
ENDBRANCH  17  18
ENDBRANCH  13  17
ENDBRANCH   8   9
ENDBRANCH   4   8
TORSDOF 4
ENDMDL
MODEL       98
REMARK 921   NORMALIZED FREE ENERGY PREDICTED BY IDOCK:   -4.56 KCAL/MOL
REMARK 922        TOTAL FREE ENERGY PREDICTED BY IDOCK:   -6.44 KCAL/MOL
REMARK 923 INTER-LIGAND FREE ENERGY PREDICTED BY IDOCK:   -6.27 KCAL/MOL
REMARK 924 INTRA-LIGAND FREE ENERGY PREDICTED BY IDOCK:   -0.18 KCAL/MOL
REMARK 927      BINDING AFFINITY PREDICTED BY RF-SCORE:    0.00 PKD
ROOT
HETATM    1  N   UNL     1      -9.263  15.292  69.762  1.00  0.00    -0.443 NA 
HETATM    2  H1  UNL     1      -9.770  15.546  70.610  1.00  0.00     0.000 HD 
HETATM    3  H2  UNL     1      -8.376  14.844  69.988  1.00  0.00     0.000 HD 
HETATM    4  CA  UNL     1      -9.056  16.452  68.836  1.00  0.00    -0.256 C  
HETATM    5  C   UNL     1     -10.435  17.018  68.456  1.00  0.00    -0.373 C  
HETATM    6  OXT UNL     1     -10.635  17.874  67.613  1.00  0.00    -0.390 OA 
HETATM    7  O   UNL     1     -11.422  16.440  69.190  1.00  0.00    -0.288 OA 
ENDROOT
BRANCH   4   8
HETATM    8  C   UNL     1      -8.291  16.069  67.556  1.00  0.00    -0.177 C  
BRANCH   8   9
HETATM    9  C   UNL     1      -8.630  14.682  67.063  1.00  0.00    -0.249 A  
HETATM   10  C   UNL     1      -9.826  14.431  66.383  1.00  0.00    -0.309 A  
HETATM   11  C   UNL     1     -10.149  13.129  65.978  1.00  0.00    -0.286 A  
HETATM   12  I   UNL     1     -12.028  12.867  65.057  1.00  0.00    -0.551 I  
HETATM   13  C   UNL     1      -9.293  12.042  66.247  1.00  0.00    -0.223 A  
HETATM   14  C   UNL     1      -8.140  12.289  67.011  1.00  0.00    -0.141 A  
HETATM   15  C   UNL     1      -7.789  13.605  67.360  1.00  0.00    -0.162 A  
HETATM   16  I   UNL     1      -6.946  10.807  67.936  1.00  0.00    -0.077 I  
BRANCH  13  17
HETATM   17  O   UNL     1      -9.756  10.809  65.846  1.00  0.00    -0.204 OA 
BRANCH  17  18
HETATM   18  C   UNL     1     -10.103   9.830  66.747  1.00  0.00    -0.231 A  
HETATM   19  C   UNL     1     -10.744  10.316  67.891  1.00  0.00    -0.310 A  
HETATM   20  C   UNL     1     -11.008   9.461  68.960  1.00  0.00    -0.067 A  
HETATM   21  I   UNL     1     -11.916  10.259  70.663  1.00  0.00    -0.464 I  
HETATM   22  C   UNL     1     -10.634   8.116  68.889  1.00  0.00    -0.140 A  
HETATM   23  C   UNL     1     -10.073   7.617  67.707  1.00  0.00    -0.186 A  
HETATM   24  O   UNL     1     -10.788   7.289  69.970  1.00  0.00    -0.244 OA 
HETATM   25  H   UNL     1     -10.533   6.374  69.922  1.00  0.00     0.000 HD 
HETATM   26  I   UNL     1      -9.441   5.626  67.546  1.00  0.00    -0.156 I  
HETATM   27  C   UNL     1      -9.849   8.466  66.615  1.00  0.00    -0.343 A  
ENDBRANCH  17  18
ENDBRANCH  13  17
ENDBRANCH   8   9
ENDBRANCH   4   8
TORSDOF 4
ENDMDL
MODEL       99
REMARK 921   NORMALIZED FREE ENERGY PREDICTED BY IDOCK:   -4.55 KCAL/MOL
REMARK 922        TOTAL FREE ENERGY PREDICTED BY IDOCK:   -6.44 KCAL/MOL
REMARK 923 INTER-LIGAND FREE ENERGY PREDICTED BY IDOCK:   -6.52 KCAL/MOL
REMARK 924 INTRA-LIGAND FREE ENERGY PREDICTED BY IDOCK:    0.08 KCAL/MOL
REMARK 927      BINDING AFFINITY PREDICTED BY RF-SCORE:    0.00 PKD
ROOT
HETATM    1  N   UNL     1     -10.473  15.266  70.568  1.00  0.00    -0.504 NA 
HETATM    2  H1  UNL     1     -10.238  16.221  70.841  1.00  0.00     0.000 HD 
HETATM    3  H2  UNL     1      -9.777  14.890  69.925  1.00  0.00     0.000 HD 
HETATM    4  CA  UNL     1     -11.852  15.145  69.995  1.00  0.00    -0.325 C  
HETATM    5  C   UNL     1     -12.858  15.635  71.050  1.00  0.00    -0.463 C  
HETATM    6  OXT UNL     1     -14.069  15.543  70.964  1.00  0.00    -0.513 OA 
HETATM    7  O   UNL     1     -12.221  16.198  72.111  1.00  0.00    -0.469 OA 
ENDROOT
BRANCH   4   8
HETATM    8  C   UNL     1     -12.207  13.704  69.583  1.00  0.00    -0.326 C  
BRANCH   8   9
HETATM    9  C   UNL     1     -11.402  13.218  68.401  1.00  0.00    -0.326 A  
HETATM   10  C   UNL     1     -11.994  13.050  67.146  1.00  0.00    -0.389 A  
HETATM   11  C   UNL     1     -11.246  12.549  66.072  1.00  0.00    -0.315 A  
HETATM   12  I   UNL     1     -12.282  12.242  64.261  1.00  0.00    -0.420 I  
HETATM   13  C   UNL     1      -9.890  12.195  66.223  1.00  0.00    -0.234 A  
HETATM   14  C   UNL     1      -9.329  12.281  67.509  1.00  0.00    -0.183 A  
HETATM   15  C   UNL     1     -10.065  12.842  68.568  1.00  0.00    -0.189 A  
HETATM   16  I   UNL     1      -7.501  11.398  68.106  1.00  0.00    -0.123 I  
BRANCH  13  17
HETATM   17  O   UNL     1      -9.287  11.662  65.106  1.00  0.00    -0.175 OA 
BRANCH  17  18
HETATM   18  C   UNL     1      -8.888  10.348  65.047  1.00  0.00    -0.191 A  
HETATM   19  C   UNL     1      -9.682   9.481  65.804  1.00  0.00    -0.357 A  
HETATM   20  C   UNL     1      -9.302   8.150  65.969  1.00  0.00    -0.117 A  
HETATM   21  I   UNL     1     -10.500   6.920  67.158  1.00  0.00    -0.394 I  
HETATM   22  C   UNL     1      -8.128   7.679  65.375  1.00  0.00    -0.128 A  
HETATM   23  C   UNL     1      -7.385   8.529  64.546  1.00  0.00    -0.093 A  
HETATM   24  O   UNL     1      -7.684   6.406  65.615  1.00  0.00    -0.085 OA 
HETATM   25  H   UNL     1      -6.885   6.086  65.211  1.00  0.00     0.000 HD 
HETATM   26  I   UNL     1      -5.588   7.909  63.666  1.00  0.00    -0.055 I  
HETATM   27  C   UNL     1      -7.790   9.855  64.344  1.00  0.00    -0.142 A  
ENDBRANCH  17  18
ENDBRANCH  13  17
ENDBRANCH   8   9
ENDBRANCH   4   8
TORSDOF 4
ENDMDL
MODEL      100
REMARK 921   NORMALIZED FREE ENERGY PREDICTED BY IDOCK:   -4.54 KCAL/MOL
REMARK 922        TOTAL FREE ENERGY PREDICTED BY IDOCK:   -6.42 KCAL/MOL
REMARK 923 INTER-LIGAND FREE ENERGY PREDICTED BY IDOCK:   -6.22 KCAL/MOL
REMARK 924 INTRA-LIGAND FREE ENERGY PREDICTED BY IDOCK:   -0.20 KCAL/MOL
REMARK 927      BINDING AFFINITY PREDICTED BY RF-SCORE:    0.00 PKD
ROOT
HETATM    1  N   UNL     1      -9.313   7.065  69.175  1.00  0.00    -0.141 NA 
HETATM    2  H1  UNL     1      -8.707   6.746  69.931  1.00  0.00     0.000 HD 
HETATM    3  H2  UNL     1      -8.873   6.914  68.268  1.00  0.00     0.000 HD 
HETATM    4  CA  UNL     1      -9.739   8.493  69.332  1.00  0.00    -0.177 C  
HETATM    5  C   UNL     1     -10.482   8.630  70.672  1.00  0.00    -0.204 C  
HETATM    6  OXT UNL     1     -11.080   9.623  71.046  1.00  0.00    -0.314 OA 
HETATM    7  O   UNL     1     -10.387   7.490  71.405  1.00  0.00    -0.195 OA 
ENDROOT
BRANCH   4   8
HETATM    8  C   UNL     1     -10.653   8.975  68.190  1.00  0.00    -0.225 C  
BRANCH   8   9
HETATM    9  C   UNL     1     -10.210  10.293  67.602  1.00  0.00    -0.247 A  
HETATM   10  C   UNL     1      -8.941  10.813  67.873  1.00  0.00    -0.139 A  
HETATM   11  C   UNL     1      -8.563  12.062  67.361  1.00  0.00    -0.171 A  
HETATM   12  I   UNL     1      -6.664  12.781  67.930  1.00  0.00    -0.168 I  
HETATM   13  C   UNL     1      -9.444  12.829  66.571  1.00  0.00    -0.253 A  
HETATM   14  C   UNL     1     -10.748  12.340  66.381  1.00  0.00    -0.251 A  
HETATM   15  C   UNL     1     -11.101  11.060  66.844  1.00  0.00    -0.280 A  
HETATM   16  I   UNL     1     -12.381  13.470  65.649  1.00  0.00    -0.480 I  
BRANCH  13  17
HETATM   17  O   UNL     1      -8.971  14.061  66.180  1.00  0.00    -0.025 OA 
BRANCH  17  18
HETATM   18  C   UNL     1      -9.138  15.186  66.951  1.00  0.00    -0.247 A  
HETATM   19  C   UNL     1      -9.886  14.971  68.112  1.00  0.00    -0.216 A  
HETATM   20  C   UNL     1     -10.273  16.051  68.905  1.00  0.00    -0.231 A  
HETATM   21  I   UNL     1     -11.438  15.669  70.595  1.00  0.00    -0.512 I  
HETATM   22  C   UNL     1      -9.910  17.351  68.541  1.00  0.00    -0.320 A  
HETATM   23  C   UNL     1      -9.086  17.551  67.426  1.00  0.00    -0.237 A  
HETATM   24  O   UNL     1     -10.371  18.430  69.247  1.00  0.00    -0.461 OA 
HETATM   25  H   UNL     1     -10.124  19.314  69.000  1.00  0.00     0.000 HD 
HETATM   26  I   UNL     1      -8.545  19.473  66.792  1.00  0.00    -0.431 I  
HETATM   27  C   UNL     1      -8.660  16.462  66.655  1.00  0.00    -0.295 A  
ENDBRANCH  17  18
ENDBRANCH  13  17
ENDBRANCH   8   9
ENDBRANCH   4   8
TORSDOF 4
ENDMDL
MODEL      101
REMARK 921   NORMALIZED FREE ENERGY PREDICTED BY IDOCK:   -4.52 KCAL/MOL
REMARK 922        TOTAL FREE ENERGY PREDICTED BY IDOCK:   -6.40 KCAL/MOL
REMARK 923 INTER-LIGAND FREE ENERGY PREDICTED BY IDOCK:   -6.52 KCAL/MOL
REMARK 924 INTRA-LIGAND FREE ENERGY PREDICTED BY IDOCK:    0.12 KCAL/MOL
REMARK 927      BINDING AFFINITY PREDICTED BY RF-SCORE:    0.00 PKD
ROOT
HETATM    1  N   UNL     1     -11.252   4.778  65.497  1.00  0.00    -0.968 NA 
HETATM    2  H1  UNL     1     -11.195   5.045  64.514  1.00  0.00     0.000 HD 
HETATM    3  H2  UNL     1     -12.181   4.967  65.872  1.00  0.00     0.000 HD 
HETATM    4  CA  UNL     1     -10.194   5.421  66.340  1.00  0.00    -0.226 C  
HETATM    5  C   UNL     1      -8.819   5.015  65.781  1.00  0.00    -0.139 C  
HETATM    6  OXT UNL     1      -7.747   5.250  66.310  1.00  0.00    -0.087 OA 
HETATM    7  O   UNL     1      -8.945   4.353  64.600  1.00  0.00    -0.140 OA 
ENDROOT
BRANCH   4   8
HETATM    8  C   UNL     1     -10.280   5.018  67.823  1.00  0.00    -0.156 C  
BRANCH   8   9
HETATM    9  C   UNL     1     -10.378   6.207  68.749  1.00  0.00    -0.256 A  
HETATM   10  C   UNL     1     -11.503   6.402  69.555  1.00  0.00    -0.412 A  
HETATM   11  C   UNL     1     -11.602   7.538  70.370  1.00  0.00    -0.149 A  
HETATM   12  I   UNL     1     -13.395   7.768  71.456  1.00  0.00    -0.206 I  
HETATM   13  C   UNL     1     -10.585   8.513  70.397  1.00  0.00    -0.223 A  
HETATM   14  C   UNL     1      -9.501   8.355  69.516  1.00  0.00    -0.166 A  
HETATM   15  C   UNL     1      -9.377   7.184  68.747  1.00  0.00    -0.135 A  
HETATM   16  I   UNL     1      -8.098   9.860  69.022  1.00  0.00    -0.144 I  
BRANCH  13  17
HETATM   17  O   UNL     1     -10.831   9.606  71.196  1.00  0.00    -0.337 OA 
BRANCH  17  18
HETATM   18  C   UNL     1     -11.436  10.742  70.714  1.00  0.00    -0.122 A  
HETATM   19  C   UNL     1     -11.234  10.955  69.347  1.00  0.00    -0.335 A  
HETATM   20  C   UNL     1     -11.650  12.147  68.755  1.00  0.00    -0.327 A  
HETATM   21  I   UNL     1     -11.266  12.428  66.722  1.00  0.00    -0.425 I  
HETATM   22  C   UNL     1     -12.273  13.131  69.528  1.00  0.00    -0.158 A  
HETATM   23  C   UNL     1     -12.553  12.875  70.876  1.00  0.00    -0.270 A  
HETATM   24  O   UNL     1     -12.591  14.348  68.988  1.00  0.00    -0.553 OA 
HETATM   25  H   UNL     1     -13.015  15.018  69.513  1.00  0.00     0.000 HD 
HETATM   26  I   UNL     1     -13.438  14.321  72.107  1.00  0.00    -0.696 I  
HETATM   27  C   UNL     1     -12.175  11.659  71.461  1.00  0.00     0.101 A  
ENDBRANCH  17  18
ENDBRANCH  13  17
ENDBRANCH   8   9
ENDBRANCH   4   8
TORSDOF 4
ENDMDL
MODEL      102
REMARK 921   NORMALIZED FREE ENERGY PREDICTED BY IDOCK:   -4.52 KCAL/MOL
REMARK 922        TOTAL FREE ENERGY PREDICTED BY IDOCK:   -6.39 KCAL/MOL
REMARK 923 INTER-LIGAND FREE ENERGY PREDICTED BY IDOCK:   -6.57 KCAL/MOL
REMARK 924 INTRA-LIGAND FREE ENERGY PREDICTED BY IDOCK:    0.17 KCAL/MOL
REMARK 927      BINDING AFFINITY PREDICTED BY RF-SCORE:    0.00 PKD
ROOT
HETATM    1  N   UNL     1      -9.907   5.264  71.163  1.00  0.00    -0.180 NA 
HETATM    2  H1  UNL     1     -10.329   4.350  71.331  1.00  0.00     0.000 HD 
HETATM    3  H2  UNL     1      -9.224   5.216  70.408  1.00  0.00     0.000 HD 
HETATM    4  CA  UNL     1      -9.302   5.864  72.396  1.00  0.00    -0.143 C  
HETATM    5  C   UNL     1     -10.406   6.000  73.458  1.00  0.00    -0.244 C  
HETATM    6  OXT UNL     1     -10.289   6.575  74.525  1.00  0.00    -0.341 OA 
HETATM    7  O   UNL     1     -11.551   5.386  73.058  1.00  0.00    -0.296 OA 
ENDROOT
BRANCH   4   8
HETATM    8  C   UNL     1      -8.665   7.243  72.142  1.00  0.00    -0.134 C  
BRANCH   8   9
HETATM    9  C   UNL     1      -9.365   8.020  71.054  1.00  0.00    -0.170 A  
HETATM   10  C   UNL     1     -10.325   8.989  71.363  1.00  0.00    -0.396 A  
HETATM   11  C   UNL     1     -11.003   9.665  70.340  1.00  0.00    -0.299 A  
HETATM   12  I   UNL     1     -12.501  11.024  70.937  1.00  0.00    -0.409 I  
HETATM   13  C   UNL     1     -10.747   9.389  68.981  1.00  0.00    -0.187 A  
HETATM   14  C   UNL     1      -9.849   8.350  68.682  1.00  0.00    -0.170 A  
HETATM   15  C   UNL     1      -9.126   7.719  69.709  1.00  0.00    -0.147 A  
HETATM   16  I   UNL     1      -9.632   7.432  66.788  1.00  0.00    -0.219 I  
BRANCH  13  17
HETATM   17  O   UNL     1     -11.521  10.082  68.078  1.00  0.00    -0.178 OA 
BRANCH  17  18
HETATM   18  C   UNL     1     -10.976  10.950  67.163  1.00  0.00    -0.272 A  
HETATM   19  C   UNL     1     -11.039  12.293  67.549  1.00  0.00    -0.326 A  
HETATM   20  C   UNL     1     -10.674  13.296  66.653  1.00  0.00    -0.280 A  
HETATM   21  I   UNL     1     -10.846  15.284  67.270  1.00  0.00    -0.283 I  
HETATM   22  C   UNL     1     -10.239  12.961  65.367  1.00  0.00    -0.287 A  
HETATM   23  C   UNL     1     -10.093  11.613  65.018  1.00  0.00    -0.263 A  
HETATM   24  O   UNL     1      -9.979  13.935  64.440  1.00  0.00    -0.719 OA 
HETATM   25  H   UNL     1      -9.684  13.707  63.566  1.00  0.00     0.000 HD 
HETATM   26  I   UNL     1      -9.498  11.036  63.094  1.00  0.00    -0.382 I  
HETATM   27  C   UNL     1     -10.418  10.603  65.933  1.00  0.00    -0.243 A  
ENDBRANCH  17  18
ENDBRANCH  13  17
ENDBRANCH   8   9
ENDBRANCH   4   8
TORSDOF 4
ENDMDL
MODEL      103
REMARK 921   NORMALIZED FREE ENERGY PREDICTED BY IDOCK:   -4.49 KCAL/MOL
REMARK 922        TOTAL FREE ENERGY PREDICTED BY IDOCK:   -6.37 KCAL/MOL
REMARK 923 INTER-LIGAND FREE ENERGY PREDICTED BY IDOCK:   -5.83 KCAL/MOL
REMARK 924 INTRA-LIGAND FREE ENERGY PREDICTED BY IDOCK:   -0.54 KCAL/MOL
REMARK 927      BINDING AFFINITY PREDICTED BY RF-SCORE:    0.00 PKD
ROOT
HETATM    1  N   UNL     1     -12.458   6.468  71.764  1.00  0.00    -0.325 NA 
HETATM    2  H1  UNL     1     -13.208   6.950  72.259  1.00  0.00     0.000 HD 
HETATM    3  H2  UNL     1     -12.818   5.661  71.256  1.00  0.00     0.000 HD 
HETATM    4  CA  UNL     1     -11.323   6.075  72.660  1.00  0.00    -0.277 C  
HETATM    5  C   UNL     1     -10.763   7.348  73.316  1.00  0.00    -0.391 C  
HETATM    6  OXT UNL     1      -9.751   7.405  73.992  1.00  0.00    -0.273 OA 
HETATM    7  O   UNL     1     -11.549   8.425  73.049  1.00  0.00    -0.186 OA 
ENDROOT
BRANCH   4   8
HETATM    8  C   UNL     1     -10.192   5.347  71.912  1.00  0.00    -0.258 C  
BRANCH   8   9
HETATM    9  C   UNL     1      -9.813   6.026  70.617  1.00  0.00    -0.222 A  
HETATM   10  C   UNL     1     -10.212   5.501  69.384  1.00  0.00    -0.329 A  
HETATM   11  C   UNL     1      -9.809   6.115  68.190  1.00  0.00    -0.131 A  
HETATM   12  I   UNL     1     -10.388   5.165  66.398  1.00  0.00    -0.188 I  
HETATM   13  C   UNL     1      -8.992   7.263  68.194  1.00  0.00    -0.132 A  
HETATM   14  C   UNL     1      -8.521   7.729  69.434  1.00  0.00    -0.134 A  
HETATM   15  C   UNL     1      -8.978   7.148  70.630  1.00  0.00    -0.154 A  
HETATM   16  I   UNL     1      -6.945   9.116  69.699  1.00  0.00    -0.069 I  
BRANCH  13  17
HETATM   17  O   UNL     1      -8.622   7.733  66.954  1.00  0.00    -0.124 OA 
BRANCH  17  18
HETATM   18  C   UNL     1      -9.173   8.867  66.408  1.00  0.00    -0.189 A  
HETATM   19  C   UNL     1      -8.829   9.075  65.069  1.00  0.00    -0.213 A  
HETATM   20  C   UNL     1      -9.181  10.265  64.433  1.00  0.00    -0.252 A  
HETATM   21  I   UNL     1      -8.587  10.540  62.450  1.00  0.00    -0.378 I  
HETATM   22  C   UNL     1      -9.882  11.251  65.133  1.00  0.00    -0.252 A  
HETATM   23  C   UNL     1     -10.301  11.000  66.446  1.00  0.00    -0.250 A  
HETATM   24  O   UNL     1     -10.141  12.467  64.559  1.00  0.00    -0.417 OA 
HETATM   25  H   UNL     1     -10.618  13.138  65.035  1.00  0.00     0.000 HD 
HETATM   26  I   UNL     1     -11.309  12.449  67.573  1.00  0.00    -0.428 I  
HETATM   27  C   UNL     1      -9.986   9.786  67.071  1.00  0.00    -0.259 A  
ENDBRANCH  17  18
ENDBRANCH  13  17
ENDBRANCH   8   9
ENDBRANCH   4   8
TORSDOF 4
ENDMDL
MODEL      104
REMARK 921   NORMALIZED FREE ENERGY PREDICTED BY IDOCK:   -4.46 KCAL/MOL
REMARK 922        TOTAL FREE ENERGY PREDICTED BY IDOCK:   -6.33 KCAL/MOL
REMARK 923 INTER-LIGAND FREE ENERGY PREDICTED BY IDOCK:   -5.94 KCAL/MOL
REMARK 924 INTRA-LIGAND FREE ENERGY PREDICTED BY IDOCK:   -0.39 KCAL/MOL
REMARK 927      BINDING AFFINITY PREDICTED BY RF-SCORE:    0.00 PKD
ROOT
HETATM    1  N   UNL     1     -13.092  15.118  70.145  1.00  0.00    -0.643 NA 
HETATM    2  H1  UNL     1     -14.074  14.957  70.371  1.00  0.00     0.000 HD 
HETATM    3  H2  UNL     1     -12.992  15.892  69.490  1.00  0.00     0.000 HD 
HETATM    4  CA  UNL     1     -12.401  13.891  69.634  1.00  0.00    -0.249 C  
HETATM    5  C   UNL     1     -12.502  12.796  70.709  1.00  0.00    -0.271 C  
HETATM    6  OXT UNL     1     -11.930  11.722  70.675  1.00  0.00    -0.350 OA 
HETATM    7  O   UNL     1     -13.327  13.177  71.721  1.00  0.00    -0.409 OA 
ENDROOT
BRANCH   4   8
HETATM    8  C   UNL     1     -10.919  14.134  69.292  1.00  0.00    -0.252 C  
BRANCH   8   9
HETATM    9  C   UNL     1     -10.421  13.246  68.177  1.00  0.00    -0.251 A  
HETATM   10  C   UNL     1      -9.102  12.785  68.157  1.00  0.00    -0.203 A  
HETATM   11  C   UNL     1      -8.641  12.004  67.089  1.00  0.00    -0.182 A  
HETATM   12  I   UNL     1      -6.603  11.463  67.125  1.00  0.00    -0.139 I  
HETATM   13  C   UNL     1      -9.482  11.668  66.009  1.00  0.00    -0.229 A  
HETATM   14  C   UNL     1     -10.778  12.211  65.993  1.00  0.00    -0.273 A  
HETATM   15  C   UNL     1     -11.254  12.942  67.096  1.00  0.00    -0.329 A  
HETATM   16  I   UNL     1     -12.065  12.253  64.313  1.00  0.00    -0.464 I  
BRANCH  13  17
HETATM   17  O   UNL     1      -8.890  10.945  64.998  1.00  0.00    -0.194 OA 
BRANCH  17  18
HETATM   18  C   UNL     1      -8.774   9.576  65.049  1.00  0.00    -0.177 A  
HETATM   19  C   UNL     1      -9.621   8.971  65.983  1.00  0.00    -0.342 A  
HETATM   20  C   UNL     1      -9.498   7.610  66.260  1.00  0.00    -0.110 A  
HETATM   21  I   UNL     1     -10.753   6.778  67.707  1.00  0.00    -0.336 I  
HETATM   22  C   UNL     1      -8.530   6.847  65.601  1.00  0.00    -0.136 A  
HETATM   23  C   UNL     1      -7.746   7.439  64.603  1.00  0.00    -0.118 A  
HETATM   24  O   UNL     1      -8.324   5.536  65.937  1.00  0.00    -0.116 OA 
HETATM   25  H   UNL     1      -7.665   5.017  65.489  1.00  0.00     0.000 HD 
HETATM   26  I   UNL     1      -6.242   6.372  63.610  1.00  0.00    -0.026 I  
HETATM   27  C   UNL     1      -7.900   8.797  64.293  1.00  0.00    -0.133 A  
ENDBRANCH  17  18
ENDBRANCH  13  17
ENDBRANCH   8   9
ENDBRANCH   4   8
TORSDOF 4
ENDMDL
MODEL      105
REMARK 921   NORMALIZED FREE ENERGY PREDICTED BY IDOCK:   -4.46 KCAL/MOL
REMARK 922        TOTAL FREE ENERGY PREDICTED BY IDOCK:   -6.32 KCAL/MOL
REMARK 923 INTER-LIGAND FREE ENERGY PREDICTED BY IDOCK:   -6.41 KCAL/MOL
REMARK 924 INTRA-LIGAND FREE ENERGY PREDICTED BY IDOCK:    0.08 KCAL/MOL
REMARK 927      BINDING AFFINITY PREDICTED BY RF-SCORE:    0.00 PKD
ROOT
HETATM    1  N   UNL     1     -12.305   6.967  69.980  1.00  0.00    -0.420 NA 
HETATM    2  H1  UNL     1     -12.520   6.713  70.944  1.00  0.00     0.000 HD 
HETATM    3  H2  UNL     1     -13.138   6.914  69.395  1.00  0.00     0.000 HD 
HETATM    4  CA  UNL     1     -11.189   6.154  69.396  1.00  0.00    -0.396 C  
HETATM    5  C   UNL     1      -9.938   6.356  70.267  1.00  0.00    -0.168 C  
HETATM    6  OXT UNL     1      -8.821   5.951  69.999  1.00  0.00    -0.134 OA 
HETATM    7  O   UNL     1     -10.233   7.052  71.397  1.00  0.00    -0.197 OA 
ENDROOT
BRANCH   4   8
HETATM    8  C   UNL     1     -10.865   6.536  67.941  1.00  0.00    -0.383 C  
BRANCH   8   9
HETATM    9  C   UNL     1     -10.380   7.960  67.803  1.00  0.00    -0.289 A  
HETATM   10  C   UNL     1      -9.133   8.245  67.239  1.00  0.00    -0.157 A  
HETATM   11  C   UNL     1      -8.676   9.568  67.166  1.00  0.00    -0.132 A  
HETATM   12  I   UNL     1      -6.735   9.854  66.391  1.00  0.00    -0.099 I  
HETATM   13  C   UNL     1      -9.446  10.640  67.660  1.00  0.00    -0.153 A  
HETATM   14  C   UNL     1     -10.655  10.335  68.308  1.00  0.00    -0.221 A  
HETATM   15  C   UNL     1     -11.138   9.014  68.323  1.00  0.00     0.155 A  
HETATM   16  I   UNL     1     -11.760  11.668  69.524  1.00  0.00    -0.396 I  
BRANCH  13  17
HETATM   17  O   UNL     1      -8.857  11.882  67.579  1.00  0.00    -0.158 OA 
BRANCH  17  18
HETATM   18  C   UNL     1      -9.445  12.927  66.908  1.00  0.00    -0.237 A  
HETATM   19  C   UNL     1     -10.366  12.529  65.934  1.00  0.00    -0.284 A  
HETATM   20  C   UNL     1     -10.917  13.470  65.066  1.00  0.00    -0.335 A  
HETATM   21  I   UNL     1     -12.242  12.803  63.597  1.00  0.00    -0.428 I  
HETATM   22  C   UNL     1     -10.553  14.816  65.171  1.00  0.00    -0.417 A  
HETATM   23  C   UNL     1      -9.700  15.221  66.205  1.00  0.00    -0.314 A  
HETATM   24  O   UNL     1     -11.002  15.735  64.261  1.00  0.00    -0.821 OA 
HETATM   25  H   UNL     1     -10.754  16.650  64.332  1.00  0.00     0.000 HD 
HETATM   26  I   UNL     1      -9.070  17.210  66.392  1.00  0.00    -0.192 I  
HETATM   27  C   UNL     1      -9.180  14.282  67.105  1.00  0.00    -0.230 A  
ENDBRANCH  17  18
ENDBRANCH  13  17
ENDBRANCH   8   9
ENDBRANCH   4   8
TORSDOF 4
ENDMDL
MODEL      106
REMARK 921   NORMALIZED FREE ENERGY PREDICTED BY IDOCK:   -4.46 KCAL/MOL
REMARK 922        TOTAL FREE ENERGY PREDICTED BY IDOCK:   -6.32 KCAL/MOL
REMARK 923 INTER-LIGAND FREE ENERGY PREDICTED BY IDOCK:   -6.09 KCAL/MOL
REMARK 924 INTRA-LIGAND FREE ENERGY PREDICTED BY IDOCK:   -0.23 KCAL/MOL
REMARK 927      BINDING AFFINITY PREDICTED BY RF-SCORE:    0.00 PKD
ROOT
HETATM    1  N   UNL     1     -12.348   6.655  72.333  1.00  0.00    -0.526 NA 
HETATM    2  H1  UNL     1     -12.582   6.610  73.325  1.00  0.00     0.000 HD 
HETATM    3  H2  UNL     1     -13.154   6.414  71.758  1.00  0.00     0.000 HD 
HETATM    4  CA  UNL     1     -11.163   5.811  71.974  1.00  0.00    -0.247 C  
HETATM    5  C   UNL     1      -9.960   6.292  72.804  1.00  0.00    -0.172 C  
HETATM    6  OXT UNL     1      -8.810   5.916  72.659  1.00  0.00    -0.123 OA 
HETATM    7  O   UNL     1     -10.340   7.202  73.739  1.00  0.00    -0.351 OA 
ENDROOT
BRANCH   4   8
HETATM    8  C   UNL     1     -10.809   5.878  70.477  1.00  0.00    -0.366 C  
BRANCH   8   9
HETATM    9  C   UNL     1     -10.358   7.252  70.042  1.00  0.00    -0.222 A  
HETATM   10  C   UNL     1      -9.048   7.477  69.611  1.00  0.00    -0.140 A  
HETATM   11  C   UNL     1      -8.630   8.768  69.260  1.00  0.00    -0.130 A  
HETATM   12  I   UNL     1      -6.602   8.993  68.728  1.00  0.00    -0.054 I  
HETATM   13  C   UNL     1      -9.507   9.870  69.337  1.00  0.00    -0.213 A  
HETATM   14  C   UNL     1     -10.793   9.649  69.858  1.00  0.00    -0.256 A  
HETATM   15  C   UNL     1     -11.226   8.343  70.150  1.00  0.00    -0.136 A  
HETATM   16  I   UNL     1     -12.125  11.161  70.505  1.00  0.00    -0.377 I  
BRANCH  13  17
HETATM   17  O   UNL     1      -8.956  11.090  69.018  1.00  0.00    -0.148 OA 
BRANCH  17  18
HETATM   18  C   UNL     1      -9.388  11.829  67.943  1.00  0.00    -0.184 A  
HETATM   19  C   UNL     1      -9.466  11.102  66.751  1.00  0.00    -0.203 A  
HETATM   20  C   UNL     1      -9.733  11.757  65.549  1.00  0.00    -0.224 A  
HETATM   21  I   UNL     1      -9.779  10.624  63.796  1.00  0.00    -0.311 I  
HETATM   22  C   UNL     1      -9.926  13.141  65.535  1.00  0.00    -0.207 A  
HETATM   23  C   UNL     1      -9.935  13.850  66.743  1.00  0.00    -0.269 A  
HETATM   24  O   UNL     1     -10.081  13.814  64.352  1.00  0.00    -0.692 OA 
HETATM   25  H   UNL     1     -10.212  14.756  64.342  1.00  0.00     0.000 HD 
HETATM   26  I   UNL     1     -10.165  15.931  66.793  1.00  0.00    -0.311 I  
HETATM   27  C   UNL     1      -9.711  13.186  67.956  1.00  0.00    -0.224 A  
ENDBRANCH  17  18
ENDBRANCH  13  17
ENDBRANCH   8   9
ENDBRANCH   4   8
TORSDOF 4
ENDMDL
MODEL      107
REMARK 921   NORMALIZED FREE ENERGY PREDICTED BY IDOCK:   -4.45 KCAL/MOL
REMARK 922        TOTAL FREE ENERGY PREDICTED BY IDOCK:   -6.32 KCAL/MOL
REMARK 923 INTER-LIGAND FREE ENERGY PREDICTED BY IDOCK:   -6.04 KCAL/MOL
REMARK 924 INTRA-LIGAND FREE ENERGY PREDICTED BY IDOCK:   -0.28 KCAL/MOL
REMARK 927      BINDING AFFINITY PREDICTED BY RF-SCORE:    0.00 PKD
ROOT
HETATM    1  N   UNL     1     -11.779   6.499  67.860  1.00  0.00    -0.321 NA 
HETATM    2  H1  UNL     1     -12.039   5.851  67.117  1.00  0.00     0.000 HD 
HETATM    3  H2  UNL     1     -12.606   6.869  68.327  1.00  0.00     0.000 HD 
HETATM    4  CA  UNL     1     -10.892   7.610  67.384  1.00  0.00    -0.170 C  
HETATM    5  C   UNL     1      -9.620   6.987  66.783  1.00  0.00    -0.171 C  
HETATM    6  OXT UNL     1      -8.633   7.607  66.429  1.00  0.00    -0.128 OA 
HETATM    7  O   UNL     1      -9.733   5.636  66.687  1.00  0.00    -0.142 OA 
ENDROOT
BRANCH   4   8
HETATM    8  C   UNL     1     -10.500   8.588  68.506  1.00  0.00    -0.205 C  
BRANCH   8   9
HETATM    9  C   UNL     1     -10.555  10.033  68.069  1.00  0.00    -0.280 A  
HETATM   10  C   UNL     1     -11.043  11.026  68.922  1.00  0.00    -0.295 A  
HETATM   11  C   UNL     1     -11.135  12.354  68.483  1.00  0.00    -0.258 A  
HETATM   12  I   UNL     1     -11.988  13.736  69.828  1.00  0.00    -0.324 I  
HETATM   13  C   UNL     1     -10.750  12.725  67.179  1.00  0.00    -0.245 A  
HETATM   14  C   UNL     1     -10.347  11.705  66.300  1.00  0.00    -0.235 A  
HETATM   15  C   UNL     1     -10.197  10.386  66.764  1.00  0.00    -0.282 A  
HETATM   16  I   UNL     1     -10.162  11.905  64.201  1.00  0.00    -0.414 I  
BRANCH  13  17
HETATM   17  O   UNL     1     -10.944  14.049  66.856  1.00  0.00    -0.291 OA 
BRANCH  17  18
HETATM   18  C   UNL     1     -10.039  15.025  67.198  1.00  0.00    -0.239 A  
HETATM   19  C   UNL     1     -10.552  16.324  67.125  1.00  0.00    -0.291 A  
HETATM   20  C   UNL     1      -9.705  17.420  67.285  1.00  0.00    -0.267 A  
HETATM   21  I   UNL     1     -10.522  19.334  67.107  1.00  0.00    -0.587 I  
HETATM   22  C   UNL     1      -8.342  17.222  67.524  1.00  0.00    -0.196 A  
HETATM   23  C   UNL     1      -7.852  15.920  67.685  1.00  0.00    -0.146 A  
HETATM   24  O   UNL     1      -7.479  18.284  67.577  1.00  0.00    -0.211 OA 
HETATM   25  H   UNL     1      -6.552  18.150  67.739  1.00  0.00     0.000 HD 
HETATM   26  I   UNL     1      -5.814  15.545  67.992  1.00  0.00    -0.147 I  
HETATM   27  C   UNL     1      -8.710  14.819  67.568  1.00  0.00    -0.195 A  
ENDBRANCH  17  18
ENDBRANCH  13  17
ENDBRANCH   8   9
ENDBRANCH   4   8
TORSDOF 4
ENDMDL
MODEL      108
REMARK 921   NORMALIZED FREE ENERGY PREDICTED BY IDOCK:   -4.42 KCAL/MOL
REMARK 922        TOTAL FREE ENERGY PREDICTED BY IDOCK:   -6.28 KCAL/MOL
REMARK 923 INTER-LIGAND FREE ENERGY PREDICTED BY IDOCK:   -5.68 KCAL/MOL
REMARK 924 INTRA-LIGAND FREE ENERGY PREDICTED BY IDOCK:   -0.60 KCAL/MOL
REMARK 927      BINDING AFFINITY PREDICTED BY RF-SCORE:    0.00 PKD
ROOT
HETATM    1  N   UNL     1     -10.872   4.809  66.063  1.00  0.00    -0.676 NA 
HETATM    2  H1  UNL     1     -11.601   4.392  65.485  1.00  0.00     0.000 HD 
HETATM    3  H2  UNL     1     -11.250   5.559  66.641  1.00  0.00     0.000 HD 
HETATM    4  CA  UNL     1      -9.697   5.290  65.266  1.00  0.00     0.197 C  
HETATM    5  C   UNL     1      -9.114   4.092  64.497  1.00  0.00    -0.147 C  
HETATM    6  OXT UNL     1      -8.074   4.103  63.863  1.00  0.00    -0.087 OA 
HETATM    7  O   UNL     1      -9.915   2.999  64.608  1.00  0.00    -0.115 OA 
ENDROOT
BRANCH   4   8
HETATM    8  C   UNL     1      -8.596   5.921  66.138  1.00  0.00    -0.137 C  
BRANCH   8   9
HETATM    9  C   UNL     1      -9.033   7.212  66.789  1.00  0.00    -0.151 A  
HETATM   10  C   UNL     1      -9.579   8.252  66.032  1.00  0.00    -0.151 A  
HETATM   11  C   UNL     1      -9.931   9.463  66.644  1.00  0.00    -0.258 A  
HETATM   12  I   UNL     1     -10.645  10.989  65.375  1.00  0.00    -0.094 I  
HETATM   13  C   UNL     1      -9.741   9.671  68.025  1.00  0.00    -0.146 A  
HETATM   14  C   UNL     1      -9.107   8.654  68.760  1.00  0.00    -0.142 A  
HETATM   15  C   UNL     1      -8.813   7.420  68.155  1.00  0.00    -0.127 A  
HETATM   16  I   UNL     1      -8.296   8.875  70.701  1.00  0.00    -0.249 I  
BRANCH  13  17
HETATM   17  O   UNL     1     -10.076  10.923  68.488  1.00  0.00    -0.169 OA 
BRANCH  17  18
HETATM   18  C   UNL     1     -11.116  11.125  69.363  1.00  0.00    -0.255 A  
HETATM   19  C   UNL     1     -11.343  12.469  69.673  1.00  0.00    -0.182 A  
HETATM   20  C   UNL     1     -12.257  12.813  70.668  1.00  0.00    -0.288 A  
HETATM   21  I   UNL     1     -12.508  14.835  71.124  1.00  0.00    -0.513 I  
HETATM   22  C   UNL     1     -12.952  11.813  71.356  1.00  0.00    -0.306 A  
HETATM   23  C   UNL     1     -12.786  10.474  70.979  1.00  0.00    -0.408 A  
HETATM   24  O   UNL     1     -13.771  12.127  72.407  1.00  0.00    -0.538 OA 
HETATM   25  H   UNL     1     -14.243  11.447  72.874  1.00  0.00     0.000 HD 
HETATM   26  I   UNL     1     -13.753   8.920  71.997  1.00  0.00    -0.529 I  
HETATM   27  C   UNL     1     -11.901  10.132  69.949  1.00  0.00    -0.206 A  
ENDBRANCH  17  18
ENDBRANCH  13  17
ENDBRANCH   8   9
ENDBRANCH   4   8
TORSDOF 4
ENDMDL
MODEL      109
REMARK 921   NORMALIZED FREE ENERGY PREDICTED BY IDOCK:   -4.42 KCAL/MOL
REMARK 922        TOTAL FREE ENERGY PREDICTED BY IDOCK:   -6.27 KCAL/MOL
REMARK 923 INTER-LIGAND FREE ENERGY PREDICTED BY IDOCK:   -6.14 KCAL/MOL
REMARK 924 INTRA-LIGAND FREE ENERGY PREDICTED BY IDOCK:   -0.12 KCAL/MOL
REMARK 927      BINDING AFFINITY PREDICTED BY RF-SCORE:    0.00 PKD
ROOT
HETATM    1  N   UNL     1      -9.967  13.820  64.217  1.00  0.00    -0.686 NA 
HETATM    2  H1  UNL     1      -9.410  14.664  64.083  1.00  0.00     0.000 HD 
HETATM    3  H2  UNL     1     -10.118  13.339  63.331  1.00  0.00     0.000 HD 
HETATM    4  CA  UNL     1     -11.268  14.082  64.912  1.00  0.00    -0.362 C  
HETATM    5  C   UNL     1     -10.964  14.714  66.281  1.00  0.00    -0.327 C  
HETATM    6  OXT UNL     1     -11.785  14.926  67.156  1.00  0.00    -0.356 OA 
HETATM    7  O   UNL     1      -9.645  15.019  66.400  1.00  0.00    -0.253 OA 
ENDROOT
BRANCH   4   8
HETATM    8  C   UNL     1     -12.109  12.808  65.114  1.00  0.00    -0.498 C  
BRANCH   8   9
HETATM    9  C   UNL     1     -11.325  11.682  65.744  1.00  0.00    -0.244 A  
HETATM   10  C   UNL     1     -11.398  11.433  67.118  1.00  0.00    -0.327 A  
HETATM   11  C   UNL     1     -10.624  10.417  67.695  1.00  0.00    -0.257 A  
HETATM   12  I   UNL     1     -10.746  10.213  69.790  1.00  0.00    -0.357 I  
HETATM   13  C   UNL     1      -9.752   9.628  66.919  1.00  0.00    -0.186 A  
HETATM   14  C   UNL     1      -9.616   9.946  65.557  1.00  0.00    -0.277 A  
HETATM   15  C   UNL     1     -10.439  10.924  64.971  1.00  0.00    -0.331 A  
HETATM   16  I   UNL     1      -8.073   9.249  64.288  1.00  0.00    -0.183 I  
BRANCH  13  17
HETATM   17  O   UNL     1      -9.008   8.704  67.617  1.00  0.00    -0.134 OA 
BRANCH  17  18
HETATM   18  C   UNL     1      -9.352   7.374  67.665  1.00  0.00    -0.133 A  
HETATM   19  C   UNL     1      -9.376   6.841  68.957  1.00  0.00    -0.134 A  
HETATM   20  C   UNL     1      -9.549   5.470  69.145  1.00  0.00    -0.143 A  
HETATM   21  I   UNL     1      -9.518   4.729  71.097  1.00  0.00    -0.259 I  
HETATM   22  C   UNL     1      -9.702   4.627  68.041  1.00  0.00    -0.140 A  
HETATM   23  C   UNL     1      -9.765   5.178  66.755  1.00  0.00    -0.165 A  
HETATM   24  O   UNL     1      -9.765   3.268  68.201  1.00  0.00    -0.132 OA 
HETATM   25  H   UNL     1      -9.868   2.694  67.450  1.00  0.00     0.000 HD 
HETATM   26  I   UNL     1      -9.940   3.972  65.051  1.00  0.00    -0.075 I  
HETATM   27  C   UNL     1      -9.636   6.560  66.568  1.00  0.00    -0.184 A  
ENDBRANCH  17  18
ENDBRANCH  13  17
ENDBRANCH   8   9
ENDBRANCH   4   8
TORSDOF 4
ENDMDL
MODEL      110
REMARK 921   NORMALIZED FREE ENERGY PREDICTED BY IDOCK:   -4.41 KCAL/MOL
REMARK 922        TOTAL FREE ENERGY PREDICTED BY IDOCK:   -6.26 KCAL/MOL
REMARK 923 INTER-LIGAND FREE ENERGY PREDICTED BY IDOCK:   -5.88 KCAL/MOL
REMARK 924 INTRA-LIGAND FREE ENERGY PREDICTED BY IDOCK:   -0.38 KCAL/MOL
REMARK 927      BINDING AFFINITY PREDICTED BY RF-SCORE:    0.00 PKD
ROOT
HETATM    1  N   UNL     1      -6.523   9.599  65.149  1.00  0.00    -0.083 NA 
HETATM    2  H1  UNL     1      -6.448   9.320  64.171  1.00  0.00     0.000 HD 
HETATM    3  H2  UNL     1      -5.748  10.205  65.416  1.00  0.00     0.000 HD 
HETATM    4  CA  UNL     1      -6.635   8.432  66.083  1.00  0.00    -0.054 C  
HETATM    5  C   UNL     1      -7.878   7.617  65.688  1.00  0.00    -0.109 C  
HETATM    6  OXT UNL     1      -8.339   6.685  66.323  1.00  0.00    -0.114 OA 
HETATM    7  O   UNL     1      -8.411   8.066  64.521  1.00  0.00    -0.133 OA 
ENDROOT
BRANCH   4   8
HETATM    8  C   UNL     1      -6.749   8.853  67.559  1.00  0.00    -0.066 C  
BRANCH   8   9
HETATM    9  C   UNL     1      -7.500  10.150  67.743  1.00  0.00    -0.089 A  
HETATM   10  C   UNL     1      -6.829  11.376  67.757  1.00  0.00    -0.075 A  
HETATM   11  C   UNL     1      -7.534  12.567  67.980  1.00  0.00    -0.117 A  
HETATM   12  I   UNL     1      -6.390  14.336  68.084  1.00  0.00    -0.173 I  
HETATM   13  C   UNL     1      -8.926  12.566  68.201  1.00  0.00    -0.199 A  
HETATM   14  C   UNL     1      -9.577  11.322  68.276  1.00  0.00    -0.193 A  
HETATM   15  C   UNL     1      -8.877  10.137  67.991  1.00  0.00    -0.125 A  
HETATM   16  I   UNL     1     -11.526  11.008  69.038  1.00  0.00    -0.430 I  
BRANCH  13  17
HETATM   17  O   UNL     1      -9.486  13.795  68.463  1.00  0.00    -0.210 OA 
BRANCH  17  18
HETATM   18  C   UNL     1     -10.048  14.568  67.475  1.00  0.00    -0.228 A  
HETATM   19  C   UNL     1     -10.598  13.830  66.423  1.00  0.00    -0.284 A  
HETATM   20  C   UNL     1     -11.056  14.480  65.277  1.00  0.00    -0.353 A  
HETATM   21  I   UNL     1     -11.812  13.316  63.717  1.00  0.00    -0.309 I  
HETATM   22  C   UNL     1     -10.969  15.871  65.181  1.00  0.00    -0.377 A  
HETATM   23  C   UNL     1     -10.501  16.611  66.274  1.00  0.00    -0.268 A  
HETATM   24  O   UNL     1     -11.314  16.516  64.023  1.00  0.00    -1.475 OA 
HETATM   25  H   UNL     1     -11.255  17.462  63.957  1.00  0.00     0.000 HD 
HETATM   26  I   UNL     1     -10.295  18.694  66.183  1.00  0.00    -0.163 I  
HETATM   27  C   UNL     1     -10.082  15.962  67.443  1.00  0.00    -0.252 A  
ENDBRANCH  17  18
ENDBRANCH  13  17
ENDBRANCH   8   9
ENDBRANCH   4   8
TORSDOF 4
ENDMDL
MODEL      111
REMARK 921   NORMALIZED FREE ENERGY PREDICTED BY IDOCK:   -4.40 KCAL/MOL
REMARK 922        TOTAL FREE ENERGY PREDICTED BY IDOCK:   -6.26 KCAL/MOL
REMARK 923 INTER-LIGAND FREE ENERGY PREDICTED BY IDOCK:   -6.05 KCAL/MOL
REMARK 924 INTRA-LIGAND FREE ENERGY PREDICTED BY IDOCK:   -0.21 KCAL/MOL
REMARK 927      BINDING AFFINITY PREDICTED BY RF-SCORE:    0.00 PKD
ROOT
HETATM    1  N   UNL     1      -9.774  20.951  67.201  1.00  0.00    -0.654 NA 
HETATM    2  H1  UNL     1      -9.360  21.401  66.385  1.00  0.00     0.000 HD 
HETATM    3  H2  UNL     1      -9.337  21.283  68.060  1.00  0.00     0.000 HD 
HETATM    4  CA  UNL     1      -9.736  19.454  67.126  1.00  0.00    -0.333 C  
HETATM    5  C   UNL     1     -10.496  19.016  65.862  1.00  0.00    -0.399 C  
HETATM    6  OXT UNL     1     -10.774  17.866  65.572  1.00  0.00    -0.585 OA 
HETATM    7  O   UNL     1     -10.824  20.085  65.090  1.00  0.00    -0.251 OA 
ENDROOT
BRANCH   4   8
HETATM    8  C   UNL     1     -10.360  18.775  68.358  1.00  0.00    -0.360 C  
BRANCH   8   9
HETATM    9  C   UNL     1      -9.817  17.386  68.599  1.00  0.00    -0.322 A  
HETATM   10  C   UNL     1      -8.496  17.062  68.275  1.00  0.00    -0.233 A  
HETATM   11  C   UNL     1      -8.023  15.755  68.457  1.00  0.00    -0.141 A  
HETATM   12  I   UNL     1      -6.046  15.372  67.831  1.00  0.00    -0.129 I  
HETATM   13  C   UNL     1      -8.856  14.736  68.959  1.00  0.00    -0.136 A  
HETATM   14  C   UNL     1     -10.206  15.049  69.195  1.00  0.00    -0.241 A  
HETATM   15  C   UNL     1     -10.660  16.374  69.070  1.00  0.00    -0.308 A  
HETATM   16  I   UNL     1     -11.753  13.636  69.499  1.00  0.00    -0.331 I  
BRANCH  13  17
HETATM   17  O   UNL     1      -8.285  13.486  69.035  1.00  0.00     0.086 OA 
BRANCH  17  18
HETATM   18  C   UNL     1      -8.704  12.442  68.245  1.00  0.00    -0.175 A  
HETATM   19  C   UNL     1      -9.150  12.833  66.979  1.00  0.00    -0.220 A  
HETATM   20  C   UNL     1      -9.754  11.904  66.133  1.00  0.00    -0.232 A  
HETATM   21  I   UNL     1     -10.452  12.564  64.278  1.00  0.00    -0.399 I  
HETATM   22  C   UNL     1      -9.911  10.578  66.547  1.00  0.00    -0.214 A  
HETATM   23  C   UNL     1      -9.382  10.173  67.779  1.00  0.00    -0.141 A  
HETATM   24  O   UNL     1     -10.597   9.680  65.774  1.00  0.00    -0.002 OA 
HETATM   25  H   UNL     1     -10.704   8.778  66.056  1.00  0.00     0.000 HD 
HETATM   26  I   UNL     1      -9.625   8.217  68.489  1.00  0.00    -0.175 I  
HETATM   27  C   UNL     1      -8.735  11.096  68.612  1.00  0.00    -0.153 A  
ENDBRANCH  17  18
ENDBRANCH  13  17
ENDBRANCH   8   9
ENDBRANCH   4   8
TORSDOF 4
ENDMDL
MODEL      112
REMARK 921   NORMALIZED FREE ENERGY PREDICTED BY IDOCK:   -4.40 KCAL/MOL
REMARK 922        TOTAL FREE ENERGY PREDICTED BY IDOCK:   -6.25 KCAL/MOL
REMARK 923 INTER-LIGAND FREE ENERGY PREDICTED BY IDOCK:   -5.88 KCAL/MOL
REMARK 924 INTRA-LIGAND FREE ENERGY PREDICTED BY IDOCK:   -0.36 KCAL/MOL
REMARK 927      BINDING AFFINITY PREDICTED BY RF-SCORE:    0.00 PKD
ROOT
HETATM    1  N   UNL     1     -12.154  12.334  66.737  1.00  0.00    -0.565 NA 
HETATM    2  H1  UNL     1     -13.157  12.305  66.921  1.00  0.00     0.000 HD 
HETATM    3  H2  UNL     1     -11.625  12.331  67.608  1.00  0.00     0.000 HD 
HETATM    4  CA  UNL     1     -11.752  13.489  65.871  1.00  0.00    -0.352 C  
HETATM    5  C   UNL     1     -12.511  13.379  64.537  1.00  0.00    -0.301 C  
HETATM    6  OXT UNL     1     -12.315  14.076  63.558  1.00  0.00    -0.748 OA 
HETATM    7  O   UNL     1     -13.446  12.394  64.585  1.00  0.00    -0.671 OA 
ENDROOT
BRANCH   4   8
HETATM    8  C   UNL     1     -10.238  13.534  65.595  1.00  0.00    -0.306 C  
BRANCH   8   9
HETATM    9  C   UNL     1      -9.579  12.182  65.724  1.00  0.00    -0.209 A  
HETATM   10  C   UNL     1      -8.980  11.784  66.923  1.00  0.00    -0.195 A  
HETATM   11  C   UNL     1      -8.327  10.547  67.011  1.00  0.00    -0.128 A  
HETATM   12  I   UNL     1      -7.374  10.111  68.841  1.00  0.00    -0.108 I  
HETATM   13  C   UNL     1      -8.247   9.677  65.905  1.00  0.00    -0.119 A  
HETATM   14  C   UNL     1      -8.772  10.126  64.680  1.00  0.00    -0.189 A  
HETATM   15  C   UNL     1      -9.479  11.339  64.613  1.00  0.00    -0.215 A  
HETATM   16  I   UNL     1      -8.388   9.248  62.793  1.00  0.00    -0.204 I  
BRANCH  13  17
HETATM   17  O   UNL     1      -7.530   8.521  66.108  1.00  0.00    -0.086 OA 
BRANCH  17  18
HETATM   18  C   UNL     1      -8.131   7.285  66.149  1.00  0.00    -0.121 A  
HETATM   19  C   UNL     1      -8.762   7.002  67.364  1.00  0.00    -0.120 A  
HETATM   20  C   UNL     1      -9.271   5.727  67.607  1.00  0.00    -0.105 A  
HETATM   21  I   UNL     1     -10.150   5.351  69.464  1.00  0.00    -0.322 I  
HETATM   22  C   UNL     1      -9.156   4.731  66.634  1.00  0.00    -0.117 A  
HETATM   23  C   UNL     1      -8.604   5.046  65.386  1.00  0.00    -0.143 A  
HETATM   24  O   UNL     1      -9.554   3.447  66.895  1.00  0.00    -0.335 OA 
HETATM   25  H   UNL     1      -9.475   2.769  66.233  1.00  0.00     0.000 HD 
HETATM   26  I   UNL     1      -8.351   3.593  63.898  1.00  0.00    -0.094 I  
HETATM   27  C   UNL     1      -8.131   6.339  65.125  1.00  0.00    -0.130 A  
ENDBRANCH  17  18
ENDBRANCH  13  17
ENDBRANCH   8   9
ENDBRANCH   4   8
TORSDOF 4
ENDMDL
MODEL      113
REMARK 921   NORMALIZED FREE ENERGY PREDICTED BY IDOCK:   -4.37 KCAL/MOL
REMARK 922        TOTAL FREE ENERGY PREDICTED BY IDOCK:   -6.21 KCAL/MOL
REMARK 923 INTER-LIGAND FREE ENERGY PREDICTED BY IDOCK:   -5.64 KCAL/MOL
REMARK 924 INTRA-LIGAND FREE ENERGY PREDICTED BY IDOCK:   -0.57 KCAL/MOL
REMARK 927      BINDING AFFINITY PREDICTED BY RF-SCORE:    0.00 PKD
ROOT
HETATM    1  N   UNL     1     -11.462   6.693  67.328  1.00  0.00    -0.749 NA 
HETATM    2  H1  UNL     1     -12.353   6.347  67.685  1.00  0.00     0.000 HD 
HETATM    3  H2  UNL     1     -11.518   6.876  66.327  1.00  0.00     0.000 HD 
HETATM    4  CA  UNL     1     -10.314   5.783  67.642  1.00  0.00    -0.217 C  
HETATM    5  C   UNL     1     -10.224   5.629  69.170  1.00  0.00    -0.236 C  
HETATM    6  OXT UNL     1      -9.323   5.070  69.769  1.00  0.00    -0.117 OA 
HETATM    7  O   UNL     1     -11.294   6.199  69.784  1.00  0.00    -0.411 OA 
ENDROOT
BRANCH   4   8
HETATM    8  C   UNL     1      -8.969   6.303  67.102  1.00  0.00    -0.111 C  
BRANCH   8   9
HETATM    9  C   UNL     1      -8.895   7.811  67.071  1.00  0.00    -0.136 A  
HETATM   10  C   UNL     1      -9.265   8.528  65.929  1.00  0.00    -0.245 A  
HETATM   11  C   UNL     1      -9.142   9.924  65.899  1.00  0.00    -0.162 A  
HETATM   12  I   UNL     1      -9.632  10.876  64.082  1.00  0.00    -0.370 I  
HETATM   13  C   UNL     1      -8.639  10.641  67.003  1.00  0.00    -0.128 A  
HETATM   14  C   UNL     1      -8.184   9.905  68.111  1.00  0.00    -0.109 A  
HETATM   15  C   UNL     1      -8.368   8.512  68.161  1.00  0.00    -0.127 A  
HETATM   16  I   UNL     1      -6.984  10.671  69.677  1.00  0.00    -0.077 I  
BRANCH  13  17
HETATM   17  O   UNL     1      -8.515  12.000  66.822  1.00  0.00    -0.183 OA 
BRANCH  17  18
HETATM   18  C   UNL     1      -9.474  12.885  67.255  1.00  0.00    -0.216 A  
HETATM   19  C   UNL     1      -9.456  14.112  66.585  1.00  0.00    -0.303 A  
HETATM   20  C   UNL     1     -10.260  15.162  67.027  1.00  0.00    -0.262 A  
HETATM   21  I   UNL     1     -10.145  16.987  66.018  1.00  0.00    -0.128 I  
HETATM   22  C   UNL     1     -11.089  14.988  68.139  1.00  0.00    -0.291 A  
HETATM   23  C   UNL     1     -11.169  13.730  68.750  1.00  0.00    -0.271 A  
HETATM   24  O   UNL     1     -11.804  16.038  68.650  1.00  0.00    -0.390 OA 
HETATM   25  H   UNL     1     -12.368  15.920  69.406  1.00  0.00     0.000 HD 
HETATM   26  I   UNL     1     -12.348  13.409  70.451  1.00  0.00    -0.152 I  
HETATM   27  C   UNL     1     -10.394  12.662  68.279  1.00  0.00    -0.246 A  
ENDBRANCH  17  18
ENDBRANCH  13  17
ENDBRANCH   8   9
ENDBRANCH   4   8
TORSDOF 4
ENDMDL
MODEL      114
REMARK 921   NORMALIZED FREE ENERGY PREDICTED BY IDOCK:   -4.35 KCAL/MOL
REMARK 922        TOTAL FREE ENERGY PREDICTED BY IDOCK:   -6.19 KCAL/MOL
REMARK 923 INTER-LIGAND FREE ENERGY PREDICTED BY IDOCK:   -5.73 KCAL/MOL
REMARK 924 INTRA-LIGAND FREE ENERGY PREDICTED BY IDOCK:   -0.46 KCAL/MOL
REMARK 927      BINDING AFFINITY PREDICTED BY RF-SCORE:    0.00 PKD
ROOT
HETATM    1  N   UNL     1     -12.067  12.451  67.132  1.00  0.00    -0.512 NA 
HETATM    2  H1  UNL     1     -13.075  12.363  67.263  1.00  0.00     0.000 HD 
HETATM    3  H2  UNL     1     -11.568  12.254  67.998  1.00  0.00     0.000 HD 
HETATM    4  CA  UNL     1     -11.666  13.783  66.574  1.00  0.00    -0.385 C  
HETATM    5  C   UNL     1     -12.374  13.974  65.222  1.00  0.00    -0.465 C  
HETATM    6  OXT UNL     1     -12.164  14.883  64.439  1.00  0.00    -0.481 OA 
HETATM    7  O   UNL     1     -13.285  12.989  65.002  1.00  0.00    -0.739 OA 
ENDROOT
BRANCH   4   8
HETATM    8  C   UNL     1     -10.145  13.918  66.376  1.00  0.00    -0.298 C  
BRANCH   8   9
HETATM    9  C   UNL     1      -9.446  12.582  66.280  1.00  0.00    -0.210 A  
HETATM   10  C   UNL     1      -8.615  12.128  67.308  1.00  0.00    -0.180 A  
HETATM   11  C   UNL     1      -7.934  10.910  67.181  1.00  0.00    -0.127 A  
HETATM   12  I   UNL     1      -6.629  10.389  68.754  1.00  0.00    -0.060 I  
HETATM   13  C   UNL     1      -8.057  10.116  66.022  1.00  0.00    -0.129 A  
HETATM   14  C   UNL     1      -8.821  10.625  64.958  1.00  0.00    -0.197 A  
HETATM   15  C   UNL     1      -9.551  11.816  65.114  1.00  0.00    -0.173 A  
HETATM   16  I   UNL     1      -8.800   9.883  62.976  1.00  0.00    -0.289 I  
BRANCH  13  17
HETATM   17  O   UNL     1      -7.291   8.973  66.001  1.00  0.00    -0.091 OA 
BRANCH  17  18
HETATM   18  C   UNL     1      -7.823   7.731  66.253  1.00  0.00    -0.091 A  
HETATM   19  C   UNL     1      -7.787   6.866  65.156  1.00  0.00    -0.120 A  
HETATM   20  C   UNL     1      -8.436   5.634  65.215  1.00  0.00    -0.147 A  
HETATM   21  I   UNL     1      -8.393   4.411  63.523  1.00  0.00    -0.120 I  
HETATM   22  C   UNL     1      -9.122   5.259  66.374  1.00  0.00    -0.137 A  
HETATM   23  C   UNL     1      -9.079   6.091  67.500  1.00  0.00    -0.109 A  
HETATM   24  O   UNL     1      -9.853   4.102  66.412  1.00  0.00    -0.210 OA 
HETATM   25  H   UNL     1     -10.320   3.848  67.201  1.00  0.00     0.000 HD 
HETATM   26  I   UNL     1     -10.125   5.621  69.253  1.00  0.00    -0.339 I  
HETATM   27  C   UNL     1      -8.390   7.310  67.456  1.00  0.00    -0.116 A  
ENDBRANCH  17  18
ENDBRANCH  13  17
ENDBRANCH   8   9
ENDBRANCH   4   8
TORSDOF 4
ENDMDL
MODEL      115
REMARK 921   NORMALIZED FREE ENERGY PREDICTED BY IDOCK:   -4.35 KCAL/MOL
REMARK 922        TOTAL FREE ENERGY PREDICTED BY IDOCK:   -6.19 KCAL/MOL
REMARK 923 INTER-LIGAND FREE ENERGY PREDICTED BY IDOCK:   -5.74 KCAL/MOL
REMARK 924 INTRA-LIGAND FREE ENERGY PREDICTED BY IDOCK:   -0.45 KCAL/MOL
REMARK 927      BINDING AFFINITY PREDICTED BY RF-SCORE:    0.00 PKD
ROOT
HETATM    1  N   UNL     1     -13.237  10.224  69.823  1.00  0.00    -0.288 NA 
HETATM    2  H1  UNL     1     -13.301   9.256  69.508  1.00  0.00     0.000 HD 
HETATM    3  H2  UNL     1     -14.051  10.759  69.521  1.00  0.00     0.000 HD 
HETATM    4  CA  UNL     1     -11.967  10.895  69.395  1.00  0.00    -0.322 C  
HETATM    5  C   UNL     1     -10.783  10.096  69.965  1.00  0.00    -0.305 C  
HETATM    6  OXT UNL     1      -9.616  10.441  69.924  1.00  0.00    -0.128 OA 
HETATM    7  O   UNL     1     -11.203   8.932  70.529  1.00  0.00    -0.254 OA 
ENDROOT
BRANCH   4   8
HETATM    8  C   UNL     1     -11.871  12.357  69.870  1.00  0.00    -0.376 C  
BRANCH   8   9
HETATM    9  C   UNL     1     -11.093  13.233  68.916  1.00  0.00    -0.304 A  
HETATM   10  C   UNL     1     -11.532  13.437  67.605  1.00  0.00    -0.353 A  
HETATM   11  C   UNL     1     -10.772  14.211  66.717  1.00  0.00    -0.286 A  
HETATM   12  I   UNL     1     -11.488  14.354  64.738  1.00  0.00    -0.381 I  
HETATM   13  C   UNL     1      -9.551  14.794  67.111  1.00  0.00    -0.227 A  
HETATM   14  C   UNL     1      -9.074  14.507  68.402  1.00  0.00    -0.191 A  
HETATM   15  C   UNL     1      -9.869  13.783  69.307  1.00  0.00     0.349 A  
HETATM   16  I   UNL     1      -7.100  14.859  69.080  1.00  0.00    -0.163 I  
BRANCH  13  17
HETATM   17  O   UNL     1      -8.876  15.481  66.127  1.00  0.00    -0.320 OA 
BRANCH  17  18
HETATM   18  C   UNL     1      -8.413  16.761  66.316  1.00  0.00    -0.307 A  
HETATM   19  C   UNL     1      -9.288  17.580  67.036  1.00  0.00    -0.262 A  
HETATM   20  C   UNL     1      -9.025  18.943  67.164  1.00  0.00    -0.284 A  
HETATM   21  I   UNL     1     -10.401  20.123  68.201  1.00  0.00     0.075 I  
HETATM   22  C   UNL     1      -7.883  19.493  66.575  1.00  0.00    -0.291 A  
HETATM   23  C   UNL     1      -6.965  18.653  65.933  1.00  0.00    -0.270 A  
HETATM   24  O   UNL     1      -7.664  20.845  66.599  1.00  0.00    -0.541 OA 
HETATM   25  H   UNL     1      -6.887  21.219  66.199  1.00  0.00     0.000 HD 
HETATM   26  I   UNL     1      -5.259  19.412  64.984  1.00  0.00    -0.245 I  
HETATM   27  C   UNL     1      -7.206  17.276  65.842  1.00  0.00    -0.069 A  
ENDBRANCH  17  18
ENDBRANCH  13  17
ENDBRANCH   8   9
ENDBRANCH   4   8
TORSDOF 4
ENDMDL
MODEL      116
REMARK 921   NORMALIZED FREE ENERGY PREDICTED BY IDOCK:   -4.34 KCAL/MOL
REMARK 922        TOTAL FREE ENERGY PREDICTED BY IDOCK:   -6.17 KCAL/MOL
REMARK 923 INTER-LIGAND FREE ENERGY PREDICTED BY IDOCK:   -5.95 KCAL/MOL
REMARK 924 INTRA-LIGAND FREE ENERGY PREDICTED BY IDOCK:   -0.22 KCAL/MOL
REMARK 927      BINDING AFFINITY PREDICTED BY RF-SCORE:    0.00 PKD
ROOT
HETATM    1  N   UNL     1      -7.648   5.944  71.933  1.00  0.00    -0.095 NA 
HETATM    2  H1  UNL     1      -7.631   4.941  72.117  1.00  0.00     0.000 HD 
HETATM    3  H2  UNL     1      -6.750   6.263  71.573  1.00  0.00     0.000 HD 
HETATM    4  CA  UNL     1      -8.064   6.750  73.125  1.00  0.00    -0.107 C  
HETATM    5  C   UNL     1      -9.467   6.288  73.555  1.00  0.00    -0.141 C  
HETATM    6  OXT UNL     1     -10.156   6.826  74.403  1.00  0.00    -0.344 OA 
HETATM    7  O   UNL     1      -9.852   5.181  72.866  1.00  0.00    -0.153 OA 
ENDROOT
BRANCH   4   8
HETATM    8  C   UNL     1      -8.090   8.264  72.847  1.00  0.00    -0.211 C  
BRANCH   8   9
HETATM    9  C   UNL     1      -8.872   8.619  71.605  1.00  0.00    -0.292 A  
HETATM   10  C   UNL     1      -8.272   8.592  70.342  1.00  0.00    -0.114 A  
HETATM   11  C   UNL     1      -8.997   8.973  69.206  1.00  0.00    -0.144 A  
HETATM   12  I   UNL     1      -7.946   8.991  67.377  1.00  0.00    -0.098 I  
HETATM   13  C   UNL     1     -10.338   9.398  69.298  1.00  0.00    -0.208 A  
HETATM   14  C   UNL     1     -10.903   9.509  70.580  1.00  0.00    -0.306 A  
HETATM   15  C   UNL     1     -10.193   9.067  71.710  1.00  0.00    -0.389 A  
HETATM   16  I   UNL     1     -12.696  10.536  71.040  1.00  0.00    -0.496 I  
BRANCH  13  17
HETATM   17  O   UNL     1     -10.917   9.799  68.115  1.00  0.00    -0.239 OA 
BRANCH  17  18
HETATM   18  C   UNL     1     -10.803  11.086  67.645  1.00  0.00    -0.256 A  
HETATM   19  C   UNL     1     -11.276  11.256  66.340  1.00  0.00    -0.190 A  
HETATM   20  C   UNL     1     -11.076  12.465  65.677  1.00  0.00    -0.306 A  
HETATM   21  I   UNL     1     -11.754  12.636  63.709  1.00  0.00    -0.637 I  
HETATM   22  C   UNL     1     -10.407  13.512  66.317  1.00  0.00    -0.293 A  
HETATM   23  C   UNL     1     -10.015  13.366  67.654  1.00  0.00    -0.229 A  
HETATM   24  O   UNL     1     -10.108  14.667  65.644  1.00  0.00    -0.323 OA 
HETATM   25  H   UNL     1      -9.652  15.379  66.079  1.00  0.00     0.000 HD 
HETATM   26  I   UNL     1      -8.962  14.871  68.660  1.00  0.00    -0.163 I  
HETATM   27  C   UNL     1     -10.255  12.166  68.336  1.00  0.00    -0.212 A  
ENDBRANCH  17  18
ENDBRANCH  13  17
ENDBRANCH   8   9
ENDBRANCH   4   8
TORSDOF 4
ENDMDL
MODEL      117
REMARK 921   NORMALIZED FREE ENERGY PREDICTED BY IDOCK:   -4.33 KCAL/MOL
REMARK 922        TOTAL FREE ENERGY PREDICTED BY IDOCK:   -6.17 KCAL/MOL
REMARK 923 INTER-LIGAND FREE ENERGY PREDICTED BY IDOCK:   -5.89 KCAL/MOL
REMARK 924 INTRA-LIGAND FREE ENERGY PREDICTED BY IDOCK:   -0.28 KCAL/MOL
REMARK 927      BINDING AFFINITY PREDICTED BY RF-SCORE:    0.00 PKD
ROOT
HETATM    1  N   UNL     1     -12.221  14.465  67.954  1.00  0.00    -0.620 NA 
HETATM    2  H1  UNL     1     -13.089  15.000  67.930  1.00  0.00     0.000 HD 
HETATM    3  H2  UNL     1     -12.093  13.938  67.091  1.00  0.00     0.000 HD 
HETATM    4  CA  UNL     1     -12.123  13.565  69.148  1.00  0.00    -0.288 C  
HETATM    5  C   UNL     1     -12.222  14.432  70.415  1.00  0.00    -0.338 C  
HETATM    6  OXT UNL     1     -12.041  14.037  71.554  1.00  0.00    -0.281 OA 
HETATM    7  O   UNL     1     -12.546  15.715  70.108  1.00  0.00    -0.367 OA 
ENDROOT
BRANCH   4   8
HETATM    8  C   UNL     1     -10.813  12.756  69.186  1.00  0.00    -0.123 C  
BRANCH   8   9
HETATM    9  C   UNL     1     -11.040  11.284  69.438  1.00  0.00    -0.316 A  
HETATM   10  C   UNL     1     -12.007  10.850  70.350  1.00  0.00    -0.453 A  
HETATM   11  C   UNL     1     -12.170   9.483  70.612  1.00  0.00    -0.123 A  
HETATM   12  I   UNL     1     -13.587   8.966  72.085  1.00  0.00    -0.518 I  
HETATM   13  C   UNL     1     -11.369   8.513  69.976  1.00  0.00    -0.007 A  
HETATM   14  C   UNL     1     -10.339   8.964  69.132  1.00  0.00    -0.220 A  
HETATM   15  C   UNL     1     -10.221  10.331  68.826  1.00  0.00    -0.205 A  
HETATM   16  I   UNL     1      -8.730   7.782  68.429  1.00  0.00    -0.123 I  
BRANCH  13  17
HETATM   17  O   UNL     1     -11.592   7.212  70.364  1.00  0.00    -0.295 OA 
BRANCH  17  18
HETATM   18  C   UNL     1     -10.632   6.465  71.005  1.00  0.00    -0.234 A  
HETATM   19  C   UNL     1     -10.000   7.136  72.056  1.00  0.00    -0.178 A  
HETATM   20  C   UNL     1      -8.897   6.564  72.688  1.00  0.00    -0.124 A  
HETATM   21  I   UNL     1      -7.962   7.642  74.212  1.00  0.00    -0.293 I  
HETATM   22  C   UNL     1      -8.423   5.315  72.275  1.00  0.00    -0.125 A  
HETATM   23  C   UNL     1      -9.115   4.609  71.282  1.00  0.00    -0.134 A  
HETATM   24  O   UNL     1      -7.279   4.787  72.811  1.00  0.00    -0.075 OA 
HETATM   25  H   UNL     1      -6.957   3.938  72.530  1.00  0.00     0.000 HD 
HETATM   26  I   UNL     1      -8.435   2.758  70.576  1.00  0.00    -0.126 I  
HETATM   27  C   UNL     1     -10.250   5.164  70.677  1.00  0.00    -0.326 A  
ENDBRANCH  17  18
ENDBRANCH  13  17
ENDBRANCH   8   9
ENDBRANCH   4   8
TORSDOF 4
ENDMDL
MODEL      118
REMARK 921   NORMALIZED FREE ENERGY PREDICTED BY IDOCK:   -4.33 KCAL/MOL
REMARK 922        TOTAL FREE ENERGY PREDICTED BY IDOCK:   -6.16 KCAL/MOL
REMARK 923 INTER-LIGAND FREE ENERGY PREDICTED BY IDOCK:   -5.50 KCAL/MOL
REMARK 924 INTRA-LIGAND FREE ENERGY PREDICTED BY IDOCK:   -0.67 KCAL/MOL
REMARK 927      BINDING AFFINITY PREDICTED BY RF-SCORE:    0.00 PKD
ROOT
HETATM    1  N   UNL     1     -12.396  15.520  69.357  1.00  0.00    -0.595 NA 
HETATM    2  H1  UNL     1     -12.025  16.153  70.065  1.00  0.00     0.000 HD 
HETATM    3  H2  UNL     1     -12.905  14.749  69.788  1.00  0.00     0.000 HD 
HETATM    4  CA  UNL     1     -11.343  15.008  68.421  1.00  0.00    -0.309 C  
HETATM    5  C   UNL     1     -10.684  16.214  67.730  1.00  0.00    -0.325 C  
HETATM    6  OXT UNL     1      -9.887  16.149  66.812  1.00  0.00    -0.231 OA 
HETATM    7  O   UNL     1     -11.102  17.384  68.281  1.00  0.00    -0.251 OA 
ENDROOT
BRANCH   4   8
HETATM    8  C   UNL     1     -11.903  14.051  67.352  1.00  0.00    -0.445 C  
BRANCH   8   9
HETATM    9  C   UNL     1     -10.907  12.998  66.930  1.00  0.00    -0.282 A  
HETATM   10  C   UNL     1      -9.890  12.580  67.793  1.00  0.00    -0.204 A  
HETATM   11  C   UNL     1      -8.942  11.638  67.367  1.00  0.00    -0.166 A  
HETATM   12  I   UNL     1      -7.398  11.172  68.726  1.00  0.00    -0.117 I  
HETATM   13  C   UNL     1      -8.980  11.095  66.068  1.00  0.00    -0.200 A  
HETATM   14  C   UNL     1      -9.950  11.589  65.178  1.00  0.00    -0.262 A  
HETATM   15  C   UNL     1     -10.935  12.486  65.629  1.00  0.00    -0.323 A  
HETATM   16  I   UNL     1      -9.945  11.300  63.082  1.00  0.00    -0.255 I  
BRANCH  13  17
HETATM   17  O   UNL     1      -7.959  10.225  65.758  1.00  0.00    -0.132 OA 
BRANCH  17  18
HETATM   18  C   UNL     1      -8.174   8.878  65.588  1.00  0.00    -0.125 A  
HETATM   19  C   UNL     1      -9.148   8.347  66.439  1.00  0.00    -0.231 A  
HETATM   20  C   UNL     1      -9.355   6.969  66.492  1.00  0.00    -0.159 A  
HETATM   21  I   UNL     1     -10.784   6.235  67.825  1.00  0.00    -0.387 I  
HETATM   22  C   UNL     1      -8.591   6.116  65.690  1.00  0.00    -0.145 A  
HETATM   23  C   UNL     1      -7.680   6.660  64.776  1.00  0.00    -0.111 A  
HETATM   24  O   UNL     1      -8.706   4.757  65.807  1.00  0.00    -0.121 OA 
HETATM   25  H   UNL     1      -8.186   4.176  65.262  1.00  0.00     0.000 HD 
HETATM   26  I   UNL     1      -6.465   5.442  63.581  1.00  0.00    -0.026 I  
HETATM   27  C   UNL     1      -7.503   8.047  64.690  1.00  0.00    -0.097 A  
ENDBRANCH  17  18
ENDBRANCH  13  17
ENDBRANCH   8   9
ENDBRANCH   4   8
TORSDOF 4
ENDMDL
MODEL      119
REMARK 921   NORMALIZED FREE ENERGY PREDICTED BY IDOCK:   -4.29 KCAL/MOL
REMARK 922        TOTAL FREE ENERGY PREDICTED BY IDOCK:   -6.12 KCAL/MOL
REMARK 923 INTER-LIGAND FREE ENERGY PREDICTED BY IDOCK:   -5.79 KCAL/MOL
REMARK 924 INTRA-LIGAND FREE ENERGY PREDICTED BY IDOCK:   -0.33 KCAL/MOL
REMARK 927      BINDING AFFINITY PREDICTED BY RF-SCORE:    0.00 PKD
ROOT
HETATM    1  N   UNL     1      -9.403  17.419  68.615  1.00  0.00    -0.272 NA 
HETATM    2  H1  UNL     1      -9.878  18.022  69.286  1.00  0.00     0.000 HD 
HETATM    3  H2  UNL     1      -9.068  16.567  69.064  1.00  0.00     0.000 HD 
HETATM    4  CA  UNL     1      -8.292  18.114  67.888  1.00  0.00    -0.250 C  
HETATM    5  C   UNL     1      -8.883  19.328  67.152  1.00  0.00    -0.294 C  
HETATM    6  OXT UNL     1      -8.282  20.029  66.357  1.00  0.00    -0.319 OA 
HETATM    7  O   UNL     1     -10.180  19.533  67.504  1.00  0.00    -0.370 OA 
ENDROOT
BRANCH   4   8
HETATM    8  C   UNL     1      -7.574  17.203  66.875  1.00  0.00    -0.240 C  
BRANCH   8   9
HETATM    9  C   UNL     1      -8.287  15.889  66.660  1.00  0.00    -0.328 A  
HETATM   10  C   UNL     1      -9.439  15.815  65.871  1.00  0.00    -0.377 A  
HETATM   11  C   UNL     1     -10.118  14.597  65.724  1.00  0.00    -0.340 A  
HETATM   12  I   UNL     1     -11.899  14.641  64.596  1.00  0.00    -0.302 I  
HETATM   13  C   UNL     1      -9.671  13.425  66.365  1.00  0.00    -0.277 A  
HETATM   14  C   UNL     1      -8.567  13.530  67.229  1.00  0.00    -0.213 A  
HETATM   15  C   UNL     1      -7.853  14.737  67.324  1.00  0.00    -0.223 A  
HETATM   16  I   UNL     1      -7.981  12.070  68.645  1.00  0.00     0.122 I  
BRANCH  13  17
HETATM   17  O   UNL     1     -10.460  12.311  66.184  1.00  0.00    -0.232 OA 
BRANCH  17  18
HETATM   18  C   UNL     1      -9.955  11.129  65.698  1.00  0.00    -0.249 A  
HETATM   19  C   UNL     1     -10.255  10.017  66.491  1.00  0.00    -0.291 A  
HETATM   20  C   UNL     1      -9.674   8.781  66.210  1.00  0.00    -0.272 A  
HETATM   21  I   UNL     1     -10.117   7.172  67.465  1.00  0.00    -0.336 I  
HETATM   22  C   UNL     1      -8.793   8.651  65.133  1.00  0.00    -0.103 A  
HETATM   23  C   UNL     1      -8.567   9.747  64.290  1.00  0.00    -0.188 A  
HETATM   24  O   UNL     1      -8.132   7.473  64.907  1.00  0.00    -0.131 OA 
HETATM   25  H   UNL     1      -7.532   7.385  64.175  1.00  0.00     0.000 HD 
HETATM   26  I   UNL     1      -7.220   9.641  62.689  1.00  0.00    -0.123 I  
HETATM   27  C   UNL     1      -9.185  10.978  64.546  1.00  0.00    -0.185 A  
ENDBRANCH  17  18
ENDBRANCH  13  17
ENDBRANCH   8   9
ENDBRANCH   4   8
TORSDOF 4
ENDMDL
MODEL      120
REMARK 921   NORMALIZED FREE ENERGY PREDICTED BY IDOCK:   -4.29 KCAL/MOL
REMARK 922        TOTAL FREE ENERGY PREDICTED BY IDOCK:   -6.12 KCAL/MOL
REMARK 923 INTER-LIGAND FREE ENERGY PREDICTED BY IDOCK:   -5.57 KCAL/MOL
REMARK 924 INTRA-LIGAND FREE ENERGY PREDICTED BY IDOCK:   -0.54 KCAL/MOL
REMARK 927      BINDING AFFINITY PREDICTED BY RF-SCORE:    0.00 PKD
ROOT
HETATM    1  N   UNL     1     -12.701  15.784  69.762  1.00  0.00    -0.546 NA 
HETATM    2  H1  UNL     1     -13.703  15.705  69.933  1.00  0.00     0.000 HD 
HETATM    3  H2  UNL     1     -12.505  16.514  69.077  1.00  0.00     0.000 HD 
HETATM    4  CA  UNL     1     -12.074  14.486  69.354  1.00  0.00    -0.290 C  
HETATM    5  C   UNL     1     -12.320  13.459  70.472  1.00  0.00    -0.329 C  
HETATM    6  OXT UNL     1     -11.828  12.346  70.526  1.00  0.00    -0.272 OA 
HETATM    7  O   UNL     1     -13.172  13.949  71.411  1.00  0.00    -0.337 OA 
ENDROOT
BRANCH   4   8
HETATM    8  C   UNL     1     -10.561  14.605  69.095  1.00  0.00    -0.247 C  
BRANCH   8   9
HETATM    9  C   UNL     1     -10.063  13.617  68.066  1.00  0.00    -0.250 A  
HETATM   10  C   UNL     1      -8.764  13.105  68.128  1.00  0.00    -0.193 A  
HETATM   11  C   UNL     1      -8.301  12.229  67.136  1.00  0.00    -0.183 A  
HETATM   12  I   UNL     1      -6.290  11.612  67.286  1.00  0.00    -0.140 I  
HETATM   13  C   UNL     1      -9.118  11.848  66.053  1.00  0.00    -0.119 A  
HETATM   14  C   UNL     1     -10.389  12.440  65.950  1.00  0.00    -0.257 A  
HETATM   15  C   UNL     1     -10.871  13.268  66.979  1.00  0.00    -0.278 A  
HETATM   16  I   UNL     1     -11.615  12.409  64.225  1.00  0.00    -0.550 I  
BRANCH  13  17
HETATM   17  O   UNL     1      -8.523  11.030  65.119  1.00  0.00    -0.100 OA 
BRANCH  17  18
HETATM   18  C   UNL     1      -8.472   9.664  65.271  1.00  0.00    -0.146 A  
HETATM   19  C   UNL     1      -7.614   9.026  64.370  1.00  0.00    -0.112 A  
HETATM   20  C   UNL     1      -7.584   7.634  64.300  1.00  0.00    -0.108 A  
HETATM   21  I   UNL     1      -6.324   6.743  62.893  1.00  0.00    -0.044 I  
HETATM   22  C   UNL     1      -8.410   6.874  65.133  1.00  0.00    -0.076 A  
HETATM   23  C   UNL     1      -9.200   7.516  66.094  1.00  0.00    -0.105 A  
HETATM   24  O   UNL     1      -8.472   5.512  65.003  1.00  0.00    -0.145 OA 
HETATM   25  H   UNL     1      -9.034   4.995  65.569  1.00  0.00     0.000 HD 
HETATM   26  I   UNL     1     -10.500   6.446  67.340  1.00  0.00    -0.475 I  
HETATM   27  C   UNL     1      -9.198   8.914  66.196  1.00  0.00    -0.273 A  
ENDBRANCH  17  18
ENDBRANCH  13  17
ENDBRANCH   8   9
ENDBRANCH   4   8
TORSDOF 4
ENDMDL
MODEL      121
REMARK 921   NORMALIZED FREE ENERGY PREDICTED BY IDOCK:   -4.28 KCAL/MOL
REMARK 922        TOTAL FREE ENERGY PREDICTED BY IDOCK:   -6.10 KCAL/MOL
REMARK 923 INTER-LIGAND FREE ENERGY PREDICTED BY IDOCK:   -5.37 KCAL/MOL
REMARK 924 INTRA-LIGAND FREE ENERGY PREDICTED BY IDOCK:   -0.73 KCAL/MOL
REMARK 927      BINDING AFFINITY PREDICTED BY RF-SCORE:    0.00 PKD
ROOT
HETATM    1  N   UNL     1      -7.613   8.783  74.411  1.00  0.00    -0.422 NA 
HETATM    2  H1  UNL     1      -8.305   8.756  75.160  1.00  0.00     0.000 HD 
HETATM    3  H2  UNL     1      -7.185   9.706  74.345  1.00  0.00     0.000 HD 
HETATM    4  CA  UNL     1      -8.169   8.355  73.087  1.00  0.00    -0.113 C  
HETATM    5  C   UNL     1      -8.707   6.921  73.231  1.00  0.00    -0.126 C  
HETATM    6  OXT UNL     1      -9.099   6.222  72.314  1.00  0.00    -0.141 OA 
HETATM    7  O   UNL     1      -8.695   6.520  74.530  1.00  0.00    -0.139 OA 
ENDROOT
BRANCH   4   8
HETATM    8  C   UNL     1      -7.125   8.396  71.956  1.00  0.00    -0.107 C  
BRANCH   8   9
HETATM    9  C   UNL     1      -7.537   9.290  70.811  1.00  0.00    -0.154 A  
HETATM   10  C   UNL     1      -6.597  10.068  70.128  1.00  0.00    -0.117 A  
HETATM   11  C   UNL     1      -7.004  10.931  69.102  1.00  0.00    -0.096 A  
HETATM   12  I   UNL     1      -5.504  12.127  68.225  1.00  0.00    -0.069 I  
HETATM   13  C   UNL     1      -8.359  11.047  68.733  1.00  0.00    -0.144 A  
HETATM   14  C   UNL     1      -9.306  10.331  69.486  1.00  0.00    -0.178 A  
HETATM   15  C   UNL     1      -8.888   9.421  70.472  1.00  0.00    -0.287 A  
HETATM   16  I   UNL     1     -11.396  10.667  69.456  1.00  0.00    -0.399 I  
BRANCH  13  17
HETATM   17  O   UNL     1      -8.630  11.972  67.750  1.00  0.00    -0.143 OA 
BRANCH  17  18
HETATM   18  C   UNL     1      -9.205  11.618  66.553  1.00  0.00    -0.198 A  
HETATM   19  C   UNL     1      -8.510  10.620  65.864  1.00  0.00    -0.167 A  
HETATM   20  C   UNL     1      -8.883  10.276  64.565  1.00  0.00    -0.203 A  
HETATM   21  I   UNL     1      -7.768   8.819  63.568  1.00  0.00    -0.152 I  
HETATM   22  C   UNL     1      -9.958  10.927  63.951  1.00  0.00    -0.343 A  
HETATM   23  C   UNL     1     -10.705  11.861  64.679  1.00  0.00    -0.307 A  
HETATM   24  O   UNL     1     -10.270  10.679  62.642  1.00  0.00    -0.751 OA 
HETATM   25  H   UNL     1     -11.001  11.121  62.224  1.00  0.00     0.000 HD 
HETATM   26  I   UNL     1     -12.294  12.913  63.809  1.00  0.00    -0.349 I  
HETATM   27  C   UNL     1     -10.358  12.175  65.999  1.00  0.00    -0.268 A  
ENDBRANCH  17  18
ENDBRANCH  13  17
ENDBRANCH   8   9
ENDBRANCH   4   8
TORSDOF 4
ENDMDL
MODEL      122
REMARK 921   NORMALIZED FREE ENERGY PREDICTED BY IDOCK:   -4.26 KCAL/MOL
REMARK 922        TOTAL FREE ENERGY PREDICTED BY IDOCK:   -6.07 KCAL/MOL
REMARK 923 INTER-LIGAND FREE ENERGY PREDICTED BY IDOCK:   -5.66 KCAL/MOL
REMARK 924 INTRA-LIGAND FREE ENERGY PREDICTED BY IDOCK:   -0.41 KCAL/MOL
REMARK 927      BINDING AFFINITY PREDICTED BY RF-SCORE:    0.00 PKD
ROOT
HETATM    1  N   UNL     1      -8.546  15.506  65.972  1.00  0.00    -0.339 NA 
HETATM    2  H1  UNL     1      -7.710  15.946  66.356  1.00  0.00     0.000 HD 
HETATM    3  H2  UNL     1      -8.392  15.209  65.009  1.00  0.00     0.000 HD 
HETATM    4  CA  UNL     1      -9.763  16.375  66.075  1.00  0.00    -0.326 C  
HETATM    5  C   UNL     1      -9.996  16.705  67.559  1.00  0.00    -0.264 C  
HETATM    6  OXT UNL     1     -10.975  17.275  68.007  1.00  0.00    -0.350 OA 
HETATM    7  O   UNL     1      -8.958  16.280  68.326  1.00  0.00    -0.184 OA 
ENDROOT
BRANCH   4   8
HETATM    8  C   UNL     1     -11.025  15.712  65.495  1.00  0.00    -0.307 C  
BRANCH   8   9
HETATM    9  C   UNL     1     -11.084  14.228  65.765  1.00  0.00    -0.310 A  
HETATM   10  C   UNL     1     -11.385  13.739  67.040  1.00  0.00    -0.345 A  
HETATM   11  C   UNL     1     -11.385  12.359  67.287  1.00  0.00    -0.323 A  
HETATM   12  I   UNL     1     -11.748  11.755  69.274  1.00  0.00    -0.386 I  
HETATM   13  C   UNL     1     -11.078  11.431  66.271  1.00  0.00    -0.221 A  
HETATM   14  C   UNL     1     -10.689  11.936  65.018  1.00  0.00    -0.292 A  
HETATM   15  C   UNL     1     -10.751  13.316  64.759  1.00  0.00    -0.393 A  
HETATM   16  I   UNL     1      -9.750  10.814  63.488  1.00  0.00    -0.370 I  
BRANCH  13  17
HETATM   17  O   UNL     1     -11.058  10.111  66.659  1.00  0.00    -0.012 OA 
BRANCH  17  18
HETATM   18  C   UNL     1      -9.891   9.465  66.992  1.00  0.00    -0.201 A  
HETATM   19  C   UNL     1      -9.960   8.074  66.874  1.00  0.00    -0.338 A  
HETATM   20  C   UNL     1      -8.909   7.280  67.331  1.00  0.00    -0.119 A  
HETATM   21  I   UNL     1      -9.098   5.206  67.179  1.00  0.00    -0.134 I  
HETATM   22  C   UNL     1      -7.782   7.875  67.906  1.00  0.00    -0.125 A  
HETATM   23  C   UNL     1      -7.681   9.271  67.940  1.00  0.00    -0.088 A  
HETATM   24  O   UNL     1      -6.790   7.108  68.457  1.00  0.00    -0.070 OA 
HETATM   25  H   UNL     1      -6.024   7.513  68.848  1.00  0.00     0.000 HD 
HETATM   26  I   UNL     1      -6.047  10.232  68.832  1.00  0.00    -0.040 I  
HETATM   27  C   UNL     1      -8.717  10.070  67.440  1.00  0.00    -0.125 A  
ENDBRANCH  17  18
ENDBRANCH  13  17
ENDBRANCH   8   9
ENDBRANCH   4   8
TORSDOF 4
ENDMDL
MODEL      123
REMARK 921   NORMALIZED FREE ENERGY PREDICTED BY IDOCK:   -4.24 KCAL/MOL
REMARK 922        TOTAL FREE ENERGY PREDICTED BY IDOCK:   -6.06 KCAL/MOL
REMARK 923 INTER-LIGAND FREE ENERGY PREDICTED BY IDOCK:   -5.85 KCAL/MOL
REMARK 924 INTRA-LIGAND FREE ENERGY PREDICTED BY IDOCK:   -0.20 KCAL/MOL
REMARK 927      BINDING AFFINITY PREDICTED BY RF-SCORE:    0.00 PKD
ROOT
HETATM    1  N   UNL     1     -10.625   8.050  67.620  1.00  0.00    -0.408 NA 
HETATM    2  H1  UNL     1     -10.252   7.160  67.292  1.00  0.00     0.000 HD 
HETATM    3  H2  UNL     1     -10.430   8.795  66.952  1.00  0.00     0.000 HD 
HETATM    4  CA  UNL     1     -10.140   8.419  68.989  1.00  0.00    -0.203 C  
HETATM    5  C   UNL     1     -10.553   7.303  69.964  1.00  0.00    -0.233 C  
HETATM    6  OXT UNL     1     -10.437   7.349  71.175  1.00  0.00    -0.209 OA 
HETATM    7  O   UNL     1     -11.068   6.235  69.298  1.00  0.00    -0.332 OA 
ENDROOT
BRANCH   4   8
HETATM    8  C   UNL     1     -10.703   9.763  69.484  1.00  0.00    -0.255 C  
BRANCH   8   9
HETATM    9  C   UNL     1     -10.202  10.940  68.681  1.00  0.00    -0.201 A  
HETATM   10  C   UNL     1     -11.088  11.765  67.982  1.00  0.00    -0.297 A  
HETATM   11  C   UNL     1     -10.603  12.822  67.200  1.00  0.00    -0.237 A  
HETATM   12  I   UNL     1     -12.033  13.924  66.111  1.00  0.00    -0.495 I  
HETATM   13  C   UNL     1      -9.222  13.080  67.089  1.00  0.00    -0.226 A  
HETATM   14  C   UNL     1      -8.336  12.190  67.721  1.00  0.00    -0.159 A  
HETATM   15  C   UNL     1      -8.829  11.170  68.553  1.00  0.00    -0.161 A  
HETATM   16  I   UNL     1      -6.256  12.067  67.348  1.00  0.00    -0.131 I  
BRANCH  13  17
HETATM   17  O   UNL     1      -8.876  14.111  66.245  1.00  0.00    -0.046 OA 
BRANCH  17  18
HETATM   18  C   UNL     1      -8.492  15.344  66.716  1.00  0.00    -0.272 A  
HETATM   19  C   UNL     1      -7.578  15.287  67.772  1.00  0.00    -0.171 A  
HETATM   20  C   UNL     1      -7.225  16.450  68.455  1.00  0.00    -0.158 A  
HETATM   21  I   UNL     1      -5.899  16.290  70.060  1.00  0.00    -0.037 I  
HETATM   22  C   UNL     1      -7.783  17.676  68.082  1.00  0.00    -0.244 A  
HETATM   23  C   UNL     1      -8.629  17.739  66.968  1.00  0.00    -0.236 A  
HETATM   24  O   UNL     1      -7.532  18.809  68.809  1.00  0.00    -0.299 OA 
HETATM   25  H   UNL     1      -7.911  19.643  68.556  1.00  0.00     0.000 HD 
HETATM   26  I   UNL     1      -9.542  19.531  66.383  1.00  0.00    -0.484 I  
HETATM   27  C   UNL     1      -8.949  16.577  66.253  1.00  0.00    -0.359 A  
ENDBRANCH  17  18
ENDBRANCH  13  17
ENDBRANCH   8   9
ENDBRANCH   4   8
TORSDOF 4
ENDMDL
MODEL      124
REMARK 921   NORMALIZED FREE ENERGY PREDICTED BY IDOCK:   -4.24 KCAL/MOL
REMARK 922        TOTAL FREE ENERGY PREDICTED BY IDOCK:   -6.05 KCAL/MOL
REMARK 923 INTER-LIGAND FREE ENERGY PREDICTED BY IDOCK:   -5.83 KCAL/MOL
REMARK 924 INTRA-LIGAND FREE ENERGY PREDICTED BY IDOCK:   -0.22 KCAL/MOL
REMARK 927      BINDING AFFINITY PREDICTED BY RF-SCORE:    0.00 PKD
ROOT
HETATM    1  N   UNL     1     -10.077  13.052  64.268  1.00  0.00    -0.617 NA 
HETATM    2  H1  UNL     1      -9.956  13.162  63.262  1.00  0.00     0.000 HD 
HETATM    3  H2  UNL     1      -9.187  12.853  64.722  1.00  0.00     0.000 HD 
HETATM    4  CA  UNL     1     -11.102  12.019  64.624  1.00  0.00    -0.322 C  
HETATM    5  C   UNL     1     -12.443  12.431  63.992  1.00  0.00    -0.459 C  
HETATM    6  OXT UNL     1     -13.514  11.889  64.197  1.00  0.00    -0.591 OA 
HETATM    7  O   UNL     1     -12.286  13.493  63.157  1.00  0.00    -0.712 OA 
ENDROOT
BRANCH   4   8
HETATM    8  C   UNL     1     -11.285  11.852  66.144  1.00  0.00    -0.387 C  
BRANCH   8   9
HETATM    9  C   UNL     1     -10.331  10.846  66.742  1.00  0.00    -0.289 A  
HETATM   10  C   UNL     1      -9.021  11.204  67.074  1.00  0.00    -0.156 A  
HETATM   11  C   UNL     1      -8.132  10.246  67.580  1.00  0.00    -0.110 A  
HETATM   12  I   UNL     1      -6.156  10.889  67.940  1.00  0.00    -0.051 I  
HETATM   13  C   UNL     1      -8.523   8.904  67.761  1.00  0.00    -0.125 A  
HETATM   14  C   UNL     1      -9.812   8.534  67.339  1.00  0.00    -0.187 A  
HETATM   15  C   UNL     1     -10.719   9.511  66.891  1.00  0.00    -0.184 A  
HETATM   16  I   UNL     1     -10.485   6.546  67.068  1.00  0.00    -0.381 I  
BRANCH  13  17
HETATM   17  O   UNL     1      -7.538   8.054  68.211  1.00  0.00    -0.104 OA 
BRANCH  17  18
HETATM   18  C   UNL     1      -7.739   7.198  69.267  1.00  0.00    -0.108 A  
HETATM   19  C   UNL     1      -8.646   7.674  70.218  1.00  0.00    -0.143 A  
HETATM   20  C   UNL     1      -8.825   6.988  71.419  1.00  0.00    -0.129 A  
HETATM   21  I   UNL     1     -10.152   7.782  72.822  1.00  0.00    -0.398 I  
HETATM   22  C   UNL     1      -8.099   5.821  71.673  1.00  0.00    -0.118 A  
HETATM   23  C   UNL     1      -7.258   5.302  70.680  1.00  0.00    -0.068 A  
HETATM   24  O   UNL     1      -8.181   5.196  72.888  1.00  0.00    -0.107 OA 
HETATM   25  H   UNL     1      -7.687   4.402  73.061  1.00  0.00     0.000 HD 
HETATM   26  I   UNL     1      -6.100   3.587  71.009  1.00  0.00    -0.019 I  
HETATM   27  C   UNL     1      -7.112   5.966  69.455  1.00  0.00    -0.065 A  
ENDBRANCH  17  18
ENDBRANCH  13  17
ENDBRANCH   8   9
ENDBRANCH   4   8
TORSDOF 4
ENDMDL
MODEL      125
REMARK 921   NORMALIZED FREE ENERGY PREDICTED BY IDOCK:   -4.24 KCAL/MOL
REMARK 922        TOTAL FREE ENERGY PREDICTED BY IDOCK:   -6.05 KCAL/MOL
REMARK 923 INTER-LIGAND FREE ENERGY PREDICTED BY IDOCK:   -5.97 KCAL/MOL
REMARK 924 INTRA-LIGAND FREE ENERGY PREDICTED BY IDOCK:   -0.08 KCAL/MOL
REMARK 927      BINDING AFFINITY PREDICTED BY RF-SCORE:    0.00 PKD
ROOT
HETATM    1  N   UNL     1      -8.480   6.363  72.015  1.00  0.00    -0.116 NA 
HETATM    2  H1  UNL     1      -8.844   5.697  72.695  1.00  0.00     0.000 HD 
HETATM    3  H2  UNL     1      -8.108   5.882  71.196  1.00  0.00     0.000 HD 
HETATM    4  CA  UNL     1      -7.459   7.294  72.596  1.00  0.00    -0.076 C  
HETATM    5  C   UNL     1      -8.113   8.060  73.759  1.00  0.00    -0.224 C  
HETATM    6  OXT UNL     1      -7.607   8.991  74.360  1.00  0.00    -0.391 OA 
HETATM    7  O   UNL     1      -9.344   7.561  74.046  1.00  0.00    -0.263 OA 
ENDROOT
BRANCH   4   8
HETATM    8  C   UNL     1      -6.909   8.300  71.569  1.00  0.00    -0.066 C  
BRANCH   8   9
HETATM    9  C   UNL     1      -7.887   8.596  70.457  1.00  0.00    -0.096 A  
HETATM   10  C   UNL     1      -9.094   9.252  70.715  1.00  0.00    -0.306 A  
HETATM   11  C   UNL     1     -10.014   9.473  69.681  1.00  0.00    -0.205 A  
HETATM   12  I   UNL     1     -11.842  10.375  70.221  1.00  0.00    -0.390 I  
HETATM   13  C   UNL     1      -9.757   9.041  68.364  1.00  0.00    -0.156 A  
HETATM   14  C   UNL     1      -8.583   8.303  68.134  1.00  0.00    -0.132 A  
HETATM   15  C   UNL     1      -7.636   8.138  69.160  1.00  0.00    -0.096 A  
HETATM   16  I   UNL     1      -8.179   7.161  66.399  1.00  0.00    -0.139 I  
BRANCH  13  17
HETATM   17  O   UNL     1     -10.766   9.270  67.456  1.00  0.00    -0.277 OA 
BRANCH  17  18
HETATM   18  C   UNL     1     -10.721  10.313  66.562  1.00  0.00    -0.078 A  
HETATM   19  C   UNL     1     -10.088   9.998  65.356  1.00  0.00    -0.317 A  
HETATM   20  C   UNL     1      -9.825  10.999  64.421  1.00  0.00    -0.298 A  
HETATM   21  I   UNL     1      -8.825  10.474  62.665  1.00  0.00    -0.394 I  
HETATM   22  C   UNL     1     -10.199  12.319  64.687  1.00  0.00    -0.285 A  
HETATM   23  C   UNL     1     -10.912  12.613  65.856  1.00  0.00    -0.278 A  
HETATM   24  O   UNL     1      -9.854  13.330  63.831  1.00  0.00    -0.716 OA 
HETATM   25  H   UNL     1     -10.107  14.229  64.011  1.00  0.00     0.000 HD 
HETATM   26  I   UNL     1     -11.458  14.575  66.346  1.00  0.00    -0.302 I  
HETATM   27  C   UNL     1     -11.215  11.600  66.775  1.00  0.00    -0.371 A  
ENDBRANCH  17  18
ENDBRANCH  13  17
ENDBRANCH   8   9
ENDBRANCH   4   8
TORSDOF 4
ENDMDL
MODEL      126
REMARK 921   NORMALIZED FREE ENERGY PREDICTED BY IDOCK:   -4.20 KCAL/MOL
REMARK 922        TOTAL FREE ENERGY PREDICTED BY IDOCK:   -6.00 KCAL/MOL
REMARK 923 INTER-LIGAND FREE ENERGY PREDICTED BY IDOCK:   -5.57 KCAL/MOL
REMARK 924 INTRA-LIGAND FREE ENERGY PREDICTED BY IDOCK:   -0.42 KCAL/MOL
REMARK 927      BINDING AFFINITY PREDICTED BY RF-SCORE:    0.00 PKD
ROOT
HETATM    1  N   UNL     1     -12.321  13.751  67.042  1.00  0.00    -0.441 NA 
HETATM    2  H1  UNL     1     -13.324  13.643  67.192  1.00  0.00     0.000 HD 
HETATM    3  H2  UNL     1     -11.877  14.187  67.849  1.00  0.00     0.000 HD 
HETATM    4  CA  UNL     1     -11.996  14.499  65.784  1.00  0.00    -0.306 C  
HETATM    5  C   UNL     1     -12.609  13.736  64.598  1.00  0.00    -0.246 C  
HETATM    6  OXT UNL     1     -12.418  13.992  63.422  1.00  0.00    -0.826 OA 
HETATM    7  O   UNL     1     -13.409  12.723  65.025  1.00  0.00    -0.678 OA 
ENDROOT
BRANCH   4   8
HETATM    8  C   UNL     1     -10.481  14.662  65.557  1.00  0.00    -0.374 C  
BRANCH   8   9
HETATM    9  C   UNL     1      -9.692  13.445  65.976  1.00  0.00    -0.228 A  
HETATM   10  C   UNL     1      -8.847  13.481  67.089  1.00  0.00    -0.231 A  
HETATM   11  C   UNL     1      -8.081  12.359  67.433  1.00  0.00    -0.177 A  
HETATM   12  I   UNL     1      -6.768  12.577  69.069  1.00  0.00     0.000 I  
HETATM   13  C   UNL     1      -8.132  11.173  66.673  1.00  0.00    -0.159 A  
HETATM   14  C   UNL     1      -8.914  11.177  65.504  1.00  0.00    -0.166 A  
HETATM   15  C   UNL     1      -9.727  12.283  65.198  1.00  0.00    -0.106 A  
HETATM   16  I   UNL     1      -8.813   9.731  63.962  1.00  0.00    -0.228 I  
BRANCH  13  17
HETATM   17  O   UNL     1      -7.289  10.166  67.085  1.00  0.00    -0.089 OA 
BRANCH  17  18
HETATM   18  C   UNL     1      -7.757   9.024  67.689  1.00  0.00    -0.097 A  
HETATM   19  C   UNL     1      -8.457   9.257  68.877  1.00  0.00    -0.129 A  
HETATM   20  C   UNL     1      -8.847   8.186  69.681  1.00  0.00    -0.143 A  
HETATM   21  I   UNL     1      -9.838   8.604  71.470  1.00  0.00    -0.394 I  
HETATM   22  C   UNL     1      -8.541   6.877  69.298  1.00  0.00    -0.132 A  
HETATM   23  C   UNL     1      -7.919   6.646  68.064  1.00  0.00    -0.110 A  
HETATM   24  O   UNL     1      -8.821   5.822  70.125  1.00  0.00    -0.136 OA 
HETATM   25  H   UNL     1      -8.614   4.932  69.865  1.00  0.00     0.000 HD 
HETATM   26  I   UNL     1      -7.385   4.716  67.449  1.00  0.00    -0.075 I  
HETATM   27  C   UNL     1      -7.567   7.719  67.235  1.00  0.00    -0.104 A  
ENDBRANCH  17  18
ENDBRANCH  13  17
ENDBRANCH   8   9
ENDBRANCH   4   8
TORSDOF 4
ENDMDL
MODEL      127
REMARK 921   NORMALIZED FREE ENERGY PREDICTED BY IDOCK:   -4.19 KCAL/MOL
REMARK 922        TOTAL FREE ENERGY PREDICTED BY IDOCK:   -5.99 KCAL/MOL
REMARK 923 INTER-LIGAND FREE ENERGY PREDICTED BY IDOCK:   -5.43 KCAL/MOL
REMARK 924 INTRA-LIGAND FREE ENERGY PREDICTED BY IDOCK:   -0.56 KCAL/MOL
REMARK 927      BINDING AFFINITY PREDICTED BY RF-SCORE:    0.00 PKD
ROOT
HETATM    1  N   UNL     1      -9.789  14.621  67.041  1.00  0.00    -0.239 NA 
HETATM    2  H1  UNL     1      -8.997  14.850  66.440  1.00  0.00     0.000 HD 
HETATM    3  H2  UNL     1      -9.541  14.722  68.024  1.00  0.00     0.000 HD 
HETATM    4  CA  UNL     1     -10.354  13.260  66.769  1.00  0.00    -0.257 C  
HETATM    5  C   UNL     1     -10.799  13.208  65.297  1.00  0.00    -0.297 C  
HETATM    6  OXT UNL     1     -11.425  12.298  64.783  1.00  0.00    -0.313 OA 
HETATM    7  O   UNL     1     -10.399  14.318  64.623  1.00  0.00    -0.417 OA 
ENDROOT
BRANCH   4   8
HETATM    8  C   UNL     1     -11.549  12.913  67.675  1.00  0.00    -0.406 C  
BRANCH   8   9
HETATM    9  C   UNL     1     -11.413  11.560  68.332  1.00  0.00    -0.364 A  
HETATM   10  C   UNL     1     -10.936  10.457  67.618  1.00  0.00    -0.374 A  
HETATM   11  C   UNL     1     -10.865   9.197  68.227  1.00  0.00    -0.051 A  
HETATM   12  I   UNL     1     -10.230   7.595  67.012  1.00  0.00    -0.326 I  
HETATM   13  C   UNL     1     -11.274   9.002  69.562  1.00  0.00     0.070 A  
HETATM   14  C   UNL     1     -11.837  10.096  70.242  1.00  0.00    -0.261 A  
HETATM   15  C   UNL     1     -11.849  11.370  69.648  1.00  0.00    -0.431 A  
HETATM   16  I   UNL     1     -12.933   9.979  72.048  1.00  0.00    -0.230 I  
BRANCH  13  17
HETATM   17  O   UNL     1     -11.206   7.706  70.021  1.00  0.00    -0.231 OA 
BRANCH  17  18
HETATM   18  C   UNL     1     -10.079   7.203  70.627  1.00  0.00    -0.191 A  
HETATM   19  C   UNL     1     -10.243   5.916  71.148  1.00  0.00    -0.266 A  
HETATM   20  C   UNL     1      -9.240   5.345  71.930  1.00  0.00    -0.138 A  
HETATM   21  I   UNL     1      -9.569   3.443  72.726  1.00  0.00    -0.217 I  
HETATM   22  C   UNL     1      -8.067   6.059  72.192  1.00  0.00    -0.107 A  
HETATM   23  C   UNL     1      -7.872   7.310  71.595  1.00  0.00    -0.091 A  
HETATM   24  O   UNL     1      -7.119   5.558  73.045  1.00  0.00    -0.082 OA 
HETATM   25  H   UNL     1      -6.321   6.043  73.223  1.00  0.00     0.000 HD 
HETATM   26  I   UNL     1      -6.163   8.458  71.983  1.00  0.00    -0.074 I  
HETATM   27  C   UNL     1      -8.861   7.865  70.772  1.00  0.00    -0.139 A  
ENDBRANCH  17  18
ENDBRANCH  13  17
ENDBRANCH   8   9
ENDBRANCH   4   8
TORSDOF 4
ENDMDL
MODEL      128
REMARK 921   NORMALIZED FREE ENERGY PREDICTED BY IDOCK:   -4.19 KCAL/MOL
REMARK 922        TOTAL FREE ENERGY PREDICTED BY IDOCK:   -5.99 KCAL/MOL
REMARK 923 INTER-LIGAND FREE ENERGY PREDICTED BY IDOCK:   -6.77 KCAL/MOL
REMARK 924 INTRA-LIGAND FREE ENERGY PREDICTED BY IDOCK:    0.79 KCAL/MOL
REMARK 927      BINDING AFFINITY PREDICTED BY RF-SCORE:    0.00 PKD
ROOT
HETATM    1  N   UNL     1     -11.519   7.072  69.743  1.00  0.00    -0.529 NA 
HETATM    2  H1  UNL     1     -10.753   6.399  69.750  1.00  0.00     0.000 HD 
HETATM    3  H2  UNL     1     -11.558   7.571  68.855  1.00  0.00     0.000 HD 
HETATM    4  CA  UNL     1     -11.464   8.032  70.893  1.00  0.00    -0.276 C  
HETATM    5  C   UNL     1     -11.510   7.221  72.200  1.00  0.00    -0.273 C  
HETATM    6  OXT UNL     1     -11.621   7.693  73.317  1.00  0.00    -0.212 OA 
HETATM    7  O   UNL     1     -11.406   5.888  71.955  1.00  0.00    -0.276 OA 
ENDROOT
BRANCH   4   8
HETATM    8  C   UNL     1     -12.620   9.049  70.884  1.00  0.00    -0.074 C  
BRANCH   8   9
HETATM    9  C   UNL     1     -12.153  10.465  70.648  1.00  0.00    -0.443 A  
HETATM   10  C   UNL     1     -12.886  11.555  71.124  1.00  0.00    -0.414 A  
HETATM   11  C   UNL     1     -12.466  12.864  70.852  1.00  0.00    -0.296 A  
HETATM   12  I   UNL     1     -13.717  14.419  71.535  1.00  0.00    -0.408 I  
HETATM   13  C   UNL     1     -11.307  13.121  70.092  1.00  0.00     0.203 A  
HETATM   14  C   UNL     1     -10.628  12.020  69.541  1.00  0.00     0.294 A  
HETATM   15  C   UNL     1     -11.018  10.710  69.868  1.00  0.00    -0.337 A  
HETATM   16  I   UNL     1      -9.166  12.127  68.015  1.00  0.00    -0.179 I  
BRANCH  13  17
HETATM   17  O   UNL     1     -11.037  14.449  69.850  1.00  0.00    -0.216 OA 
BRANCH  17  18
HETATM   18  C   UNL     1     -11.058  14.979  68.582  1.00  0.00    -0.264 A  
HETATM   19  C   UNL     1     -11.574  14.113  67.614  1.00  0.00    -0.394 A  
HETATM   20  C   UNL     1     -11.507  14.453  66.264  1.00  0.00    -0.359 A  
HETATM   21  I   UNL     1     -12.243  13.090  64.863  1.00  0.00    -0.524 I  
HETATM   22  C   UNL     1     -10.925  15.663  65.875  1.00  0.00    -0.231 A  
HETATM   23  C   UNL     1     -10.491  16.565  66.855  1.00  0.00    -0.282 A  
HETATM   24  O   UNL     1     -10.754  15.964  64.551  1.00  0.00    -0.794 OA 
HETATM   25  H   UNL     1     -10.358  16.787  64.287  1.00  0.00     0.000 HD 
HETATM   26  I   UNL     1      -9.563  18.373  66.347  1.00  0.00    -0.190 I  
HETATM   27  C   UNL     1     -10.599  16.243  68.214  1.00  0.00    -0.300 A  
ENDBRANCH  17  18
ENDBRANCH  13  17
ENDBRANCH   8   9
ENDBRANCH   4   8
TORSDOF 4
ENDMDL
MODEL      129
REMARK 921   NORMALIZED FREE ENERGY PREDICTED BY IDOCK:   -4.18 KCAL/MOL
REMARK 922        TOTAL FREE ENERGY PREDICTED BY IDOCK:   -5.98 KCAL/MOL
REMARK 923 INTER-LIGAND FREE ENERGY PREDICTED BY IDOCK:   -5.83 KCAL/MOL
REMARK 924 INTRA-LIGAND FREE ENERGY PREDICTED BY IDOCK:   -0.15 KCAL/MOL
REMARK 927      BINDING AFFINITY PREDICTED BY RF-SCORE:    0.00 PKD
ROOT
HETATM    1  N   UNL     1     -12.768  13.784  66.398  1.00  0.00    -0.377 NA 
HETATM    2  H1  UNL     1     -13.518  14.050  65.760  1.00  0.00     0.000 HD 
HETATM    3  H2  UNL     1     -13.145  13.456  67.286  1.00  0.00     0.000 HD 
HETATM    4  CA  UNL     1     -11.767  14.878  66.613  1.00  0.00    -0.217 C  
HETATM    5  C   UNL     1     -11.165  15.256  65.249  1.00  0.00    -0.336 C  
HETATM    6  OXT UNL     1     -10.225  16.013  65.080  1.00  0.00    -0.513 OA 
HETATM    7  O   UNL     1     -11.823  14.637  64.233  1.00  0.00    -0.405 OA 
ENDROOT
BRANCH   4   8
HETATM    8  C   UNL     1     -10.635  14.477  67.576  1.00  0.00    -0.262 C  
BRANCH   8   9
HETATM    9  C   UNL     1     -10.582  12.989  67.830  1.00  0.00    -0.235 A  
HETATM   10  C   UNL     1     -10.032  12.116  66.886  1.00  0.00    -0.217 A  
HETATM   11  C   UNL     1     -10.038  10.733  67.114  1.00  0.00    -0.204 A  
HETATM   12  I   UNL     1      -9.276   9.518  65.568  1.00  0.00    -0.302 I  
HETATM   13  C   UNL     1     -10.597  10.184  68.286  1.00  0.00    -0.226 A  
HETATM   14  C   UNL     1     -11.228  11.061  69.184  1.00  0.00    -0.255 A  
HETATM   15  C   UNL     1     -11.166  12.451  68.981  1.00  0.00    -0.320 A  
HETATM   16  I   UNL     1     -12.524  10.479  70.753  1.00  0.00    -0.488 I  
BRANCH  13  17
HETATM   17  O   UNL     1     -10.589   8.809  68.360  1.00  0.00    -0.207 OA 
BRANCH  17  18
HETATM   18  C   UNL     1      -9.777   8.130  69.236  1.00  0.00    -0.170 A  
HETATM   19  C   UNL     1      -9.186   6.986  68.689  1.00  0.00    -0.131 A  
HETATM   20  C   UNL     1      -8.469   6.112  69.505  1.00  0.00    -0.120 A  
HETATM   21  I   UNL     1      -7.660   4.392  68.640  1.00  0.00    -0.062 I  
HETATM   22  C   UNL     1      -8.337   6.379  70.871  1.00  0.00    -0.126 A  
HETATM   23  C   UNL     1      -8.855   7.570  71.394  1.00  0.00    -0.132 A  
HETATM   24  O   UNL     1      -7.730   5.478  71.705  1.00  0.00    -0.101 OA 
HETATM   25  H   UNL     1      -7.640   5.659  72.634  1.00  0.00     0.000 HD 
HETATM   26  I   UNL     1      -8.740   8.012  73.439  1.00  0.00    -0.230 I  
HETATM   27  C   UNL     1      -9.537   8.471  70.566  1.00  0.00    -0.194 A  
ENDBRANCH  17  18
ENDBRANCH  13  17
ENDBRANCH   8   9
ENDBRANCH   4   8
TORSDOF 4
ENDMDL
MODEL      130
REMARK 921   NORMALIZED FREE ENERGY PREDICTED BY IDOCK:   -4.18 KCAL/MOL
REMARK 922        TOTAL FREE ENERGY PREDICTED BY IDOCK:   -5.97 KCAL/MOL
REMARK 923 INTER-LIGAND FREE ENERGY PREDICTED BY IDOCK:   -5.67 KCAL/MOL
REMARK 924 INTRA-LIGAND FREE ENERGY PREDICTED BY IDOCK:   -0.30 KCAL/MOL
REMARK 927      BINDING AFFINITY PREDICTED BY RF-SCORE:    0.00 PKD
ROOT
HETATM    1  N   UNL     1     -11.477   6.798  66.842  1.00  0.00    -0.717 NA 
HETATM    2  H1  UNL     1     -12.359   6.491  67.252  1.00  0.00     0.000 HD 
HETATM    3  H2  UNL     1     -11.612   7.112  65.882  1.00  0.00     0.000 HD 
HETATM    4  CA  UNL     1     -10.403   5.755  66.917  1.00  0.00    -0.251 C  
HETATM    5  C   UNL     1     -10.180   5.398  68.397  1.00  0.00    -0.163 C  
HETATM    6  OXT UNL     1      -9.286   4.688  68.822  1.00  0.00    -0.121 OA 
HETATM    7  O   UNL     1     -11.120   5.978  69.189  1.00  0.00    -0.362 OA 
ENDROOT
BRANCH   4   8
HETATM    8  C   UNL     1      -9.072   6.217  66.298  1.00  0.00    -0.166 C  
BRANCH   8   9
HETATM    9  C   UNL     1      -8.822   7.695  66.481  1.00  0.00    -0.167 A  
HETATM   10  C   UNL     1      -8.288   8.194  67.673  1.00  0.00    -0.127 A  
HETATM   11  C   UNL     1      -8.111   9.573  67.847  1.00  0.00    -0.106 A  
HETATM   12  I   UNL     1      -7.397  10.203  69.729  1.00  0.00    -0.140 I  
HETATM   13  C   UNL     1      -8.468  10.492  66.840  1.00  0.00    -0.125 A  
HETATM   14  C   UNL     1      -9.089   9.989  65.684  1.00  0.00    -0.183 A  
HETATM   15  C   UNL     1      -9.207   8.602  65.488  1.00  0.00    -0.158 A  
HETATM   16  I   UNL     1     -10.125  11.151  64.250  1.00  0.00    -0.465 I  
BRANCH  13  17
HETATM   17  O   UNL     1      -8.297  11.820  67.160  1.00  0.00    -0.154 OA 
BRANCH  17  18
HETATM   18  C   UNL     1      -9.350  12.629  67.513  1.00  0.00    -0.188 A  
HETATM   19  C   UNL     1      -9.386  13.845  66.825  1.00  0.00    -0.286 A  
HETATM   20  C   UNL     1     -10.301  14.831  67.194  1.00  0.00    -0.255 A  
HETATM   21  I   UNL     1     -10.265  16.647  66.164  1.00  0.00    -0.259 I  
HETATM   22  C   UNL     1     -11.187  14.603  68.251  1.00  0.00    -0.285 A  
HETATM   23  C   UNL     1     -11.206  13.350  68.877  1.00  0.00    -0.276 A  
HETATM   24  O   UNL     1     -12.017  15.597  68.695  1.00  0.00    -0.510 OA 
HETATM   25  H   UNL     1     -12.619  15.442  69.414  1.00  0.00     0.000 HD 
HETATM   26  I   UNL     1     -12.468  12.954  70.500  1.00  0.00     0.026 I  
HETATM   27  C   UNL     1     -10.317  12.344  68.477  1.00  0.00    -0.232 A  
ENDBRANCH  17  18
ENDBRANCH  13  17
ENDBRANCH   8   9
ENDBRANCH   4   8
TORSDOF 4
ENDMDL
MODEL      131
REMARK 921   NORMALIZED FREE ENERGY PREDICTED BY IDOCK:   -4.17 KCAL/MOL
REMARK 922        TOTAL FREE ENERGY PREDICTED BY IDOCK:   -5.97 KCAL/MOL
REMARK 923 INTER-LIGAND FREE ENERGY PREDICTED BY IDOCK:   -5.27 KCAL/MOL
REMARK 924 INTRA-LIGAND FREE ENERGY PREDICTED BY IDOCK:   -0.70 KCAL/MOL
REMARK 927      BINDING AFFINITY PREDICTED BY RF-SCORE:    0.00 PKD
ROOT
HETATM    1  N   UNL     1     -11.263   4.803  65.627  1.00  0.00    -0.927 NA 
HETATM    2  H1  UNL     1     -11.036   4.436  64.703  1.00  0.00     0.000 HD 
HETATM    3  H2  UNL     1     -12.006   5.498  65.571  1.00  0.00     0.000 HD 
HETATM    4  CA  UNL     1     -10.069   5.353  66.347  1.00  0.00    -0.204 C  
HETATM    5  C   UNL     1      -9.028   4.229  66.486  1.00  0.00    -0.120 C  
HETATM    6  OXT UNL     1      -8.002   4.296  67.139  1.00  0.00    -0.095 OA 
HETATM    7  O   UNL     1      -9.396   3.129  65.775  1.00  0.00    -0.154 OA 
ENDROOT
BRANCH   4   8
HETATM    8  C   UNL     1     -10.411   5.907  67.742  1.00  0.00    -0.262 C  
BRANCH   8   9
HETATM    9  C   UNL     1     -10.440   7.416  67.783  1.00  0.00    -0.298 A  
HETATM   10  C   UNL     1     -10.950   8.098  68.892  1.00  0.00     0.118 A  
HETATM   11  C   UNL     1     -11.018   9.497  68.892  1.00  0.00    -0.086 A  
HETATM   12  I   UNL     1     -11.906  10.399  70.579  1.00  0.00    -0.463 I  
HETATM   13  C   UNL     1     -10.586  10.254  67.784  1.00  0.00    -0.250 A  
HETATM   14  C   UNL     1     -10.161   9.557  66.640  1.00  0.00    -0.252 A  
HETATM   15  C   UNL     1     -10.036   8.157  66.667  1.00  0.00    -0.344 A  
HETATM   16  I   UNL     1      -9.904  10.406  64.719  1.00  0.00    -0.284 I  
BRANCH  13  17
HETATM   17  O   UNL     1     -10.760  11.615  67.891  1.00  0.00    -0.188 OA 
BRANCH  17  18
HETATM   18  C   UNL     1      -9.701  12.492  67.865  1.00  0.00    -0.205 A  
HETATM   19  C   UNL     1      -8.579  12.046  68.571  1.00  0.00    -0.093 A  
HETATM   20  C   UNL     1      -7.493  12.897  68.767  1.00  0.00    -0.047 A  
HETATM   21  I   UNL     1      -5.873  12.191  69.880  1.00  0.00    -0.132 I  
HETATM   22  C   UNL     1      -7.521  14.197  68.255  1.00  0.00    -0.125 A  
HETATM   23  C   UNL     1      -8.609  14.607  67.473  1.00  0.00    -0.187 A  
HETATM   24  O   UNL     1      -6.511  15.080  68.529  1.00  0.00    -0.088 OA 
HETATM   25  H   UNL     1      -6.531  15.964  68.181  1.00  0.00     0.000 HD 
HETATM   26  I   UNL     1      -8.744  16.556  66.717  1.00  0.00    -0.343 I  
HETATM   27  C   UNL     1      -9.681  13.737  67.238  1.00  0.00    -0.242 A  
ENDBRANCH  17  18
ENDBRANCH  13  17
ENDBRANCH   8   9
ENDBRANCH   4   8
TORSDOF 4
ENDMDL
MODEL      132
REMARK 921   NORMALIZED FREE ENERGY PREDICTED BY IDOCK:   -4.16 KCAL/MOL
REMARK 922        TOTAL FREE ENERGY PREDICTED BY IDOCK:   -5.96 KCAL/MOL
REMARK 923 INTER-LIGAND FREE ENERGY PREDICTED BY IDOCK:   -5.53 KCAL/MOL
REMARK 924 INTRA-LIGAND FREE ENERGY PREDICTED BY IDOCK:   -0.43 KCAL/MOL
REMARK 927      BINDING AFFINITY PREDICTED BY RF-SCORE:    0.00 PKD
ROOT
HETATM    1  N   UNL     1     -13.080  12.775  64.890  1.00  0.00    -0.821 NA 
HETATM    2  H1  UNL     1     -13.673  12.329  64.190  1.00  0.00     0.000 HD 
HETATM    3  H2  UNL     1     -13.609  13.454  65.436  1.00  0.00     0.000 HD 
HETATM    4  CA  UNL     1     -11.852  13.401  64.302  1.00  0.00    -0.423 C  
HETATM    5  C   UNL     1     -11.051  12.304  63.579  1.00  0.00    -0.464 C  
HETATM    6  OXT UNL     1      -9.935  12.441  63.111  1.00  0.00    -0.350 OA 
HETATM    7  O   UNL     1     -11.753  11.142  63.519  1.00  0.00     0.029 OA 
ENDROOT
BRANCH   4   8
HETATM    8  C   UNL     1     -10.956  14.074  65.358  1.00  0.00    -0.321 C  
BRANCH   8   9
HETATM    9  C   UNL     1     -10.461  13.108  66.408  1.00  0.00    -0.287 A  
HETATM   10  C   UNL     1     -11.293  12.685  67.449  1.00  0.00    -0.367 A  
HETATM   11  C   UNL     1     -10.802  11.829  68.444  1.00  0.00    -0.223 A  
HETATM   12  I   UNL     1     -12.125  11.353  70.016  1.00  0.00    -0.343 I  
HETATM   13  C   UNL     1      -9.467  11.377  68.431  1.00  0.00    -0.194 A  
HETATM   14  C   UNL     1      -8.614  11.879  67.433  1.00  0.00    -0.164 A  
HETATM   15  C   UNL     1      -9.127  12.688  66.403  1.00  0.00    -0.114 A  
HETATM   16  I   UNL     1      -6.503  11.739  67.447  1.00  0.00    -0.146 I  
BRANCH  13  17
HETATM   17  O   UNL     1      -9.097  10.587  69.496  1.00  0.00    -0.152 OA 
BRANCH  17  18
HETATM   18  C   UNL     1      -8.675   9.290  69.332  1.00  0.00    -0.148 A  
HETATM   19  C   UNL     1      -9.498   8.527  68.498  1.00  0.00    -0.146 A  
HETATM   20  C   UNL     1      -9.285   7.155  68.370  1.00  0.00    -0.133 A  
HETATM   21  I   UNL     1     -10.585   6.063  67.154  1.00  0.00    -0.379 I  
HETATM   22  C   UNL     1      -8.245   6.540  69.072  1.00  0.00    -0.116 A  
HETATM   23  C   UNL     1      -7.369   7.324  69.835  1.00  0.00    -0.084 A  
HETATM   24  O   UNL     1      -8.088   5.180  69.042  1.00  0.00    -0.084 OA 
HETATM   25  H   UNL     1      -7.381   4.762  69.520  1.00  0.00     0.000 HD 
HETATM   26  I   UNL     1      -5.821   6.466  70.955  1.00  0.00    -0.028 I  
HETATM   27  C   UNL     1      -7.556   8.709  69.929  1.00  0.00    -0.071 A  
ENDBRANCH  17  18
ENDBRANCH  13  17
ENDBRANCH   8   9
ENDBRANCH   4   8
TORSDOF 4
ENDMDL
MODEL      133
REMARK 921   NORMALIZED FREE ENERGY PREDICTED BY IDOCK:   -4.16 KCAL/MOL
REMARK 922        TOTAL FREE ENERGY PREDICTED BY IDOCK:   -5.96 KCAL/MOL
REMARK 923 INTER-LIGAND FREE ENERGY PREDICTED BY IDOCK:   -5.50 KCAL/MOL
REMARK 924 INTRA-LIGAND FREE ENERGY PREDICTED BY IDOCK:   -0.46 KCAL/MOL
REMARK 927      BINDING AFFINITY PREDICTED BY RF-SCORE:    0.00 PKD
ROOT
HETATM    1  N   UNL     1      -8.572  16.492  69.154  1.00  0.00    -0.199 NA 
HETATM    2  H1  UNL     1      -7.901  17.079  69.650  1.00  0.00     0.000 HD 
HETATM    3  H2  UNL     1      -8.628  15.567  69.578  1.00  0.00     0.000 HD 
HETATM    4  CA  UNL     1      -8.288  16.393  67.686  1.00  0.00    -0.165 C  
HETATM    5  C   UNL     1      -8.317  17.811  67.092  1.00  0.00    -0.223 C  
HETATM    6  OXT UNL     1      -8.263  18.078  65.905  1.00  0.00    -0.517 OA 
HETATM    7  O   UNL     1      -8.407  18.752  68.070  1.00  0.00    -0.274 OA 
ENDROOT
BRANCH   4   8
HETATM    8  C   UNL     1      -9.300  15.506  66.937  1.00  0.00    -0.252 C  
BRANCH   8   9
HETATM    9  C   UNL     1      -9.022  14.031  67.104  1.00  0.00    -0.241 A  
HETATM   10  C   UNL     1      -8.110  13.573  68.060  1.00  0.00    -0.156 A  
HETATM   11  C   UNL     1      -7.825  12.204  68.167  1.00  0.00    -0.147 A  
HETATM   12  I   UNL     1      -6.354  11.654  69.574  1.00  0.00    -0.084 I  
HETATM   13  C   UNL     1      -8.437  11.258  67.320  1.00  0.00    -0.144 A  
HETATM   14  C   UNL     1      -9.281  11.737  66.303  1.00  0.00    -0.221 A  
HETATM   15  C   UNL     1      -9.611  13.102  66.240  1.00  0.00    -0.241 A  
HETATM   16  I   UNL     1      -9.950  10.613  64.640  1.00  0.00    -0.337 I  
BRANCH  13  17
HETATM   17  O   UNL     1      -8.027   9.955  67.491  1.00  0.00    -0.105 OA 
BRANCH  17  18
HETATM   18  C   UNL     1      -8.813   9.019  68.120  1.00  0.00    -0.133 A  
HETATM   19  C   UNL     1      -9.010   7.853  67.375  1.00  0.00    -0.133 A  
HETATM   20  C   UNL     1      -9.914   6.886  67.814  1.00  0.00    -0.148 A  
HETATM   21  I   UNL     1     -10.205   5.194  66.626  1.00  0.00    -0.290 I  
HETATM   22  C   UNL     1     -10.623   7.081  69.003  1.00  0.00    -0.217 A  
HETATM   23  C   UNL     1     -10.355   8.208  69.789  1.00  0.00    -0.216 A  
HETATM   24  O   UNL     1     -11.591   6.195  69.393  1.00  0.00    -0.459 OA 
HETATM   25  H   UNL     1     -12.073   6.327  70.202  1.00  0.00     0.000 HD 
HETATM   26  I   UNL     1     -11.415   8.591  71.555  1.00  0.00    -0.434 I  
HETATM   27  C   UNL     1      -9.414   9.158  69.371  1.00  0.00    -0.161 A  
ENDBRANCH  17  18
ENDBRANCH  13  17
ENDBRANCH   8   9
ENDBRANCH   4   8
TORSDOF 4
ENDMDL
MODEL      134
REMARK 921   NORMALIZED FREE ENERGY PREDICTED BY IDOCK:   -4.16 KCAL/MOL
REMARK 922        TOTAL FREE ENERGY PREDICTED BY IDOCK:   -5.96 KCAL/MOL
REMARK 923 INTER-LIGAND FREE ENERGY PREDICTED BY IDOCK:   -5.37 KCAL/MOL
REMARK 924 INTRA-LIGAND FREE ENERGY PREDICTED BY IDOCK:   -0.58 KCAL/MOL
REMARK 927      BINDING AFFINITY PREDICTED BY RF-SCORE:    0.00 PKD
ROOT
HETATM    1  N   UNL     1     -12.438  14.184  66.497  1.00  0.00    -0.534 NA 
HETATM    2  H1  UNL     1     -12.888  15.051  66.790  1.00  0.00     0.000 HD 
HETATM    3  H2  UNL     1     -13.100  13.408  66.511  1.00  0.00     0.000 HD 
HETATM    4  CA  UNL     1     -11.216  13.858  67.302  1.00  0.00    -0.312 C  
HETATM    5  C   UNL     1     -10.220  15.021  67.158  1.00  0.00    -0.249 C  
HETATM    6  OXT UNL     1      -9.074  15.020  67.569  1.00  0.00    -0.178 OA 
HETATM    7  O   UNL     1     -10.784  16.074  66.508  1.00  0.00    -0.306 OA 
ENDROOT
BRANCH   4   8
HETATM    8  C   UNL     1     -10.538  12.548  66.860  1.00  0.00    -0.255 C  
BRANCH   8   9
HETATM    9  C   UNL     1     -10.163  11.662  68.023  1.00  0.00    -0.202 A  
HETATM   10  C   UNL     1      -8.896  11.077  68.105  1.00  0.00    -0.141 A  
HETATM   11  C   UNL     1      -8.581  10.215  69.164  1.00  0.00    -0.165 A  
HETATM   12  I   UNL     1      -6.675   9.314  69.114  1.00  0.00    -0.051 I  
HETATM   13  C   UNL     1      -9.523   9.908  70.167  1.00  0.00    -0.163 A  
HETATM   14  C   UNL     1     -10.821  10.428  70.027  1.00  0.00    -0.289 A  
HETATM   15  C   UNL     1     -11.113  11.340  68.997  1.00  0.00    -0.301 A  
HETATM   16  I   UNL     1     -12.521   9.773  71.104  1.00  0.00    -0.439 I  
BRANCH  13  17
HETATM   17  O   UNL     1      -9.105   9.005  71.118  1.00  0.00    -0.226 OA 
BRANCH  17  18
HETATM   18  C   UNL     1      -9.466   7.680  71.075  1.00  0.00    -0.159 A  
HETATM   19  C   UNL     1      -9.713   7.119  72.331  1.00  0.00    -0.173 A  
HETATM   20  C   UNL     1      -9.929   5.747  72.455  1.00  0.00    -0.169 A  
HETATM   21  I   UNL     1     -10.235   4.962  74.365  1.00  0.00    -0.281 I  
HETATM   22  C   UNL     1      -9.902   4.930  71.321  1.00  0.00    -0.186 A  
HETATM   23  C   UNL     1      -9.742   5.510  70.056  1.00  0.00    -0.178 A  
HETATM   24  O   UNL     1     -10.005   3.569  71.435  1.00  0.00    -0.171 OA 
HETATM   25  H   UNL     1      -9.986   3.013  70.664  1.00  0.00     0.000 HD 
HETATM   26  I   UNL     1      -9.640   4.344  68.319  1.00  0.00    -0.089 I  
HETATM   27  C   UNL     1      -9.570   6.894  69.927  1.00  0.00    -0.156 A  
ENDBRANCH  17  18
ENDBRANCH  13  17
ENDBRANCH   8   9
ENDBRANCH   4   8
TORSDOF 4
ENDMDL
MODEL      135
REMARK 921   NORMALIZED FREE ENERGY PREDICTED BY IDOCK:   -4.16 KCAL/MOL
REMARK 922        TOTAL FREE ENERGY PREDICTED BY IDOCK:   -5.96 KCAL/MOL
REMARK 923 INTER-LIGAND FREE ENERGY PREDICTED BY IDOCK:   -5.55 KCAL/MOL
REMARK 924 INTRA-LIGAND FREE ENERGY PREDICTED BY IDOCK:   -0.40 KCAL/MOL
REMARK 927      BINDING AFFINITY PREDICTED BY RF-SCORE:    0.00 PKD
ROOT
HETATM    1  N   UNL     1      -9.796  12.395  63.869  1.00  0.00    -0.602 NA 
HETATM    2  H1  UNL     1      -9.861  12.300  62.856  1.00  0.00     0.000 HD 
HETATM    3  H2  UNL     1      -8.915  12.017  64.215  1.00  0.00     0.000 HD 
HETATM    4  CA  UNL     1     -10.960  11.785  64.589  1.00  0.00    -0.310 C  
HETATM    5  C   UNL     1     -12.246  12.469  64.095  1.00  0.00    -0.467 C  
HETATM    6  OXT UNL     1     -13.356  12.309  64.571  1.00  0.00    -0.769 OA 
HETATM    7  O   UNL     1     -11.992  13.286  63.038  1.00  0.00    -0.373 OA 
ENDROOT
BRANCH   4   8
HETATM    8  C   UNL     1     -10.863  11.928  66.119  1.00  0.00    -0.334 C  
BRANCH   8   9
HETATM    9  C   UNL     1     -10.028  10.843  66.758  1.00  0.00    -0.245 A  
HETATM   10  C   UNL     1      -8.765  11.123  67.288  1.00  0.00    -0.139 A  
HETATM   11  C   UNL     1      -7.982  10.095  67.830  1.00  0.00    -0.101 A  
HETATM   12  I   UNL     1      -6.055  10.629  68.499  1.00  0.00    -0.046 I  
HETATM   13  C   UNL     1      -8.435   8.760  67.852  1.00  0.00    -0.126 A  
HETATM   14  C   UNL     1      -9.665   8.475  67.234  1.00  0.00    -0.183 A  
HETATM   15  C   UNL     1     -10.473   9.517  66.748  1.00  0.00    -0.263 A  
HETATM   16  I   UNL     1     -10.354   6.541  66.721  1.00  0.00    -0.161 I  
BRANCH  13  17
HETATM   17  O   UNL     1      -7.546   7.840  68.360  1.00  0.00    -0.104 OA 
BRANCH  17  18
HETATM   18  C   UNL     1      -7.835   7.078  69.466  1.00  0.00    -0.119 A  
HETATM   19  C   UNL     1      -8.075   5.731  69.180  1.00  0.00    -0.101 A  
HETATM   20  C   UNL     1      -8.538   4.875  70.178  1.00  0.00    -0.091 A  
HETATM   21  I   UNL     1      -8.932   2.888  69.673  1.00  0.00    -0.202 I  
HETATM   22  C   UNL     1      -8.760   5.362  71.470  1.00  0.00    -0.135 A  
HETATM   23  C   UNL     1      -8.434   6.691  71.772  1.00  0.00    -0.119 A  
HETATM   24  O   UNL     1      -9.316   4.564  72.433  1.00  0.00    -0.123 OA 
HETATM   25  H   UNL     1      -9.467   4.895  73.311  1.00  0.00     0.000 HD 
HETATM   26  I   UNL     1      -8.788   7.504  73.669  1.00  0.00    -0.336 I  
HETATM   27  C   UNL     1      -7.926   7.540  70.779  1.00  0.00    -0.103 A  
ENDBRANCH  17  18
ENDBRANCH  13  17
ENDBRANCH   8   9
ENDBRANCH   4   8
TORSDOF 4
ENDMDL
MODEL      136
REMARK 921   NORMALIZED FREE ENERGY PREDICTED BY IDOCK:   -4.15 KCAL/MOL
REMARK 922        TOTAL FREE ENERGY PREDICTED BY IDOCK:   -5.95 KCAL/MOL
REMARK 923 INTER-LIGAND FREE ENERGY PREDICTED BY IDOCK:   -5.71 KCAL/MOL
REMARK 924 INTRA-LIGAND FREE ENERGY PREDICTED BY IDOCK:   -0.23 KCAL/MOL
REMARK 927      BINDING AFFINITY PREDICTED BY RF-SCORE:    0.00 PKD
ROOT
HETATM    1  N   UNL     1     -12.234  12.286  65.889  1.00  0.00    -0.600 NA 
HETATM    2  H1  UNL     1     -12.431  12.218  64.890  1.00  0.00     0.000 HD 
HETATM    3  H2  UNL     1     -12.891  11.724  66.428  1.00  0.00     0.000 HD 
HETATM    4  CA  UNL     1     -12.209  13.701  66.384  1.00  0.00    -0.423 C  
HETATM    5  C   UNL     1     -11.131  14.467  65.599  1.00  0.00    -0.327 C  
HETATM    6  OXT UNL     1     -10.755  15.600  65.844  1.00  0.00    -0.322 OA 
HETATM    7  O   UNL     1     -10.641  13.717  64.577  1.00  0.00    -0.423 OA 
ENDROOT
BRANCH   4   8
HETATM    8  C   UNL     1     -11.914  13.805  67.891  1.00  0.00    -0.391 C  
BRANCH   8   9
HETATM    9  C   UNL     1     -11.085  12.652  68.406  1.00  0.00    -0.297 A  
HETATM   10  C   UNL     1     -11.617  11.728  69.310  1.00  0.00    -0.378 A  
HETATM   11  C   UNL     1     -10.819  10.694  69.818  1.00  0.00    -0.261 A  
HETATM   12  I   UNL     1     -11.710   9.432  71.253  1.00  0.00    -0.500 I  
HETATM   13  C   UNL     1      -9.467  10.559  69.444  1.00  0.00    -0.136 A  
HETATM   14  C   UNL     1      -8.916  11.545  68.608  1.00  0.00    -0.112 A  
HETATM   15  C   UNL     1      -9.736  12.543  68.052  1.00  0.00    -0.215 A  
HETATM   16  I   UNL     1      -6.848  11.844  68.269  1.00  0.00    -0.091 I  
BRANCH  13  17
HETATM   17  O   UNL     1      -8.780   9.537  70.059  1.00  0.00    -0.184 OA 
BRANCH  17  18
HETATM   18  C   UNL     1      -8.529   8.342  69.428  1.00  0.00    -0.123 A  
HETATM   19  C   UNL     1      -9.105   7.235  70.060  1.00  0.00    -0.148 A  
HETATM   20  C   UNL     1      -8.801   5.946  69.626  1.00  0.00    -0.131 A  
HETATM   21  I   UNL     1      -9.647   4.334  70.649  1.00  0.00    -0.239 I  
HETATM   22  C   UNL     1      -7.923   5.757  68.555  1.00  0.00    -0.101 A  
HETATM   23  C   UNL     1      -7.420   6.870  67.870  1.00  0.00    -0.099 A  
HETATM   24  O   UNL     1      -7.530   4.498  68.185  1.00  0.00    -0.065 OA 
HETATM   25  H   UNL     1      -6.932   4.369  67.457  1.00  0.00     0.000 HD 
HETATM   26  I   UNL     1      -6.060   6.665  66.290  1.00  0.00    -0.036 I  
HETATM   27  C   UNL     1      -7.760   8.167  68.277  1.00  0.00    -0.114 A  
ENDBRANCH  17  18
ENDBRANCH  13  17
ENDBRANCH   8   9
ENDBRANCH   4   8
TORSDOF 4
ENDMDL
MODEL      137
REMARK 921   NORMALIZED FREE ENERGY PREDICTED BY IDOCK:   -4.14 KCAL/MOL
REMARK 922        TOTAL FREE ENERGY PREDICTED BY IDOCK:   -5.93 KCAL/MOL
REMARK 923 INTER-LIGAND FREE ENERGY PREDICTED BY IDOCK:   -5.40 KCAL/MOL
REMARK 924 INTRA-LIGAND FREE ENERGY PREDICTED BY IDOCK:   -0.53 KCAL/MOL
REMARK 927      BINDING AFFINITY PREDICTED BY RF-SCORE:    0.00 PKD
ROOT
HETATM    1  N   UNL     1     -10.860   6.849  67.836  1.00  0.00    -0.406 NA 
HETATM    2  H1  UNL     1     -11.298   6.174  67.209  1.00  0.00     0.000 HD 
HETATM    3  H2  UNL     1     -11.545   7.247  68.478  1.00  0.00     0.000 HD 
HETATM    4  CA  UNL     1     -10.119   7.928  67.108  1.00  0.00    -0.258 C  
HETATM    5  C   UNL     1      -9.038   7.267  66.236  1.00  0.00    -0.149 C  
HETATM    6  OXT UNL     1      -8.169   7.860  65.622  1.00  0.00    -0.122 OA 
HETATM    7  O   UNL     1      -9.172   5.914  66.229  1.00  0.00    -0.155 OA 
ENDROOT
BRANCH   4   8
HETATM    8  C   UNL     1      -9.458   8.947  68.054  1.00  0.00    -0.158 C  
BRANCH   8   9
HETATM    9  C   UNL     1      -9.841  10.373  67.740  1.00  0.00    -0.193 A  
HETATM   10  C   UNL     1     -10.428  11.193  68.709  1.00  0.00    -0.227 A  
HETATM   11  C   UNL     1     -10.825  12.498  68.386  1.00  0.00    -0.243 A  
HETATM   12  I   UNL     1     -11.793  13.593  69.905  1.00  0.00    -0.258 I  
HETATM   13  C   UNL     1     -10.654  13.017  67.087  1.00  0.00    -0.246 A  
HETATM   14  C   UNL     1     -10.149  12.156  66.097  1.00  0.00    -0.228 A  
HETATM   15  C   UNL     1      -9.695  10.870  66.440  1.00  0.00    -0.240 A  
HETATM   16  I   UNL     1     -10.221  12.515  64.013  1.00  0.00    -0.071 I  
BRANCH  13  17
HETATM   17  O   UNL     1     -11.138  14.290  66.888  1.00  0.00    -0.298 OA 
BRANCH  17  18
HETATM   18  C   UNL     1     -10.318  15.393  66.893  1.00  0.00    -0.277 A  
HETATM   19  C   UNL     1      -9.028  15.137  67.368  1.00  0.00    -0.193 A  
HETATM   20  C   UNL     1      -8.140  16.191  67.582  1.00  0.00    -0.147 A  
HETATM   21  I   UNL     1      -6.248  15.748  68.348  1.00  0.00    -0.135 I  
HETATM   22  C   UNL     1      -8.537  17.505  67.318  1.00  0.00    -0.225 A  
HETATM   23  C   UNL     1      -9.798  17.745  66.759  1.00  0.00    -0.320 A  
HETATM   24  O   UNL     1      -7.717  18.558  67.624  1.00  0.00    -0.228 OA 
HETATM   25  H   UNL     1      -7.987  19.452  67.444  1.00  0.00     0.000 HD 
HETATM   26  I   UNL     1     -10.480  19.690  66.386  1.00  0.00    -0.491 I  
HETATM   27  C   UNL     1     -10.675  16.683  66.502  1.00  0.00    -0.127 A  
ENDBRANCH  17  18
ENDBRANCH  13  17
ENDBRANCH   8   9
ENDBRANCH   4   8
TORSDOF 4
ENDMDL
MODEL      138
REMARK 921   NORMALIZED FREE ENERGY PREDICTED BY IDOCK:   -4.13 KCAL/MOL
REMARK 922        TOTAL FREE ENERGY PREDICTED BY IDOCK:   -5.92 KCAL/MOL
REMARK 923 INTER-LIGAND FREE ENERGY PREDICTED BY IDOCK:   -5.90 KCAL/MOL
REMARK 924 INTRA-LIGAND FREE ENERGY PREDICTED BY IDOCK:   -0.02 KCAL/MOL
REMARK 927      BINDING AFFINITY PREDICTED BY RF-SCORE:    0.00 PKD
ROOT
HETATM    1  N   UNL     1      -8.491  19.165  67.779  1.00  0.00    -0.294 NA 
HETATM    2  H1  UNL     1      -7.790  19.627  68.359  1.00  0.00     0.000 HD 
HETATM    3  H2  UNL     1      -9.140  18.628  68.352  1.00  0.00     0.000 HD 
HETATM    4  CA  UNL     1      -7.889  18.309  66.706  1.00  0.00    -0.235 C  
HETATM    5  C   UNL     1      -7.002  19.199  65.820  1.00  0.00    -0.275 C  
HETATM    6  OXT UNL     1      -6.475  18.851  64.778  1.00  0.00    -0.504 OA 
HETATM    7  O   UNL     1      -6.868  20.443  66.351  1.00  0.00    -0.233 OA 
ENDROOT
BRANCH   4   8
HETATM    8  C   UNL     1      -8.947  17.611  65.831  1.00  0.00     0.089 C  
BRANCH   8   9
HETATM    9  C   UNL     1      -9.286  16.222  66.319  1.00  0.00    -0.360 A  
HETATM   10  C   UNL     1      -8.354  15.458  67.026  1.00  0.00    -0.268 A  
HETATM   11  C   UNL     1      -8.667  14.152  67.426  1.00  0.00    -0.210 A  
HETATM   12  I   UNL     1      -7.136  13.068  68.390  1.00  0.00    -0.130 I  
HETATM   13  C   UNL     1      -9.915  13.571  67.125  1.00  0.00    -0.246 A  
HETATM   14  C   UNL     1     -10.810  14.313  66.336  1.00  0.00    -0.307 A  
HETATM   15  C   UNL     1     -10.517  15.644  65.990  1.00  0.00    -0.343 A  
HETATM   16  I   UNL     1     -12.521  13.530  65.367  1.00  0.00    -0.428 I  
BRANCH  13  17
HETATM   17  O   UNL     1     -10.073  12.263  67.525  1.00  0.00    -0.198 OA 
BRANCH  17  18
HETATM   18  C   UNL     1      -9.568  11.211  66.799  1.00  0.00    -0.191 A  
HETATM   19  C   UNL     1      -9.492  11.456  65.425  1.00  0.00    -0.240 A  
HETATM   20  C   UNL     1      -9.154  10.425  64.549  1.00  0.00    -0.229 A  
HETATM   21  I   UNL     1      -9.114  10.841  62.503  1.00  0.00    -0.281 I  
HETATM   22  C   UNL     1      -8.886   9.146  65.044  1.00  0.00    -0.189 A  
HETATM   23  C   UNL     1      -8.876   8.929  66.428  1.00  0.00    -0.152 A  
HETATM   24  O   UNL     1      -8.657   8.099  64.191  1.00  0.00    -0.390 OA 
HETATM   25  H   UNL     1      -8.476   7.228  64.528  1.00  0.00     0.000 HD 
HETATM   26  I   UNL     1      -8.535   7.029  67.239  1.00  0.00    -0.123 I  
HETATM   27  C   UNL     1      -9.173   9.975  67.311  1.00  0.00    -0.159 A  
ENDBRANCH  17  18
ENDBRANCH  13  17
ENDBRANCH   8   9
ENDBRANCH   4   8
TORSDOF 4
ENDMDL
MODEL      139
REMARK 921   NORMALIZED FREE ENERGY PREDICTED BY IDOCK:   -4.13 KCAL/MOL
REMARK 922        TOTAL FREE ENERGY PREDICTED BY IDOCK:   -5.91 KCAL/MOL
REMARK 923 INTER-LIGAND FREE ENERGY PREDICTED BY IDOCK:   -6.30 KCAL/MOL
REMARK 924 INTRA-LIGAND FREE ENERGY PREDICTED BY IDOCK:    0.39 KCAL/MOL
REMARK 927      BINDING AFFINITY PREDICTED BY RF-SCORE:    0.00 PKD
ROOT
HETATM    1  N   UNL     1     -10.256   5.439  70.549  1.00  0.00    -0.236 NA 
HETATM    2  H1  UNL     1      -9.900   5.000  71.398  1.00  0.00     0.000 HD 
HETATM    3  H2  UNL     1      -9.603   5.321  69.776  1.00  0.00     0.000 HD 
HETATM    4  CA  UNL     1     -10.603   6.885  70.741  1.00  0.00    -0.220 C  
HETATM    5  C   UNL     1     -11.664   6.984  71.850  1.00  0.00    -0.296 C  
HETATM    6  OXT UNL     1     -12.264   7.997  72.161  1.00  0.00    -0.314 OA 
HETATM    7  O   UNL     1     -11.852   5.782  72.458  1.00  0.00    -0.297 OA 
ENDROOT
BRANCH   4   8
HETATM    8  C   UNL     1     -11.141   7.548  69.460  1.00  0.00    -0.063 C  
BRANCH   8   9
HETATM    9  C   UNL     1     -10.513   8.895  69.190  1.00  0.00    -0.236 A  
HETATM   10  C   UNL     1     -11.150  10.078  69.574  1.00  0.00    -0.279 A  
HETATM   11  C   UNL     1     -10.579  11.321  69.269  1.00  0.00    -0.148 A  
HETATM   12  I   UNL     1     -11.692  13.029  69.808  1.00  0.00    -0.116 I  
HETATM   13  C   UNL     1      -9.360  11.417  68.568  1.00  0.00    -0.180 A  
HETATM   14  C   UNL     1      -8.773  10.226  68.107  1.00  0.00    -0.123 A  
HETATM   15  C   UNL     1      -9.318   8.981  68.468  1.00  0.00    -0.141 A  
HETATM   16  I   UNL     1      -7.228  10.103  66.666  1.00  0.00    -0.121 I  
BRANCH  13  17
HETATM   17  O   UNL     1      -8.937  12.696  68.284  1.00  0.00    -0.194 OA 
BRANCH  17  18
HETATM   18  C   UNL     1      -9.613  13.511  67.406  1.00  0.00    -0.227 A  
HETATM   19  C   UNL     1     -10.257  12.821  66.375  1.00  0.00    -0.263 A  
HETATM   20  C   UNL     1     -10.844  13.524  65.323  1.00  0.00    -0.310 A  
HETATM   21  I   UNL     1     -11.740  12.435  63.784  1.00  0.00    -0.654 I  
HETATM   22  C   UNL     1     -10.792  14.921  65.301  1.00  0.00    -0.386 A  
HETATM   23  C   UNL     1     -10.224  15.608  66.381  1.00  0.00    -0.290 A  
HETATM   24  O   UNL     1     -11.267  15.622  64.225  1.00  0.00    -0.736 OA 
HETATM   25  H   UNL     1     -11.232  16.572  64.210  1.00  0.00     0.000 HD 
HETATM   26  I   UNL     1     -10.064  17.696  66.393  1.00  0.00    -0.255 I  
HETATM   27  C   UNL     1      -9.674  14.903  67.460  1.00  0.00    -0.212 A  
ENDBRANCH  17  18
ENDBRANCH  13  17
ENDBRANCH   8   9
ENDBRANCH   4   8
TORSDOF 4
ENDMDL
MODEL      140
REMARK 921   NORMALIZED FREE ENERGY PREDICTED BY IDOCK:   -4.12 KCAL/MOL
REMARK 922        TOTAL FREE ENERGY PREDICTED BY IDOCK:   -5.90 KCAL/MOL
REMARK 923 INTER-LIGAND FREE ENERGY PREDICTED BY IDOCK:   -6.02 KCAL/MOL
REMARK 924 INTRA-LIGAND FREE ENERGY PREDICTED BY IDOCK:    0.12 KCAL/MOL
REMARK 927      BINDING AFFINITY PREDICTED BY RF-SCORE:    0.00 PKD
ROOT
HETATM    1  N   UNL     1      -8.107   4.874  72.319  1.00  0.00    -0.109 NA 
HETATM    2  H1  UNL     1      -7.897   4.020  71.802  1.00  0.00     0.000 HD 
HETATM    3  H2  UNL     1      -7.250   5.328  72.636  1.00  0.00     0.000 HD 
HETATM    4  CA  UNL     1      -9.047   4.648  73.464  1.00  0.00    -0.113 C  
HETATM    5  C   UNL     1     -10.353   4.057  72.906  1.00  0.00    -0.167 C  
HETATM    6  OXT UNL     1     -11.375   3.882  73.544  1.00  0.00    -0.251 OA 
HETATM    7  O   UNL     1     -10.226   3.742  71.589  1.00  0.00    -0.125 OA 
ENDROOT
BRANCH   4   8
HETATM    8  C   UNL     1      -9.364   5.936  74.245  1.00  0.00    -0.144 C  
BRANCH   8   9
HETATM    9  C   UNL     1      -9.743   7.089  73.345  1.00  0.00    -0.253 A  
HETATM   10  C   UNL     1     -11.082   7.432  73.139  1.00  0.00    -0.357 A  
HETATM   11  C   UNL     1     -11.419   8.471  72.260  1.00  0.00    -0.375 A  
HETATM   12  I   UNL     1     -13.476   8.818  71.954  1.00  0.00    -0.519 I  
HETATM   13  C   UNL     1     -10.430   9.190  71.560  1.00  0.00    -0.352 A  
HETATM   14  C   UNL     1      -9.094   8.778  71.704  1.00  0.00    -0.244 A  
HETATM   15  C   UNL     1      -8.756   7.777  72.632  1.00  0.00    -0.198 A  
HETATM   16  I   UNL     1      -7.494   9.361  70.447  1.00  0.00    -0.137 I  
BRANCH  13  17
HETATM   17  O   UNL     1     -10.897  10.146  70.687  1.00  0.00    -0.308 OA 
BRANCH  17  18
HETATM   18  C   UNL     1     -10.819   9.991  69.323  1.00  0.00    -0.230 A  
HETATM   19  C   UNL     1     -10.773   8.658  68.907  1.00  0.00    -0.109 A  
HETATM   20  C   UNL     1     -10.530   8.351  67.568  1.00  0.00    -0.257 A  
HETATM   21  I   UNL     1     -10.415   6.340  67.020  1.00  0.00    -0.391 I  
HETATM   22  C   UNL     1     -10.335   9.378  66.640  1.00  0.00    -0.214 A  
HETATM   23  C   UNL     1     -10.472  10.711  67.047  1.00  0.00    -0.243 A  
HETATM   24  O   UNL     1      -9.990   9.095  65.345  1.00  0.00    -0.428 OA 
HETATM   25  H   UNL     1      -9.858   9.793  64.714  1.00  0.00     0.000 HD 
HETATM   26  I   UNL     1     -10.144  12.302  65.724  1.00  0.00    -0.258 I  
HETATM   27  C   UNL     1     -10.760  11.019  68.383  1.00  0.00    -0.240 A  
ENDBRANCH  17  18
ENDBRANCH  13  17
ENDBRANCH   8   9
ENDBRANCH   4   8
TORSDOF 4
ENDMDL
MODEL      141
REMARK 921   NORMALIZED FREE ENERGY PREDICTED BY IDOCK:   -4.12 KCAL/MOL
REMARK 922        TOTAL FREE ENERGY PREDICTED BY IDOCK:   -5.90 KCAL/MOL
REMARK 923 INTER-LIGAND FREE ENERGY PREDICTED BY IDOCK:   -6.58 KCAL/MOL
REMARK 924 INTRA-LIGAND FREE ENERGY PREDICTED BY IDOCK:    0.68 KCAL/MOL
REMARK 927      BINDING AFFINITY PREDICTED BY RF-SCORE:    0.00 PKD
ROOT
HETATM    1  N   UNL     1     -13.227  11.867  64.329  1.00  0.00    -0.521 NA 
HETATM    2  H1  UNL     1     -13.220  10.850  64.261  1.00  0.00     0.000 HD 
HETATM    3  H2  UNL     1     -14.172  12.233  64.218  1.00  0.00     0.000 HD 
HETATM    4  CA  UNL     1     -12.284  12.524  63.367  1.00  0.00    -0.517 C  
HETATM    5  C   UNL     1     -10.864  12.004  63.653  1.00  0.00    -0.446 C  
HETATM    6  OXT UNL     1      -9.843  12.434  63.147  1.00  0.00    -0.314 OA 
HETATM    7  O   UNL     1     -10.886  10.985  64.552  1.00  0.00    -0.313 OA 
ENDROOT
BRANCH   4   8
HETATM    8  C   UNL     1     -12.295  14.060  63.468  1.00  0.00     0.034 C  
BRANCH   8   9
HETATM    9  C   UNL     1     -11.708  14.566  64.765  1.00  0.00    -0.425 A  
HETATM   10  C   UNL     1     -11.805  13.816  65.941  1.00  0.00    -0.405 A  
HETATM   11  C   UNL     1     -11.300  14.323  67.147  1.00  0.00    -0.337 A  
HETATM   12  I   UNL     1     -11.606  13.143  68.867  1.00  0.00    -0.377 I  
HETATM   13  C   UNL     1     -10.692  15.592  67.212  1.00  0.00    -0.305 A  
HETATM   14  C   UNL     1     -10.681  16.375  66.045  1.00  0.00    -0.191 A  
HETATM   15  C   UNL     1     -11.132  15.839  64.826  1.00  0.00    -0.413 A  
HETATM   16  I   UNL     1     -10.261  18.448  65.969  1.00  0.00     0.030 I  
BRANCH  13  17
HETATM   17  O   UNL     1     -10.291  15.994  68.466  1.00  0.00    -0.227 OA 
BRANCH  17  18
HETATM   18  C   UNL     1      -8.980  16.291  68.754  1.00  0.00    -0.243 A  
HETATM   19  C   UNL     1      -8.214  15.180  69.119  1.00  0.00    -0.214 A  
HETATM   20  C   UNL     1      -6.914  15.351  69.593  1.00  0.00    -0.184 A  
HETATM   21  I   UNL     1      -5.843  13.656  70.176  1.00  0.00    -0.114 I  
HETATM   22  C   UNL     1      -6.373  16.636  69.701  1.00  0.00    -0.217 A  
HETATM   23  C   UNL     1      -7.112  17.736  69.250  1.00  0.00    -0.113 A  
HETATM   24  O   UNL     1      -5.140  16.831  70.264  1.00  0.00    -0.168 OA 
HETATM   25  H   UNL     1      -4.772  17.704  70.338  1.00  0.00     0.000 HD 
HETATM   26  I   UNL     1      -6.387  19.693  69.429  1.00  0.00    -0.379 I  
HETATM   27  C   UNL     1      -8.402  17.560  68.732  1.00  0.00    -0.219 A  
ENDBRANCH  17  18
ENDBRANCH  13  17
ENDBRANCH   8   9
ENDBRANCH   4   8
TORSDOF 4
ENDMDL
MODEL      142
REMARK 921   NORMALIZED FREE ENERGY PREDICTED BY IDOCK:   -4.11 KCAL/MOL
REMARK 922        TOTAL FREE ENERGY PREDICTED BY IDOCK:   -5.89 KCAL/MOL
REMARK 923 INTER-LIGAND FREE ENERGY PREDICTED BY IDOCK:   -5.26 KCAL/MOL
REMARK 924 INTRA-LIGAND FREE ENERGY PREDICTED BY IDOCK:   -0.63 KCAL/MOL
REMARK 927      BINDING AFFINITY PREDICTED BY RF-SCORE:    0.00 PKD
ROOT
HETATM    1  N   UNL     1      -9.592   7.358  74.133  1.00  0.00    -0.415 NA 
HETATM    2  H1  UNL     1     -10.456   6.975  74.518  1.00  0.00     0.000 HD 
HETATM    3  H2  UNL     1      -9.608   8.377  74.144  1.00  0.00     0.000 HD 
HETATM    4  CA  UNL     1      -9.288   6.843  72.759  1.00  0.00    -0.135 C  
HETATM    5  C   UNL     1      -9.178   5.310  72.831  1.00  0.00    -0.131 C  
HETATM    6  OXT UNL     1      -8.805   4.588  71.924  1.00  0.00    -0.115 OA 
HETATM    7  O   UNL     1      -9.560   4.848  74.051  1.00  0.00    -0.126 OA 
ENDROOT
BRANCH   4   8
HETATM    8  C   UNL     1      -7.984   7.420  72.177  1.00  0.00    -0.101 C  
BRANCH   8   9
HETATM    9  C   UNL     1      -8.223   8.335  70.999  1.00  0.00    -0.123 A  
HETATM   10  C   UNL     1      -9.034   7.940  69.932  1.00  0.00    -0.146 A  
HETATM   11  C   UNL     1      -9.204   8.780  68.823  1.00  0.00    -0.141 A  
HETATM   12  I   UNL     1     -10.365   8.022  67.233  1.00  0.00    -0.304 I  
HETATM   13  C   UNL     1      -8.565  10.033  68.746  1.00  0.00    -0.131 A  
HETATM   14  C   UNL     1      -7.680  10.382  69.781  1.00  0.00    -0.116 A  
HETATM   15  C   UNL     1      -7.561   9.565  70.918  1.00  0.00    -0.027 A  
HETATM   16  I   UNL     1      -6.265  11.954  69.700  1.00  0.00    -0.060 I  
BRANCH  13  17
HETATM   17  O   UNL     1      -8.770  10.734  67.579  1.00  0.00    -0.125 OA 
BRANCH  17  18
HETATM   18  C   UNL     1      -9.788  11.647  67.444  1.00  0.00    -0.183 A  
HETATM   19  C   UNL     1     -10.308  11.729  66.149  1.00  0.00    -0.266 A  
HETATM   20  C   UNL     1     -11.230  12.724  65.827  1.00  0.00    -0.307 A  
HETATM   21  I   UNL     1     -11.924  12.829  63.860  1.00  0.00    -0.641 I  
HETATM   22  C   UNL     1     -11.641  13.638  66.801  1.00  0.00    -0.364 A  
HETATM   23  C   UNL     1     -11.186  13.495  68.118  1.00  0.00    -0.272 A  
HETATM   24  O   UNL     1     -12.463  14.685  66.477  1.00  0.00    -0.379 OA 
HETATM   25  H   UNL     1     -12.742  15.307  67.139  1.00  0.00     0.000 HD 
HETATM   26  I   UNL     1     -11.717  14.858  69.617  1.00  0.00    -0.418 I  
HETATM   27  C   UNL     1     -10.292  12.469  68.452  1.00  0.00    -0.237 A  
ENDBRANCH  17  18
ENDBRANCH  13  17
ENDBRANCH   8   9
ENDBRANCH   4   8
TORSDOF 4
ENDMDL
MODEL      143
REMARK 921   NORMALIZED FREE ENERGY PREDICTED BY IDOCK:   -4.10 KCAL/MOL
REMARK 922        TOTAL FREE ENERGY PREDICTED BY IDOCK:   -5.88 KCAL/MOL
REMARK 923 INTER-LIGAND FREE ENERGY PREDICTED BY IDOCK:   -5.57 KCAL/MOL
REMARK 924 INTRA-LIGAND FREE ENERGY PREDICTED BY IDOCK:   -0.31 KCAL/MOL
REMARK 927      BINDING AFFINITY PREDICTED BY RF-SCORE:    0.00 PKD
ROOT
HETATM    1  N   UNL     1      -8.800   5.205  68.602  1.00  0.00    -0.096 NA 
HETATM    2  H1  UNL     1      -8.203   4.475  68.989  1.00  0.00     0.000 HD 
HETATM    3  H2  UNL     1      -9.299   5.698  69.342  1.00  0.00     0.000 HD 
HETATM    4  CA  UNL     1      -9.752   4.693  67.564  1.00  0.00    -0.172 C  
HETATM    5  C   UNL     1      -8.931   4.053  66.431  1.00  0.00    -0.128 C  
HETATM    6  OXT UNL     1      -9.383   3.663  65.369  1.00  0.00    -0.147 OA 
HETATM    7  O   UNL     1      -7.616   3.968  66.765  1.00  0.00    -0.085 OA 
ENDROOT
BRANCH   4   8
HETATM    8  C   UNL     1     -10.654   5.796  66.979  1.00  0.00    -0.373 C  
BRANCH   8   9
HETATM    9  C   UNL     1     -10.076   7.180  67.156  1.00  0.00    -0.293 A  
HETATM   10  C   UNL     1     -10.606   8.068  68.096  1.00  0.00    -0.174 A  
HETATM   11  C   UNL     1     -10.092   9.367  68.212  1.00  0.00    -0.183 A  
HETATM   12  I   UNL     1     -11.049  10.642  69.593  1.00  0.00    -0.368 I  
HETATM   13  C   UNL     1      -9.040   9.817  67.388  1.00  0.00    -0.134 A  
HETATM   14  C   UNL     1      -8.577   8.948  66.384  1.00  0.00    -0.126 A  
HETATM   15  C   UNL     1      -9.052   7.627  66.314  1.00  0.00    -0.204 A  
HETATM   16  I   UNL     1      -7.360   9.513  64.747  1.00  0.00    -0.130 I  
BRANCH  13  17
HETATM   17  O   UNL     1      -8.668  11.130  67.564  1.00  0.00    -0.128 OA 
BRANCH  17  18
HETATM   18  C   UNL     1      -9.129  12.136  66.749  1.00  0.00    -0.205 A  
HETATM   19  C   UNL     1      -8.603  13.396  67.051  1.00  0.00    -0.168 A  
HETATM   20  C   UNL     1      -9.101  14.532  66.416  1.00  0.00    -0.185 A  
HETATM   21  I   UNL     1      -8.313  16.390  66.953  1.00  0.00    -0.354 I  
HETATM   22  C   UNL     1     -10.125  14.414  65.472  1.00  0.00    -0.356 A  
HETATM   23  C   UNL     1     -10.585  13.142  65.108  1.00  0.00    -0.319 A  
HETATM   24  O   UNL     1     -10.699  15.527  64.918  1.00  0.00    -0.442 OA 
HETATM   25  H   UNL     1     -11.395  15.446  64.276  1.00  0.00     0.000 HD 
HETATM   26  I   UNL     1     -12.151  12.890  63.741  1.00  0.00    -0.533 I  
HETATM   27  C   UNL     1     -10.054  11.995  65.714  1.00  0.00    -0.267 A  
ENDBRANCH  17  18
ENDBRANCH  13  17
ENDBRANCH   8   9
ENDBRANCH   4   8
TORSDOF 4
ENDMDL
MODEL      144
REMARK 921   NORMALIZED FREE ENERGY PREDICTED BY IDOCK:   -4.09 KCAL/MOL
REMARK 922        TOTAL FREE ENERGY PREDICTED BY IDOCK:   -5.86 KCAL/MOL
REMARK 923 INTER-LIGAND FREE ENERGY PREDICTED BY IDOCK:   -5.45 KCAL/MOL
REMARK 924 INTRA-LIGAND FREE ENERGY PREDICTED BY IDOCK:   -0.42 KCAL/MOL
REMARK 927      BINDING AFFINITY PREDICTED BY RF-SCORE:    0.00 PKD
ROOT
HETATM    1  N   UNL     1     -11.450   4.264  64.658  1.00  0.00    -0.935 NA 
HETATM    2  H1  UNL     1     -11.421   4.159  63.644  1.00  0.00     0.000 HD 
HETATM    3  H2  UNL     1     -12.028   5.060  64.925  1.00  0.00     0.000 HD 
HETATM    4  CA  UNL     1     -10.087   4.362  65.275  1.00  0.00    -0.201 C  
HETATM    5  C   UNL     1      -9.304   3.087  64.917  1.00  0.00    -0.147 C  
HETATM    6  OXT UNL     1      -8.216   2.779  65.370  1.00  0.00    -0.086 OA 
HETATM    7  O   UNL     1      -9.983   2.330  64.014  1.00  0.00    -0.143 OA 
ENDROOT
BRANCH   4   8
HETATM    8  C   UNL     1     -10.130   4.521  66.805  1.00  0.00    -0.220 C  
BRANCH   8   9
HETATM    9  C   UNL     1      -9.797   5.923  67.257  1.00  0.00    -0.155 A  
HETATM   10  C   UNL     1      -9.690   6.971  66.338  1.00  0.00    -0.133 A  
HETATM   11  C   UNL     1      -9.330   8.255  66.768  1.00  0.00    -0.182 A  
HETATM   12  I   UNL     1      -9.098   9.722  65.270  1.00  0.00    -0.318 I  
HETATM   13  C   UNL     1      -9.059   8.527  68.124  1.00  0.00    -0.138 A  
HETATM   14  C   UNL     1      -9.080   7.449  69.026  1.00  0.00    -0.133 A  
HETATM   15  C   UNL     1      -9.502   6.177  68.601  1.00  0.00    -0.128 A  
HETATM   16  I   UNL     1      -8.281   7.480  70.985  1.00  0.00    -0.113 I  
BRANCH  13  17
HETATM   17  O   UNL     1      -8.661   9.815  68.404  1.00  0.00    -0.117 OA 
BRANCH  17  18
HETATM   18  C   UNL     1      -9.548  10.782  68.811  1.00  0.00    -0.189 A  
HETATM   19  C   UNL     1     -10.457  10.346  69.780  1.00  0.00    -0.284 A  
HETATM   20  C   UNL     1     -11.515  11.167  70.167  1.00  0.00    -0.272 A  
HETATM   21  I   UNL     1     -12.871  10.434  71.576  1.00  0.00    -0.520 I  
HETATM   22  C   UNL     1     -11.667  12.431  69.590  1.00  0.00    -0.307 A  
HETATM   23  C   UNL     1     -10.703  12.897  68.687  1.00  0.00    -0.247 A  
HETATM   24  O   UNL     1     -12.758  13.206  69.879  1.00  0.00     0.027 OA 
HETATM   25  H   UNL     1     -12.861  14.066  69.486  1.00  0.00     0.000 HD 
HETATM   26  I   UNL     1     -10.892  14.758  67.743  1.00  0.00    -0.317 I  
HETATM   27  C   UNL     1      -9.615  12.090  68.330  1.00  0.00    -0.190 A  
ENDBRANCH  17  18
ENDBRANCH  13  17
ENDBRANCH   8   9
ENDBRANCH   4   8
TORSDOF 4
ENDMDL
MODEL      145
REMARK 921   NORMALIZED FREE ENERGY PREDICTED BY IDOCK:   -4.08 KCAL/MOL
REMARK 922        TOTAL FREE ENERGY PREDICTED BY IDOCK:   -5.86 KCAL/MOL
REMARK 923 INTER-LIGAND FREE ENERGY PREDICTED BY IDOCK:   -6.38 KCAL/MOL
REMARK 924 INTRA-LIGAND FREE ENERGY PREDICTED BY IDOCK:    0.52 KCAL/MOL
REMARK 927      BINDING AFFINITY PREDICTED BY RF-SCORE:    0.00 PKD
ROOT
HETATM    1  N   UNL     1     -13.089  15.114  74.249  1.00  0.00    -0.319 NA 
HETATM    2  H1  UNL     1     -12.393  15.498  74.887  1.00  0.00     0.000 HD 
HETATM    3  H2  UNL     1     -13.606  14.354  74.689  1.00  0.00     0.000 HD 
HETATM    4  CA  UNL     1     -12.504  14.676  72.941  1.00  0.00    -0.296 C  
HETATM    5  C   UNL     1     -11.826  15.891  72.284  1.00  0.00    -0.516 C  
HETATM    6  OXT UNL     1     -11.373  15.918  71.154  1.00  0.00    -0.371 OA 
HETATM    7  O   UNL     1     -11.789  16.951  73.134  1.00  0.00    -0.367 OA 
ENDROOT
BRANCH   4   8
HETATM    8  C   UNL     1     -13.554  14.095  71.977  1.00  0.00    -0.540 C  
BRANCH   8   9
HETATM    9  C   UNL     1     -13.049  12.893  71.214  1.00  0.00    -0.253 A  
HETATM   10  C   UNL     1     -13.301  11.595  71.667  1.00  0.00    -0.254 A  
HETATM   11  C   UNL     1     -12.781  10.492  70.976  1.00  0.00    -0.408 A  
HETATM   12  I   UNL     1     -13.142   8.593  71.821  1.00  0.00    -0.437 I  
HETATM   13  C   UNL     1     -11.991  10.654  69.820  1.00  0.00    -0.291 A  
HETATM   14  C   UNL     1     -11.668  11.964  69.426  1.00  0.00    -0.339 A  
HETATM   15  C   UNL     1     -12.242  13.065  70.085  1.00  0.00    -0.342 A  
HETATM   16  I   UNL     1     -10.157  12.485  68.039  1.00  0.00    -0.233 I  
BRANCH  13  17
HETATM   17  O   UNL     1     -11.496   9.493  69.271  1.00  0.00     0.008 OA 
BRANCH  17  18
HETATM   18  C   UNL     1     -10.400   8.848  69.792  1.00  0.00    -0.207 A  
HETATM   19  C   UNL     1      -9.259   9.651  69.880  1.00  0.00    -0.255 A  
HETATM   20  C   UNL     1      -8.034   9.088  70.236  1.00  0.00    -0.121 A  
HETATM   21  I   UNL     1      -6.355  10.330  70.293  1.00  0.00    -0.091 I  
HETATM   22  C   UNL     1      -7.945   7.720  70.509  1.00  0.00    -0.098 A  
HETATM   23  C   UNL     1      -9.108   6.939  70.506  1.00  0.00    -0.156 A  
HETATM   24  O   UNL     1      -6.733   7.132  70.754  1.00  0.00    -0.051 OA 
HETATM   25  H   UNL     1      -6.672   6.202  70.940  1.00  0.00     0.000 HD 
HETATM   26  I   UNL     1      -9.044   4.875  70.854  1.00  0.00    -0.225 I  
HETATM   27  C   UNL     1     -10.347   7.513  70.192  1.00  0.00    -0.217 A  
ENDBRANCH  17  18
ENDBRANCH  13  17
ENDBRANCH   8   9
ENDBRANCH   4   8
TORSDOF 4
ENDMDL
MODEL      146
REMARK 921   NORMALIZED FREE ENERGY PREDICTED BY IDOCK:   -4.08 KCAL/MOL
REMARK 922        TOTAL FREE ENERGY PREDICTED BY IDOCK:   -5.86 KCAL/MOL
REMARK 923 INTER-LIGAND FREE ENERGY PREDICTED BY IDOCK:   -5.81 KCAL/MOL
REMARK 924 INTRA-LIGAND FREE ENERGY PREDICTED BY IDOCK:   -0.05 KCAL/MOL
REMARK 927      BINDING AFFINITY PREDICTED BY RF-SCORE:    0.00 PKD
ROOT
HETATM    1  N   UNL     1     -14.314   8.987  72.916  1.00  0.00    -1.108 NA 
HETATM    2  H1  UNL     1     -15.265   8.628  72.838  1.00  0.00     0.000 HD 
HETATM    3  H2  UNL     1     -14.314  10.002  73.008  1.00  0.00     0.000 HD 
HETATM    4  CA  UNL     1     -13.430   8.552  71.787  1.00  0.00    -0.371 C  
HETATM    5  C   UNL     1     -13.394   7.014  71.767  1.00  0.00    -0.244 C  
HETATM    6  OXT UNL     1     -12.665   6.337  71.066  1.00  0.00     0.205 OA 
HETATM    7  O   UNL     1     -14.295   6.491  72.641  1.00  0.00     0.052 OA 
ENDROOT
BRANCH   4   8
HETATM    8  C   UNL     1     -11.994   9.094  71.905  1.00  0.00    -0.443 C  
BRANCH   8   9
HETATM    9  C   UNL     1     -11.652  10.087  70.820  1.00  0.00    -0.444 A  
HETATM   10  C   UNL     1     -10.849   9.722  69.735  1.00  0.00    -0.285 A  
HETATM   11  C   UNL     1     -10.498  10.669  68.763  1.00  0.00    -0.194 A  
HETATM   12  I   UNL     1      -9.196  10.019  67.237  1.00  0.00    -0.175 I  
HETATM   13  C   UNL     1     -10.933  12.007  68.851  1.00  0.00    -0.232 A  
HETATM   14  C   UNL     1     -11.662  12.386  69.992  1.00  0.00    -0.230 A  
HETATM   15  C   UNL     1     -12.063  11.419  70.931  1.00  0.00    -0.383 A  
HETATM   16  I   UNL     1     -12.034  14.379  70.597  1.00  0.00    -0.332 I  
BRANCH  13  17
HETATM   17  O   UNL     1     -10.471  12.848  67.864  1.00  0.00    -0.215 OA 
BRANCH  17  18
HETATM   18  C   UNL     1      -9.265  13.498  67.963  1.00  0.00    -0.209 A  
HETATM   19  C   UNL     1      -9.255  14.766  67.374  1.00  0.00    -0.200 A  
HETATM   20  C   UNL     1      -8.059  15.473  67.256  1.00  0.00    -0.198 A  
HETATM   21  I   UNL     1      -8.101  17.337  66.314  1.00  0.00    -0.110 I  
HETATM   22  C   UNL     1      -6.867  14.916  67.729  1.00  0.00    -0.174 A  
HETATM   23  C   UNL     1      -6.899  13.686  68.398  1.00  0.00    -0.102 A  
HETATM   24  O   UNL     1      -5.670  15.548  67.525  1.00  0.00    -0.264 OA 
HETATM   25  H   UNL     1      -4.859  15.169  67.847  1.00  0.00     0.000 HD 
HETATM   26  I   UNL     1      -5.147  12.767  69.088  1.00  0.00    -0.071 I  
HETATM   27  C   UNL     1      -8.107  12.995  68.557  1.00  0.00    -0.082 A  
ENDBRANCH  17  18
ENDBRANCH  13  17
ENDBRANCH   8   9
ENDBRANCH   4   8
TORSDOF 4
ENDMDL
MODEL      147
REMARK 921   NORMALIZED FREE ENERGY PREDICTED BY IDOCK:   -4.07 KCAL/MOL
REMARK 922        TOTAL FREE ENERGY PREDICTED BY IDOCK:   -5.84 KCAL/MOL
REMARK 923 INTER-LIGAND FREE ENERGY PREDICTED BY IDOCK:   -5.86 KCAL/MOL
REMARK 924 INTRA-LIGAND FREE ENERGY PREDICTED BY IDOCK:    0.01 KCAL/MOL
REMARK 927      BINDING AFFINITY PREDICTED BY RF-SCORE:    0.00 PKD
ROOT
HETATM    1  N   UNL     1      -9.731   5.373  68.846  1.00  0.00    -0.140 NA 
HETATM    2  H1  UNL     1      -9.231   4.604  69.292  1.00  0.00     0.000 HD 
HETATM    3  H2  UNL     1     -10.545   5.645  69.396  1.00  0.00     0.000 HD 
HETATM    4  CA  UNL     1     -10.118   5.074  67.430  1.00  0.00    -0.168 C  
HETATM    5  C   UNL     1      -8.837   4.769  66.634  1.00  0.00    -0.110 C  
HETATM    6  OXT UNL     1      -8.778   4.622  65.426  1.00  0.00    -0.124 OA 
HETATM    7  O   UNL     1      -7.758   4.679  67.455  1.00  0.00    -0.088 OA 
ENDROOT
BRANCH   4   8
HETATM    8  C   UNL     1     -10.873   6.234  66.755  1.00  0.00    -0.367 C  
BRANCH   8   9
HETATM    9  C   UNL     1     -10.336   7.589  67.148  1.00  0.00    -0.384 A  
HETATM   10  C   UNL     1     -11.027   8.405  68.049  1.00  0.00     0.122 A  
HETATM   11  C   UNL     1     -10.541   9.682  68.363  1.00  0.00    -0.225 A  
HETATM   12  I   UNL     1     -11.730  10.854  69.651  1.00  0.00    -0.456 I  
HETATM   13  C   UNL     1      -9.358  10.182  67.782  1.00  0.00    -0.141 A  
HETATM   14  C   UNL     1      -8.721   9.391  66.809  1.00  0.00    -0.127 A  
HETATM   15  C   UNL     1      -9.177   8.088  66.544  1.00  0.00    -0.236 A  
HETATM   16  I   UNL     1      -7.229  10.069  65.470  1.00  0.00    -0.139 I  
BRANCH  13  17
HETATM   17  O   UNL     1      -9.023  11.470  68.131  1.00  0.00    -0.159 OA 
BRANCH  17  18
HETATM   18  C   UNL     1      -9.416  12.555  67.385  1.00  0.00    -0.184 A  
HETATM   19  C   UNL     1     -10.380  12.258  66.417  1.00  0.00    -0.250 A  
HETATM   20  C   UNL     1     -10.753  13.223  65.482  1.00  0.00    -0.289 A  
HETATM   21  I   UNL     1     -12.156  12.698  64.027  1.00  0.00    -0.617 I  
HETATM   22  C   UNL     1     -10.166  14.491  65.513  1.00  0.00    -0.370 A  
HETATM   23  C   UNL     1      -9.267  14.810  66.539  1.00  0.00    -0.276 A  
HETATM   24  O   UNL     1     -10.440  15.414  64.540  1.00  0.00    -0.562 OA 
HETATM   25  H   UNL     1     -10.041  16.276  64.561  1.00  0.00     0.000 HD 
HETATM   26  I   UNL     1      -8.310  16.671  66.620  1.00  0.00    -0.371 I  
HETATM   27  C   UNL     1      -8.926  13.855  67.506  1.00  0.00    -0.197 A  
ENDBRANCH  17  18
ENDBRANCH  13  17
ENDBRANCH   8   9
ENDBRANCH   4   8
TORSDOF 4
ENDMDL
MODEL      148
REMARK 921   NORMALIZED FREE ENERGY PREDICTED BY IDOCK:   -4.06 KCAL/MOL
REMARK 922        TOTAL FREE ENERGY PREDICTED BY IDOCK:   -5.83 KCAL/MOL
REMARK 923 INTER-LIGAND FREE ENERGY PREDICTED BY IDOCK:   -5.11 KCAL/MOL
REMARK 924 INTRA-LIGAND FREE ENERGY PREDICTED BY IDOCK:   -0.72 KCAL/MOL
REMARK 927      BINDING AFFINITY PREDICTED BY RF-SCORE:    0.00 PKD
ROOT
HETATM    1  N   UNL     1     -13.693   9.424  72.601  1.00  0.00    -0.725 NA 
HETATM    2  H1  UNL     1     -14.669   9.381  72.309  1.00  0.00     0.000 HD 
HETATM    3  H2  UNL     1     -13.438  10.371  72.878  1.00  0.00     0.000 HD 
HETATM    4  CA  UNL     1     -12.748   8.897  71.564  1.00  0.00    -0.335 C  
HETATM    5  C   UNL     1     -13.126   7.436  71.266  1.00  0.00    -0.296 C  
HETATM    6  OXT UNL     1     -12.479   6.669  70.574  1.00  0.00    -0.248 OA 
HETATM    7  O   UNL     1     -14.293   7.096  71.874  1.00  0.00    -0.390 OA 
ENDROOT
BRANCH   4   8
HETATM    8  C   UNL     1     -11.275   8.963  72.005  1.00  0.00    -0.422 C  
BRANCH   8   9
HETATM    9  C   UNL     1     -10.322   9.108  70.842  1.00  0.00    -0.349 A  
HETATM   10  C   UNL     1      -9.048   8.532  70.878  1.00  0.00    -0.208 A  
HETATM   11  C   UNL     1      -8.157   8.719  69.813  1.00  0.00    -0.111 A  
HETATM   12  I   UNL     1      -6.231   7.889  70.036  1.00  0.00    -0.029 I  
HETATM   13  C   UNL     1      -8.509   9.491  68.687  1.00  0.00    -0.119 A  
HETATM   14  C   UNL     1      -9.755  10.141  68.702  1.00  0.00    -0.163 A  
HETATM   15  C   UNL     1     -10.669   9.899  69.743  1.00  0.00    -0.298 A  
HETATM   16  I   UNL     1     -10.337  11.696  67.390  1.00  0.00    -0.271 I  
BRANCH  13  17
HETATM   17  O   UNL     1      -7.523   9.643  67.739  1.00  0.00    -0.086 OA 
BRANCH  17  18
HETATM   18  C   UNL     1      -7.644   9.131  66.469  1.00  0.00    -0.093 A  
HETATM   19  C   UNL     1      -8.058   7.796  66.434  1.00  0.00    -0.109 A  
HETATM   20  C   UNL     1      -8.069   7.098  65.227  1.00  0.00    -0.134 A  
HETATM   21  I   UNL     1      -8.642   5.090  65.251  1.00  0.00    -0.141 I  
HETATM   22  C   UNL     1      -7.668   7.734  64.049  1.00  0.00    -0.126 A  
HETATM   23  C   UNL     1      -7.340   9.095  64.076  1.00  0.00    -0.100 A  
HETATM   24  O   UNL     1      -7.570   7.035  62.875  1.00  0.00    -0.088 OA 
HETATM   25  H   UNL     1      -7.297   7.467  62.073  1.00  0.00     0.000 HD 
HETATM   26  I   UNL     1      -6.682  10.101  62.360  1.00  0.00    -0.149 I  
HETATM   27  C   UNL     1      -7.373   9.809  65.281  1.00  0.00    -0.120 A  
ENDBRANCH  17  18
ENDBRANCH  13  17
ENDBRANCH   8   9
ENDBRANCH   4   8
TORSDOF 4
ENDMDL
MODEL      149
REMARK 921   NORMALIZED FREE ENERGY PREDICTED BY IDOCK:   -4.06 KCAL/MOL
REMARK 922        TOTAL FREE ENERGY PREDICTED BY IDOCK:   -5.83 KCAL/MOL
REMARK 923 INTER-LIGAND FREE ENERGY PREDICTED BY IDOCK:   -5.29 KCAL/MOL
REMARK 924 INTRA-LIGAND FREE ENERGY PREDICTED BY IDOCK:   -0.54 KCAL/MOL
REMARK 927      BINDING AFFINITY PREDICTED BY RF-SCORE:    0.00 PKD
ROOT
HETATM    1  N   UNL     1      -9.014  19.809  67.287  1.00  0.00    -0.313 NA 
HETATM    2  H1  UNL     1      -8.364  20.355  67.853  1.00  0.00     0.000 HD 
HETATM    3  H2  UNL     1      -9.850  19.573  67.820  1.00  0.00     0.000 HD 
HETATM    4  CA  UNL     1      -8.390  18.581  66.699  1.00  0.00    -0.272 C  
HETATM    5  C   UNL     1      -7.198  19.015  65.828  1.00  0.00    -0.230 C  
HETATM    6  OXT UNL     1      -6.557  18.281  65.098  1.00  0.00    -0.438 OA 
HETATM    7  O   UNL     1      -6.939  20.341  65.977  1.00  0.00    -0.256 OA 
ENDROOT
BRANCH   4   8
HETATM    8  C   UNL     1      -9.372  17.757  65.846  1.00  0.00     0.084 C  
BRANCH   8   9
HETATM    9  C   UNL     1      -9.543  16.344  66.350  1.00  0.00    -0.313 A  
HETATM   10  C   UNL     1      -8.459  15.623  66.859  1.00  0.00    -0.286 A  
HETATM   11  C   UNL     1      -8.624  14.295  67.275  1.00  0.00    -0.215 A  
HETATM   12  I   UNL     1      -6.889  13.286  67.922  1.00  0.00    -0.183 I  
HETATM   13  C   UNL     1      -9.873  13.648  67.188  1.00  0.00    -0.242 A  
HETATM   14  C   UNL     1     -10.935  14.350  66.591  1.00  0.00    -0.318 A  
HETATM   15  C   UNL     1     -10.780  15.701  66.233  1.00  0.00    -0.295 A  
HETATM   16  I   UNL     1     -12.748  13.486  65.924  1.00  0.00     0.233 I  
BRANCH  13  17
HETATM   17  O   UNL     1      -9.887  12.328  67.576  1.00  0.00    -0.189 OA 
BRANCH  17  18
HETATM   18  C   UNL     1      -9.793  11.299  66.669  1.00  0.00    -0.205 A  
HETATM   19  C   UNL     1      -9.928  10.029  67.239  1.00  0.00    -0.245 A  
HETATM   20  C   UNL     1      -9.694   8.890  66.470  1.00  0.00    -0.254 A  
HETATM   21  I   UNL     1      -9.855   7.024  67.393  1.00  0.00    -0.272 I  
HETATM   22  C   UNL     1      -9.329   9.015  65.126  1.00  0.00    -0.029 A  
HETATM   23  C   UNL     1      -9.283  10.286  64.540  1.00  0.00    -0.250 A  
HETATM   24  O   UNL     1      -8.991   7.914  64.386  1.00  0.00    -0.167 OA 
HETATM   25  H   UNL     1      -8.742   7.999  63.473  1.00  0.00     0.000 HD 
HETATM   26  I   UNL     1      -8.693  10.556  62.548  1.00  0.00    -0.381 I  
HETATM   27  C   UNL     1      -9.561  11.429  65.301  1.00  0.00    -0.256 A  
ENDBRANCH  17  18
ENDBRANCH  13  17
ENDBRANCH   8   9
ENDBRANCH   4   8
TORSDOF 4
ENDMDL
MODEL      150
REMARK 921   NORMALIZED FREE ENERGY PREDICTED BY IDOCK:   -4.03 KCAL/MOL
REMARK 922        TOTAL FREE ENERGY PREDICTED BY IDOCK:   -5.80 KCAL/MOL
REMARK 923 INTER-LIGAND FREE ENERGY PREDICTED BY IDOCK:   -5.65 KCAL/MOL
REMARK 924 INTRA-LIGAND FREE ENERGY PREDICTED BY IDOCK:   -0.15 KCAL/MOL
REMARK 927      BINDING AFFINITY PREDICTED BY RF-SCORE:    0.00 PKD
ROOT
HETATM    1  N   UNL     1     -11.379   6.577  66.781  1.00  0.00    -0.800 NA 
HETATM    2  H1  UNL     1     -12.287   6.345  67.184  1.00  0.00     0.000 HD 
HETATM    3  H2  UNL     1     -11.468   6.803  65.791  1.00  0.00     0.000 HD 
HETATM    4  CA  UNL     1     -10.353   5.506  66.995  1.00  0.00    -0.254 C  
HETATM    5  C   UNL     1     -10.196   5.285  68.509  1.00  0.00    -0.144 C  
HETATM    6  OXT UNL     1      -9.348   4.585  69.033  1.00  0.00    -0.124 OA 
HETATM    7  O   UNL     1     -11.137   5.973  69.207  1.00  0.00    -0.364 OA 
ENDROOT
BRANCH   4   8
HETATM    8  C   UNL     1      -8.983   5.856  66.386  1.00  0.00    -0.143 C  
BRANCH   8   9
HETATM    9  C   UNL     1      -8.628   7.315  66.542  1.00  0.00    -0.134 A  
HETATM   10  C   UNL     1      -8.029   7.791  67.712  1.00  0.00    -0.124 A  
HETATM   11  C   UNL     1      -7.753   9.157  67.861  1.00  0.00    -0.093 A  
HETATM   12  I   UNL     1      -6.947   9.760  69.715  1.00  0.00    -0.139 I  
HETATM   13  C   UNL     1      -8.074  10.086  66.851  1.00  0.00    -0.117 A  
HETATM   14  C   UNL     1      -8.758   9.612  65.718  1.00  0.00    -0.147 A  
HETATM   15  C   UNL     1      -8.977   8.234  65.546  1.00  0.00    -0.114 A  
HETATM   16  I   UNL     1      -9.751  10.824  64.296  1.00  0.00    -0.418 I  
BRANCH  13  17
HETATM   17  O   UNL     1      -7.803  11.402  67.147  1.00  0.00    -0.140 OA 
BRANCH  17  18
HETATM   18  C   UNL     1      -8.796  12.302  67.452  1.00  0.00    -0.185 A  
HETATM   19  C   UNL     1      -9.732  11.822  68.373  1.00  0.00    -0.197 A  
HETATM   20  C   UNL     1     -10.881  12.561  68.652  1.00  0.00    -0.248 A  
HETATM   21  I   UNL     1     -12.268  11.763  69.993  1.00  0.00    -0.138 I  
HETATM   22  C   UNL     1     -11.097  13.786  68.014  1.00  0.00    -0.261 A  
HETATM   23  C   UNL     1     -10.113  14.302  67.161  1.00  0.00    -0.254 A  
HETATM   24  O   UNL     1     -12.268  14.472  68.194  1.00  0.00    -0.570 OA 
HETATM   25  H   UNL     1     -12.415  15.305  67.760  1.00  0.00     0.000 HD 
HETATM   26  I   UNL     1     -10.391  16.105  66.130  1.00  0.00    -0.323 I  
HETATM   27  C   UNL     1      -8.938  13.581  66.914  1.00  0.00    -0.219 A  
ENDBRANCH  17  18
ENDBRANCH  13  17
ENDBRANCH   8   9
ENDBRANCH   4   8
TORSDOF 4
ENDMDL
MODEL      151
REMARK 921   NORMALIZED FREE ENERGY PREDICTED BY IDOCK:   -4.03 KCAL/MOL
REMARK 922        TOTAL FREE ENERGY PREDICTED BY IDOCK:   -5.79 KCAL/MOL
REMARK 923 INTER-LIGAND FREE ENERGY PREDICTED BY IDOCK:   -5.64 KCAL/MOL
REMARK 924 INTRA-LIGAND FREE ENERGY PREDICTED BY IDOCK:   -0.15 KCAL/MOL
REMARK 927      BINDING AFFINITY PREDICTED BY RF-SCORE:    0.00 PKD
ROOT
HETATM    1  N   UNL     1      -9.837   7.240  74.008  1.00  0.00    -0.401 NA 
HETATM    2  H1  UNL     1     -10.663   7.188  74.604  1.00  0.00     0.000 HD 
HETATM    3  H2  UNL     1      -9.203   7.972  74.326  1.00  0.00     0.000 HD 
HETATM    4  CA  UNL     1     -10.173   7.417  72.558  1.00  0.00    -0.216 C  
HETATM    5  C   UNL     1     -11.046   6.230  72.117  1.00  0.00    -0.269 C  
HETATM    6  OXT UNL     1     -11.380   5.990  70.970  1.00  0.00    -0.295 OA 
HETATM    7  O   UNL     1     -11.412   5.467  73.180  1.00  0.00    -0.292 OA 
ENDROOT
BRANCH   4   8
HETATM    8  C   UNL     1      -8.927   7.496  71.657  1.00  0.00    -0.137 C  
BRANCH   8   9
HETATM    9  C   UNL     1      -8.883   8.757  70.828  1.00  0.00    -0.228 A  
HETATM   10  C   UNL     1     -10.056   9.433  70.480  1.00  0.00    -0.335 A  
HETATM   11  C   UNL     1     -10.002  10.573  69.667  1.00  0.00    -0.112 A  
HETATM   12  I   UNL     1     -11.849  11.437  69.128  1.00  0.00    -0.311 I  
HETATM   13  C   UNL     1      -8.777  11.065  69.172  1.00  0.00     0.011 A  
HETATM   14  C   UNL     1      -7.614  10.327  69.451  1.00  0.00    -0.137 A  
HETATM   15  C   UNL     1      -7.666   9.221  70.318  1.00  0.00    -0.133 A  
HETATM   16  I   UNL     1      -5.751  10.568  68.475  1.00  0.00    -0.038 I  
BRANCH  13  17
HETATM   17  O   UNL     1      -8.869  12.157  68.339  1.00  0.00    -0.181 OA 
BRANCH  17  18
HETATM   18  C   UNL     1      -9.146  12.031  66.998  1.00  0.00    -0.191 A  
HETATM   19  C   UNL     1     -10.058  12.976  66.518  1.00  0.00    -0.270 A  
HETATM   20  C   UNL     1     -10.556  12.870  65.220  1.00  0.00    -0.297 A  
HETATM   21  I   UNL     1     -11.959  14.278  64.582  1.00  0.00    -0.425 I  
HETATM   22  C   UNL     1     -10.140  11.821  64.395  1.00  0.00    -0.282 A  
HETATM   23  C   UNL     1      -9.159  10.931  64.851  1.00  0.00    -0.182 A  
HETATM   24  O   UNL     1     -10.698  11.641  63.157  1.00  0.00    -0.617 OA 
HETATM   25  H   UNL     1     -10.415  10.927  62.596  1.00  0.00     0.000 HD 
HETATM   26  I   UNL     1      -8.526   9.306  63.691  1.00  0.00    -0.126 I  
HETATM   27  C   UNL     1      -8.626  11.063  66.140  1.00  0.00    -0.175 A  
ENDBRANCH  17  18
ENDBRANCH  13  17
ENDBRANCH   8   9
ENDBRANCH   4   8
TORSDOF 4
ENDMDL
MODEL      152
REMARK 921   NORMALIZED FREE ENERGY PREDICTED BY IDOCK:   -3.99 KCAL/MOL
REMARK 922        TOTAL FREE ENERGY PREDICTED BY IDOCK:   -5.74 KCAL/MOL
REMARK 923 INTER-LIGAND FREE ENERGY PREDICTED BY IDOCK:   -5.25 KCAL/MOL
REMARK 924 INTRA-LIGAND FREE ENERGY PREDICTED BY IDOCK:   -0.49 KCAL/MOL
REMARK 927      BINDING AFFINITY PREDICTED BY RF-SCORE:    0.00 PKD
ROOT
HETATM    1  N   UNL     1     -10.147   8.084  70.827  1.00  0.00    -0.192 NA 
HETATM    2  H1  UNL     1      -9.611   7.823  71.654  1.00  0.00     0.000 HD 
HETATM    3  H2  UNL     1      -9.529   8.286  70.042  1.00  0.00     0.000 HD 
HETATM    4  CA  UNL     1     -11.086   9.225  71.075  1.00  0.00    -0.326 C  
HETATM    5  C   UNL     1     -12.053   8.818  72.200  1.00  0.00    -0.371 C  
HETATM    6  OXT UNL     1     -13.028   9.456  72.555  1.00  0.00    -0.380 OA 
HETATM    7  O   UNL     1     -11.680   7.639  72.766  1.00  0.00    -0.310 OA 
ENDROOT
BRANCH   4   8
HETATM    8  C   UNL     1     -11.895   9.621  69.826  1.00  0.00     0.141 C  
BRANCH   8   9
HETATM    9  C   UNL     1     -11.231  10.711  69.020  1.00  0.00    -0.324 A  
HETATM   10  C   UNL     1     -10.066  10.460  68.289  1.00  0.00    -0.174 A  
HETATM   11  C   UNL     1      -9.434  11.496  67.587  1.00  0.00    -0.168 A  
HETATM   12  I   UNL     1      -7.627  11.010  66.614  1.00  0.00    -0.096 I  
HETATM   13  C   UNL     1      -9.942  12.810  67.601  1.00  0.00    -0.217 A  
HETATM   14  C   UNL     1     -11.061  13.071  68.412  1.00  0.00    -0.262 A  
HETATM   15  C   UNL     1     -11.727  12.018  69.063  1.00  0.00    -0.382 A  
HETATM   16  I   UNL     1     -11.738  14.996  68.975  1.00  0.00    -0.308 I  
BRANCH  13  17
HETATM   17  O   UNL     1      -9.195  13.743  66.919  1.00  0.00    -0.240 OA 
BRANCH  17  18
HETATM   18  C   UNL     1      -8.281  14.552  67.551  1.00  0.00    -0.187 A  
HETATM   19  C   UNL     1      -7.992  15.730  66.857  1.00  0.00    -0.285 A  
HETATM   20  C   UNL     1      -6.966  16.566  67.295  1.00  0.00    -0.173 A  
HETATM   21  I   UNL     1      -6.546  18.282  66.182  1.00  0.00    -0.348 I  
HETATM   22  C   UNL     1      -6.227  16.229  68.433  1.00  0.00    -0.119 A  
HETATM   23  C   UNL     1      -6.580  15.094  69.174  1.00  0.00    -0.128 A  
HETATM   24  O   UNL     1      -5.149  16.982  68.815  1.00  0.00    -0.128 OA 
HETATM   25  H   UNL     1      -4.646  16.752  69.589  1.00  0.00     0.000 HD 
HETATM   26  I   UNL     1      -5.486  14.499  70.858  1.00  0.00    -0.149 I  
HETATM   27  C   UNL     1      -7.640  14.277  68.759  1.00  0.00    -0.130 A  
ENDBRANCH  17  18
ENDBRANCH  13  17
ENDBRANCH   8   9
ENDBRANCH   4   8
TORSDOF 4
ENDMDL
MODEL      153
REMARK 921   NORMALIZED FREE ENERGY PREDICTED BY IDOCK:   -3.99 KCAL/MOL
REMARK 922        TOTAL FREE ENERGY PREDICTED BY IDOCK:   -5.74 KCAL/MOL
REMARK 923 INTER-LIGAND FREE ENERGY PREDICTED BY IDOCK:   -5.13 KCAL/MOL
REMARK 924 INTRA-LIGAND FREE ENERGY PREDICTED BY IDOCK:   -0.60 KCAL/MOL
REMARK 927      BINDING AFFINITY PREDICTED BY RF-SCORE:    0.00 PKD
ROOT
HETATM    1  N   UNL     1     -13.337  10.053  70.305  1.00  0.00    -0.447 NA 
HETATM    2  H1  UNL     1     -13.452   9.087  69.997  1.00  0.00     0.000 HD 
HETATM    3  H2  UNL     1     -14.176  10.598  70.114  1.00  0.00     0.000 HD 
HETATM    4  CA  UNL     1     -12.125  10.713  69.719  1.00  0.00    -0.272 C  
HETATM    5  C   UNL     1     -10.887   9.897  70.128  1.00  0.00    -0.304 C  
HETATM    6  OXT UNL     1      -9.731  10.230  69.936  1.00  0.00    -0.196 OA 
HETATM    7  O   UNL     1     -11.243   8.734  70.735  1.00  0.00    -0.254 OA 
ENDROOT
BRANCH   4   8
HETATM    8  C   UNL     1     -11.951  12.170  70.184  1.00  0.00    -0.394 C  
BRANCH   8   9
HETATM    9  C   UNL     1     -11.250  13.032  69.161  1.00  0.00    -0.297 A  
HETATM   10  C   UNL     1     -11.698  13.089  67.838  1.00  0.00    -0.402 A  
HETATM   11  C   UNL     1     -11.004  13.853  66.889  1.00  0.00    -0.295 A  
HETATM   12  I   UNL     1     -11.720  13.770  64.906  1.00  0.00    -0.474 I  
HETATM   13  C   UNL     1      -9.843  14.573  67.232  1.00  0.00    -0.236 A  
HETATM   14  C   UNL     1      -9.349  14.436  68.541  1.00  0.00    -0.204 A  
HETATM   15  C   UNL     1     -10.081  13.720  69.504  1.00  0.00     0.526 A  
HETATM   16  I   UNL     1      -7.418  15.016  69.185  1.00  0.00    -0.170 I  
BRANCH  13  17
HETATM   17  O   UNL     1      -9.226  15.235  66.194  1.00  0.00    -0.298 OA 
BRANCH  17  18
HETATM   18  C   UNL     1      -8.941  16.579  66.252  1.00  0.00    -0.324 A  
HETATM   19  C   UNL     1      -7.631  16.895  65.880  1.00  0.00     0.180 A  
HETATM   20  C   UNL     1      -7.152  18.194  66.044  1.00  0.00    -0.283 A  
HETATM   21  I   UNL     1      -5.168  18.589  65.523  1.00  0.00    -0.229 I  
HETATM   22  C   UNL     1      -7.982  19.183  66.578  1.00  0.00    -0.284 A  
HETATM   23  C   UNL     1      -9.319  18.881  66.865  1.00  0.00    -0.309 A  
HETATM   24  O   UNL     1      -7.496  20.435  66.846  1.00  0.00    -0.282 OA 
HETATM   25  H   UNL     1      -8.061  21.108  67.210  1.00  0.00     0.000 HD 
HETATM   26  I   UNL     1     -10.607  20.298  67.716  1.00  0.00     0.424 I  
HETATM   27  C   UNL     1      -9.814  17.587  66.659  1.00  0.00    -0.308 A  
ENDBRANCH  17  18
ENDBRANCH  13  17
ENDBRANCH   8   9
ENDBRANCH   4   8
TORSDOF 4
ENDMDL
MODEL      154
REMARK 921   NORMALIZED FREE ENERGY PREDICTED BY IDOCK:   -3.98 KCAL/MOL
REMARK 922        TOTAL FREE ENERGY PREDICTED BY IDOCK:   -5.74 KCAL/MOL
REMARK 923 INTER-LIGAND FREE ENERGY PREDICTED BY IDOCK:   -5.33 KCAL/MOL
REMARK 924 INTRA-LIGAND FREE ENERGY PREDICTED BY IDOCK:   -0.41 KCAL/MOL
REMARK 927      BINDING AFFINITY PREDICTED BY RF-SCORE:    0.00 PKD
ROOT
HETATM    1  N   UNL     1      -9.084  19.103  68.281  1.00  0.00    -0.325 NA 
HETATM    2  H1  UNL     1      -8.511  19.895  67.990  1.00  0.00     0.000 HD 
HETATM    3  H2  UNL     1      -8.602  18.543  68.983  1.00  0.00     0.000 HD 
HETATM    4  CA  UNL     1      -9.529  18.251  67.131  1.00  0.00    -0.268 C  
HETATM    5  C   UNL     1     -10.334  19.133  66.160  1.00  0.00    -0.484 C  
HETATM    6  OXT UNL     1     -10.956  18.729  65.194  1.00  0.00    -0.514 OA 
HETATM    7  O   UNL     1     -10.262  20.444  66.514  1.00  0.00    -0.405 OA 
ENDROOT
BRANCH   4   8
HETATM    8  C   UNL     1     -10.395  17.055  67.569  1.00  0.00    -0.329 C  
BRANCH   8   9
HETATM    9  C   UNL     1      -9.662  15.738  67.479  1.00  0.00    -0.226 A  
HETATM   10  C   UNL     1      -8.422  15.559  68.100  1.00  0.00    -0.147 A  
HETATM   11  C   UNL     1      -7.731  14.347  67.964  1.00  0.00    -0.138 A  
HETATM   12  I   UNL     1      -5.825  14.242  68.860  1.00  0.00    -0.104 I  
HETATM   13  C   UNL     1      -8.254  13.285  67.199  1.00  0.00    -0.114 A  
HETATM   14  C   UNL     1      -9.456  13.507  66.504  1.00  0.00    -0.256 A  
HETATM   15  C   UNL     1     -10.175  14.700  66.694  1.00  0.00    -0.275 A  
HETATM   16  I   UNL     1     -10.213  12.285  64.951  1.00  0.00    -0.246 I  
BRANCH  13  17
HETATM   17  O   UNL     1      -7.450  12.172  67.100  1.00  0.00    -0.149 OA 
BRANCH  17  18
HETATM   18  C   UNL     1      -7.782  10.975  67.688  1.00  0.00    -0.112 A  
HETATM   19  C   UNL     1      -8.983  11.010  68.403  1.00  0.00    -0.158 A  
HETATM   20  C   UNL     1      -9.364   9.919  69.183  1.00  0.00    -0.193 A  
HETATM   21  I   UNL     1     -11.140  10.055  70.273  1.00  0.00    -0.409 I  
HETATM   22  C   UNL     1      -8.547   8.787  69.249  1.00  0.00    -0.130 A  
HETATM   23  C   UNL     1      -7.391   8.724  68.461  1.00  0.00    -0.085 A  
HETATM   24  O   UNL     1      -8.851   7.752  70.093  1.00  0.00    -0.143 OA 
HETATM   25  H   UNL     1      -8.295   6.982  70.138  1.00  0.00     0.000 HD 
HETATM   26  I   UNL     1      -6.092   7.083  68.548  1.00  0.00    -0.033 I  
HETATM   27  C   UNL     1      -7.031   9.802  67.642  1.00  0.00    -0.086 A  
ENDBRANCH  17  18
ENDBRANCH  13  17
ENDBRANCH   8   9
ENDBRANCH   4   8
TORSDOF 4
ENDMDL
MODEL      155
REMARK 921   NORMALIZED FREE ENERGY PREDICTED BY IDOCK:   -3.95 KCAL/MOL
REMARK 922        TOTAL FREE ENERGY PREDICTED BY IDOCK:   -5.69 KCAL/MOL
REMARK 923 INTER-LIGAND FREE ENERGY PREDICTED BY IDOCK:   -5.71 KCAL/MOL
REMARK 924 INTRA-LIGAND FREE ENERGY PREDICTED BY IDOCK:    0.01 KCAL/MOL
REMARK 927      BINDING AFFINITY PREDICTED BY RF-SCORE:    0.00 PKD
ROOT
HETATM    1  N   UNL     1     -11.890  14.094  66.831  1.00  0.00    -0.412 NA 
HETATM    2  H1  UNL     1     -12.901  14.226  66.799  1.00  0.00     0.000 HD 
HETATM    3  H2  UNL     1     -11.585  13.841  67.770  1.00  0.00     0.000 HD 
HETATM    4  CA  UNL     1     -11.130  15.282  66.323  1.00  0.00    -0.273 C  
HETATM    5  C   UNL     1     -11.564  15.547  64.871  1.00  0.00    -0.201 C  
HETATM    6  OXT UNL     1     -11.045  16.350  64.117  1.00  0.00    -0.809 OA 
HETATM    7  O   UNL     1     -12.621  14.765  64.524  1.00  0.00    -0.574 OA 
ENDROOT
BRANCH   4   8
HETATM    8  C   UNL     1      -9.604  15.084  66.371  1.00  0.00    -0.314 C  
BRANCH   8   9
HETATM    9  C   UNL     1      -9.207  13.642  66.581  1.00  0.00    -0.225 A  
HETATM   10  C   UNL     1      -8.418  13.263  67.672  1.00  0.00    -0.191 A  
HETATM   11  C   UNL     1      -8.015  11.930  67.824  1.00  0.00    -0.144 A  
HETATM   12  I   UNL     1      -6.739  11.509  69.450  1.00  0.00    -0.000 I  
HETATM   13  C   UNL     1      -8.381  10.940  66.890  1.00  0.00    -0.133 A  
HETATM   14  C   UNL     1      -9.097  11.347  65.751  1.00  0.00    -0.184 A  
HETATM   15  C   UNL     1      -9.551  12.672  65.634  1.00  0.00    -0.076 A  
HETATM   16  I   UNL     1      -9.370  10.187  64.002  1.00  0.00    -0.203 I  
BRANCH  13  17
HETATM   17  O   UNL     1      -7.873   9.683  67.127  1.00  0.00    -0.092 OA 
BRANCH  17  18
HETATM   18  C   UNL     1      -8.585   8.721  67.803  1.00  0.00    -0.129 A  
HETATM   19  C   UNL     1      -8.914   7.608  67.024  1.00  0.00    -0.148 A  
HETATM   20  C   UNL     1      -9.771   6.630  67.528  1.00  0.00    -0.127 A  
HETATM   21  I   UNL     1     -10.269   5.021  66.294  1.00  0.00    -0.240 I  
HETATM   22  C   UNL     1     -10.301   6.760  68.815  1.00  0.00    -0.196 A  
HETATM   23  C   UNL     1      -9.897   7.832  69.622  1.00  0.00    -0.182 A  
HETATM   24  O   UNL     1     -11.226   5.867  69.285  1.00  0.00    -0.363 OA 
HETATM   25  H   UNL     1     -11.586   5.956  70.160  1.00  0.00     0.000 HD 
HETATM   26  I   UNL     1     -10.688   8.120  71.540  1.00  0.00    -0.354 I  
HETATM   27  C   UNL     1      -9.001   8.791  69.132  1.00  0.00    -0.137 A  
ENDBRANCH  17  18
ENDBRANCH  13  17
ENDBRANCH   8   9
ENDBRANCH   4   8
TORSDOF 4
ENDMDL
MODEL      156
REMARK 921   NORMALIZED FREE ENERGY PREDICTED BY IDOCK:   -3.92 KCAL/MOL
REMARK 922        TOTAL FREE ENERGY PREDICTED BY IDOCK:   -5.66 KCAL/MOL
REMARK 923 INTER-LIGAND FREE ENERGY PREDICTED BY IDOCK:   -5.32 KCAL/MOL
REMARK 924 INTRA-LIGAND FREE ENERGY PREDICTED BY IDOCK:   -0.34 KCAL/MOL
REMARK 927      BINDING AFFINITY PREDICTED BY RF-SCORE:    0.00 PKD
ROOT
HETATM    1  N   UNL     1     -12.031  16.939  72.133  1.00  0.00    -0.286 NA 
HETATM    2  H1  UNL     1     -12.768  17.641  72.188  1.00  0.00     0.000 HD 
HETATM    3  H2  UNL     1     -11.147  17.360  71.849  1.00  0.00     0.000 HD 
HETATM    4  CA  UNL     1     -12.385  15.789  71.241  1.00  0.00    -0.438 C  
HETATM    5  C   UNL     1     -13.670  15.137  71.781  1.00  0.00    -0.480 C  
HETATM    6  OXT UNL     1     -14.155  14.096  71.375  1.00  0.00    -0.305 OA 
HETATM    7  O   UNL     1     -14.212  15.878  72.783  1.00  0.00    -0.523 OA 
ENDROOT
BRANCH   4   8
HETATM    8  C   UNL     1     -11.272  14.728  71.156  1.00  0.00    -0.099 C  
BRANCH   8   9
HETATM    9  C   UNL     1     -11.166  14.097  69.788  1.00  0.00    -0.205 A  
HETATM   10  C   UNL     1     -11.254  12.712  69.625  1.00  0.00    -0.077 A  
HETATM   11  C   UNL     1     -11.102  12.138  68.355  1.00  0.00    -0.245 A  
HETATM   12  I   UNL     1     -11.148  10.032  68.259  1.00  0.00     0.011 I  
HETATM   13  C   UNL     1     -10.852  12.930  67.216  1.00  0.00    -0.255 A  
HETATM   14  C   UNL     1     -10.675  14.312  67.405  1.00  0.00    -0.282 A  
HETATM   15  C   UNL     1     -10.890  14.888  68.669  1.00  0.00    -0.253 A  
HETATM   16  I   UNL     1      -9.852  15.643  65.980  1.00  0.00    -0.407 I  
BRANCH  13  17
HETATM   17  O   UNL     1     -10.667  12.238  66.041  1.00  0.00    -0.249 OA 
BRANCH  17  18
HETATM   18  C   UNL     1      -9.461  11.665  65.713  1.00  0.00    -0.226 A  
HETATM   19  C   UNL     1      -9.492  10.921  64.529  1.00  0.00    -0.284 A  
HETATM   20  C   UNL     1      -8.390  10.151  64.159  1.00  0.00    -0.168 A  
HETATM   21  I   UNL     1      -8.519   9.017  62.410  1.00  0.00    -0.171 I  
HETATM   22  C   UNL     1      -7.250  10.126  64.968  1.00  0.00    -0.139 A  
HETATM   23  C   UNL     1      -7.193  10.942  66.105  1.00  0.00    -0.101 A  
HETATM   24  O   UNL     1      -6.202   9.294  64.676  1.00  0.00    -0.069 OA 
HETATM   25  H   UNL     1      -5.428   9.276  65.226  1.00  0.00     0.000 HD 
HETATM   26  I   UNL     1      -5.541  10.917  67.392  1.00  0.00    -0.061 I  
HETATM   27  C   UNL     1      -8.283  11.750  66.454  1.00  0.00    -0.006 A  
ENDBRANCH  17  18
ENDBRANCH  13  17
ENDBRANCH   8   9
ENDBRANCH   4   8
TORSDOF 4
ENDMDL
MODEL      157
REMARK 921   NORMALIZED FREE ENERGY PREDICTED BY IDOCK:   -3.91 KCAL/MOL
REMARK 922        TOTAL FREE ENERGY PREDICTED BY IDOCK:   -5.65 KCAL/MOL
REMARK 923 INTER-LIGAND FREE ENERGY PREDICTED BY IDOCK:   -5.20 KCAL/MOL
REMARK 924 INTRA-LIGAND FREE ENERGY PREDICTED BY IDOCK:   -0.44 KCAL/MOL
REMARK 927      BINDING AFFINITY PREDICTED BY RF-SCORE:    0.00 PKD
ROOT
HETATM    1  N   UNL     1      -8.459   7.297  70.504  1.00  0.00    -0.136 NA 
HETATM    2  H1  UNL     1      -8.180   6.978  71.432  1.00  0.00     0.000 HD 
HETATM    3  H2  UNL     1      -9.463   7.190  70.369  1.00  0.00     0.000 HD 
HETATM    4  CA  UNL     1      -7.696   6.628  69.401  1.00  0.00    -0.101 C  
HETATM    5  C   UNL     1      -6.199   6.912  69.609  1.00  0.00    -0.034 C  
HETATM    6  OXT UNL     1      -5.314   6.633  68.820  1.00  0.00    -0.014 OA 
HETATM    7  O   UNL     1      -5.975   7.520  70.804  1.00  0.00    -0.034 OA 
ENDROOT
BRANCH   4   8
HETATM    8  C   UNL     1      -8.118   7.110  68.001  1.00  0.00    -0.120 C  
BRANCH   8   9
HETATM    9  C   UNL     1      -8.352   8.600  67.940  1.00  0.00    -0.123 A  
HETATM   10  C   UNL     1      -7.294   9.488  67.723  1.00  0.00    -0.083 A  
HETATM   11  C   UNL     1      -7.519  10.871  67.721  1.00  0.00    -0.094 A  
HETATM   12  I   UNL     1      -5.824  12.104  67.490  1.00  0.00    -0.132 I  
HETATM   13  C   UNL     1      -8.804  11.406  67.942  1.00  0.00    -0.149 A  
HETATM   14  C   UNL     1      -9.843  10.510  68.250  1.00  0.00    -0.149 A  
HETATM   15  C   UNL     1      -9.625   9.123  68.190  1.00  0.00    -0.160 A  
HETATM   16  I   UNL     1     -11.721  11.051  69.063  1.00  0.00    -0.288 I  
BRANCH  13  17
HETATM   17  O   UNL     1      -8.879  12.780  67.971  1.00  0.00    -0.181 OA 
BRANCH  17  18
HETATM   18  C   UNL     1      -9.414  13.505  66.934  1.00  0.00    -0.258 A  
HETATM   19  C   UNL     1      -9.173  14.880  67.019  1.00  0.00    -0.249 A  
HETATM   20  C   UNL     1      -9.791  15.755  66.128  1.00  0.00    -0.315 A  
HETATM   21  I   UNL     1      -9.436  17.801  66.345  1.00  0.00    -0.149 I  
HETATM   22  C   UNL     1     -10.651  15.259  65.143  1.00  0.00    -0.430 A  
HETATM   23  C   UNL     1     -10.818  13.875  65.006  1.00  0.00    -0.382 A  
HETATM   24  O   UNL     1     -11.349  16.111  64.329  1.00  0.00    -0.961 OA 
HETATM   25  H   UNL     1     -11.933  15.774  63.660  1.00  0.00     0.000 HD 
HETATM   26  I   UNL     1     -12.129  13.062  63.589  1.00  0.00    -0.366 I  
HETATM   27  C   UNL     1     -10.162  12.992  65.874  1.00  0.00    -0.298 A  
ENDBRANCH  17  18
ENDBRANCH  13  17
ENDBRANCH   8   9
ENDBRANCH   4   8
TORSDOF 4
ENDMDL
MODEL      158
REMARK 921   NORMALIZED FREE ENERGY PREDICTED BY IDOCK:   -3.89 KCAL/MOL
REMARK 922        TOTAL FREE ENERGY PREDICTED BY IDOCK:   -5.62 KCAL/MOL
REMARK 923 INTER-LIGAND FREE ENERGY PREDICTED BY IDOCK:   -5.56 KCAL/MOL
REMARK 924 INTRA-LIGAND FREE ENERGY PREDICTED BY IDOCK:   -0.06 KCAL/MOL
REMARK 927      BINDING AFFINITY PREDICTED BY RF-SCORE:    0.00 PKD
ROOT
HETATM    1  N   UNL     1      -9.619   5.752  68.848  1.00  0.00    -0.127 NA 
HETATM    2  H1  UNL     1     -10.230   5.115  69.358  1.00  0.00     0.000 HD 
HETATM    3  H2  UNL     1      -9.495   6.625  69.361  1.00  0.00     0.000 HD 
HETATM    4  CA  UNL     1     -10.087   6.015  67.449  1.00  0.00    -0.163 C  
HETATM    5  C   UNL     1     -10.156   4.672  66.703  1.00  0.00    -0.234 C  
HETATM    6  OXT UNL     1     -10.366   4.539  65.511  1.00  0.00    -0.254 OA 
HETATM    7  O   UNL     1      -9.956   3.628  67.551  1.00  0.00    -0.029 OA 
ENDROOT
BRANCH   4   8
HETATM    8  C   UNL     1      -9.165   6.979  66.679  1.00  0.00    -0.189 C  
BRANCH   8   9
HETATM    9  C   UNL     1      -9.752   8.363  66.536  1.00  0.00    -0.330 A  
HETATM   10  C   UNL     1      -9.579   9.102  65.362  1.00  0.00    -0.166 A  
HETATM   11  C   UNL     1     -10.086  10.405  65.265  1.00  0.00    -0.300 A  
HETATM   12  I   UNL     1      -9.666  11.451  63.483  1.00  0.00    -0.354 I  
HETATM   13  C   UNL     1     -10.773  11.008  66.338  1.00  0.00    -0.227 A  
HETATM   14  C   UNL     1     -10.862  10.292  67.544  1.00  0.00    -0.298 A  
HETATM   15  C   UNL     1     -10.407   8.964  67.616  1.00  0.00    -0.313 A  
HETATM   16  I   UNL     1     -11.415  11.114  69.414  1.00  0.00    -0.462 I  
BRANCH  13  17
HETATM   17  O   UNL     1     -11.169  12.310  66.133  1.00  0.00    -0.296 OA 
BRANCH  17  18
HETATM   18  C   UNL     1     -10.375  13.378  66.475  1.00  0.00    -0.284 A  
HETATM   19  C   UNL     1      -9.072  13.022  66.836  1.00  0.00    -0.227 A  
HETATM   20  C   UNL     1      -8.205  13.979  67.361  1.00  0.00    -0.190 A  
HETATM   21  I   UNL     1      -6.292  13.372  67.935  1.00  0.00    -0.141 I  
HETATM   22  C   UNL     1      -8.637  15.299  67.524  1.00  0.00    -0.177 A  
HETATM   23  C   UNL     1      -9.912  15.668  67.077  1.00  0.00    -0.240 A  
HETATM   24  O   UNL     1      -7.837  16.227  68.136  1.00  0.00    -0.149 OA 
HETATM   25  H   UNL     1      -8.130  17.124  68.247  1.00  0.00     0.000 HD 
HETATM   26  I   UNL     1     -10.645  17.613  67.336  1.00  0.00    -0.104 I  
HETATM   27  C   UNL     1     -10.768  14.716  66.509  1.00  0.00    -0.312 A  
ENDBRANCH  17  18
ENDBRANCH  13  17
ENDBRANCH   8   9
ENDBRANCH   4   8
TORSDOF 4
ENDMDL
MODEL      159
REMARK 921   NORMALIZED FREE ENERGY PREDICTED BY IDOCK:   -3.89 KCAL/MOL
REMARK 922        TOTAL FREE ENERGY PREDICTED BY IDOCK:   -5.62 KCAL/MOL
REMARK 923 INTER-LIGAND FREE ENERGY PREDICTED BY IDOCK:   -5.43 KCAL/MOL
REMARK 924 INTRA-LIGAND FREE ENERGY PREDICTED BY IDOCK:   -0.18 KCAL/MOL
REMARK 927      BINDING AFFINITY PREDICTED BY RF-SCORE:    0.00 PKD
ROOT
HETATM    1  N   UNL     1     -12.160  12.157  66.913  1.00  0.00    -0.556 NA 
HETATM    2  H1  UNL     1     -13.128  11.840  66.941  1.00  0.00     0.000 HD 
HETATM    3  H2  UNL     1     -11.705  12.021  67.815  1.00  0.00     0.000 HD 
HETATM    4  CA  UNL     1     -12.023  13.577  66.455  1.00  0.00    -0.413 C  
HETATM    5  C   UNL     1     -12.638  13.692  65.050  1.00  0.00    -0.390 C  
HETATM    6  OXT UNL     1     -12.572  14.673  64.331  1.00  0.00    -0.662 OA 
HETATM    7  O   UNL     1     -13.280  12.546  64.699  1.00  0.00    -0.848 OA 
ENDROOT
BRANCH   4   8
HETATM    8  C   UNL     1     -10.561  14.057  66.413  1.00  0.00    -0.280 C  
BRANCH   8   9
HETATM    9  C   UNL     1      -9.590  12.949  66.084  1.00  0.00    -0.215 A  
HETATM   10  C   UNL     1      -9.681  12.244  64.880  1.00  0.00    -0.054 A  
HETATM   11  C   UNL     1      -8.805  11.183  64.612  1.00  0.00     0.069 A  
HETATM   12  I   UNL     1      -9.116  10.133  62.810  1.00  0.00    -0.320 I  
HETATM   13  C   UNL     1      -7.818  10.794  65.540  1.00  0.00    -0.041 A  
HETATM   14  C   UNL     1      -7.794  11.448  66.784  1.00  0.00    -0.157 A  
HETATM   15  C   UNL     1      -8.633  12.550  67.023  1.00  0.00    -0.188 A  
HETATM   16  I   UNL     1      -6.751  10.774  68.498  1.00  0.00    -0.066 I  
BRANCH  13  17
HETATM   17  O   UNL     1      -7.061   9.703  65.179  1.00  0.00    -0.103 OA 
BRANCH  17  18
HETATM   18  C   UNL     1      -7.492   8.414  65.385  1.00  0.00    -0.085 A  
HETATM   19  C   UNL     1      -6.783   7.456  64.654  1.00  0.00    -0.046 A  
HETATM   20  C   UNL     1      -7.213   6.130  64.638  1.00  0.00    -0.064 A  
HETATM   21  I   UNL     1      -6.145   4.759  63.479  1.00  0.00    -0.022 I  
HETATM   22  C   UNL     1      -8.352   5.754  65.356  1.00  0.00    -0.142 A  
HETATM   23  C   UNL     1      -9.004   6.700  66.158  1.00  0.00    -0.139 A  
HETATM   24  O   UNL     1      -8.849   4.482  65.266  1.00  0.00    -0.129 OA 
HETATM   25  H   UNL     1      -9.623   4.226  65.755  1.00  0.00     0.000 HD 
HETATM   26  I   UNL     1     -10.745   6.223  67.221  1.00  0.00    -0.425 I  
HETATM   27  C   UNL     1      -8.547   8.023  66.210  1.00  0.00    -0.156 A  
ENDBRANCH  17  18
ENDBRANCH  13  17
ENDBRANCH   8   9
ENDBRANCH   4   8
TORSDOF 4
ENDMDL
MODEL      160
REMARK 921   NORMALIZED FREE ENERGY PREDICTED BY IDOCK:   -3.89 KCAL/MOL
REMARK 922        TOTAL FREE ENERGY PREDICTED BY IDOCK:   -5.62 KCAL/MOL
REMARK 923 INTER-LIGAND FREE ENERGY PREDICTED BY IDOCK:   -5.28 KCAL/MOL
REMARK 924 INTRA-LIGAND FREE ENERGY PREDICTED BY IDOCK:   -0.33 KCAL/MOL
REMARK 927      BINDING AFFINITY PREDICTED BY RF-SCORE:    0.00 PKD
ROOT
HETATM    1  N   UNL     1      -8.341   5.871  73.147  1.00  0.00    -0.117 NA 
HETATM    2  H1  UNL     1      -8.071   4.975  73.551  1.00  0.00     0.000 HD 
HETATM    3  H2  UNL     1      -7.689   6.606  73.422  1.00  0.00     0.000 HD 
HETATM    4  CA  UNL     1      -9.751   6.258  73.473  1.00  0.00    -0.168 C  
HETATM    5  C   UNL     1     -10.688   5.158  72.943  1.00  0.00    -0.248 C  
HETATM    6  OXT UNL     1     -11.904   5.222  72.917  1.00  0.00    -0.271 OA 
HETATM    7  O   UNL     1      -9.982   4.083  72.501  1.00  0.00    -0.147 OA 
ENDROOT
BRANCH   4   8
HETATM    8  C   UNL     1     -10.159   7.612  72.864  1.00  0.00    -0.343 C  
BRANCH   8   9
HETATM    9  C   UNL     1      -9.609   7.818  71.473  1.00  0.00    -0.187 A  
HETATM   10  C   UNL     1      -8.667   8.817  71.211  1.00  0.00    -0.273 A  
HETATM   11  C   UNL     1      -8.205   9.029  69.904  1.00  0.00    -0.124 A  
HETATM   12  I   UNL     1      -6.868  10.636  69.626  1.00  0.00    -0.105 I  
HETATM   13  C   UNL     1      -8.675   8.256  68.824  1.00  0.00    -0.137 A  
HETATM   14  C   UNL     1      -9.688   7.316  69.083  1.00  0.00    -0.160 A  
HETATM   15  C   UNL     1     -10.103   7.065  70.402  1.00  0.00    -0.198 A  
HETATM   16  I   UNL     1     -10.878   6.368  67.612  1.00  0.00    -0.303 I  
BRANCH  13  17
HETATM   17  O   UNL     1      -8.184   8.604  67.586  1.00  0.00    -0.109 OA 
BRANCH  17  18
HETATM   18  C   UNL     1      -8.881   9.418  66.726  1.00  0.00    -0.127 A  
HETATM   19  C   UNL     1      -8.585   9.202  65.377  1.00  0.00    -0.192 A  
HETATM   20  C   UNL     1      -9.092  10.062  64.404  1.00  0.00    -0.247 A  
HETATM   21  I   UNL     1      -8.566   9.720  62.412  1.00  0.00    -0.293 I  
HETATM   22  C   UNL     1      -9.902  11.139  64.775  1.00  0.00    -0.277 A  
HETATM   23  C   UNL     1     -10.268  11.297  66.118  1.00  0.00    -0.245 A  
HETATM   24  O   UNL     1     -10.321  12.053  63.846  1.00  0.00    -0.333 OA 
HETATM   25  H   UNL     1     -10.871  12.786  64.098  1.00  0.00     0.000 HD 
HETATM   26  I   UNL     1     -11.435  12.915  66.755  1.00  0.00    -0.457 I  
HETATM   27  C   UNL     1      -9.794  10.407  67.091  1.00  0.00    -0.221 A  
ENDBRANCH  17  18
ENDBRANCH  13  17
ENDBRANCH   8   9
ENDBRANCH   4   8
TORSDOF 4
ENDMDL
MODEL      161
REMARK 921   NORMALIZED FREE ENERGY PREDICTED BY IDOCK:   -3.88 KCAL/MOL
REMARK 922        TOTAL FREE ENERGY PREDICTED BY IDOCK:   -5.61 KCAL/MOL
REMARK 923 INTER-LIGAND FREE ENERGY PREDICTED BY IDOCK:   -5.18 KCAL/MOL
REMARK 924 INTRA-LIGAND FREE ENERGY PREDICTED BY IDOCK:   -0.43 KCAL/MOL
REMARK 927      BINDING AFFINITY PREDICTED BY RF-SCORE:    0.00 PKD
ROOT
HETATM    1  N   UNL     1      -9.162   5.706  72.353  1.00  0.00    -0.144 NA 
HETATM    2  H1  UNL     1      -9.767   5.451  73.133  1.00  0.00     0.000 HD 
HETATM    3  H2  UNL     1      -8.899   4.884  71.812  1.00  0.00     0.000 HD 
HETATM    4  CA  UNL     1      -7.948   6.474  72.782  1.00  0.00    -0.102 C  
HETATM    5  C   UNL     1      -8.415   7.750  73.504  1.00  0.00    -0.207 C  
HETATM    6  OXT UNL     1      -7.690   8.663  73.858  1.00  0.00    -0.399 OA 
HETATM    7  O   UNL     1      -9.759   7.735  73.707  1.00  0.00    -0.275 OA 
ENDROOT
BRANCH   4   8
HETATM    8  C   UNL     1      -7.034   6.859  71.605  1.00  0.00    -0.070 C  
BRANCH   8   9
HETATM    9  C   UNL     1      -7.741   7.691  70.562  1.00  0.00    -0.089 A  
HETATM   10  C   UNL     1      -8.753   7.143  69.768  1.00  0.00    -0.142 A  
HETATM   11  C   UNL     1      -9.364   7.913  68.768  1.00  0.00    -0.146 A  
HETATM   12  I   UNL     1     -10.799   6.938  67.570  1.00  0.00    -0.253 I  
HETATM   13  C   UNL     1      -8.977   9.247  68.530  1.00  0.00    -0.129 A  
HETATM   14  C   UNL     1      -7.897   9.759  69.271  1.00  0.00    -0.105 A  
HETATM   15  C   UNL     1      -7.330   9.004  70.313  1.00  0.00    -0.076 A  
HETATM   16  I   UNL     1      -6.830  11.527  68.810  1.00  0.00    -0.103 I  
BRANCH  13  17
HETATM   17  O   UNL     1      -9.616   9.872  67.484  1.00  0.00    -0.152 OA 
BRANCH  17  18
HETATM   18  C   UNL     1     -10.448  10.950  67.674  1.00  0.00    -0.209 A  
HETATM   19  C   UNL     1     -10.687  11.693  66.514  1.00  0.00    -0.313 A  
HETATM   20  C   UNL     1     -11.378  12.902  66.588  1.00  0.00    -0.317 A  
HETATM   21  I   UNL     1     -11.651  13.993  64.829  1.00  0.00    -0.441 I  
HETATM   22  C   UNL     1     -11.838  13.370  67.823  1.00  0.00    -0.358 A  
HETATM   23  C   UNL     1     -11.674  12.578  68.966  1.00  0.00    -0.318 A  
HETATM   24  O   UNL     1     -12.423  14.603  67.930  1.00  0.00    -0.586 OA 
HETATM   25  H   UNL     1     -12.735  14.922  68.769  1.00  0.00     0.000 HD 
HETATM   26  I   UNL     1     -12.289  13.237  70.856  1.00  0.00     0.026 I  
HETATM   27  C   UNL     1     -11.018  11.342  68.885  1.00  0.00    -0.276 A  
ENDBRANCH  17  18
ENDBRANCH  13  17
ENDBRANCH   8   9
ENDBRANCH   4   8
TORSDOF 4
ENDMDL
MODEL      162
REMARK 921   NORMALIZED FREE ENERGY PREDICTED BY IDOCK:   -3.87 KCAL/MOL
REMARK 922        TOTAL FREE ENERGY PREDICTED BY IDOCK:   -5.59 KCAL/MOL
REMARK 923 INTER-LIGAND FREE ENERGY PREDICTED BY IDOCK:   -5.36 KCAL/MOL
REMARK 924 INTRA-LIGAND FREE ENERGY PREDICTED BY IDOCK:   -0.24 KCAL/MOL
REMARK 927      BINDING AFFINITY PREDICTED BY RF-SCORE:    0.00 PKD
ROOT
HETATM    1  N   UNL     1     -12.383  14.831  68.918  1.00  0.00    -0.587 NA 
HETATM    2  H1  UNL     1     -12.022  15.590  69.496  1.00  0.00     0.000 HD 
HETATM    3  H2  UNL     1     -12.989  14.216  69.461  1.00  0.00     0.000 HD 
HETATM    4  CA  UNL     1     -11.302  14.051  68.235  1.00  0.00    -0.288 C  
HETATM    5  C   UNL     1     -10.490  15.018  67.357  1.00  0.00    -0.257 C  
HETATM    6  OXT UNL     1      -9.627  14.691  66.563  1.00  0.00    -0.261 OA 
HETATM    7  O   UNL     1     -10.855  16.309  67.581  1.00  0.00    -0.327 OA 
ENDROOT
BRANCH   4   8
HETATM    8  C   UNL     1     -11.846  12.905  67.362  1.00  0.00    -0.418 C  
BRANCH   8   9
HETATM    9  C   UNL     1     -10.876  11.755  67.233  1.00  0.00    -0.300 A  
HETATM   10  C   UNL     1     -10.195  11.258  68.348  1.00  0.00    -0.205 A  
HETATM   11  C   UNL     1      -9.259  10.224  68.203  1.00  0.00    -0.136 A  
HETATM   12  I   UNL     1      -8.223   9.638  69.943  1.00  0.00    -0.186 I  
HETATM   13  C   UNL     1      -8.973   9.664  66.941  1.00  0.00    -0.134 A  
HETATM   14  C   UNL     1      -9.595  10.232  65.816  1.00  0.00    -0.224 A  
HETATM   15  C   UNL     1     -10.577  11.226  65.974  1.00  0.00    -0.314 A  
HETATM   16  I   UNL     1      -9.015   9.908  63.807  1.00  0.00    -0.218 I  
BRANCH  13  17
HETATM   17  O   UNL     1      -7.995   8.697  66.929  1.00  0.00    -0.094 OA 
BRANCH  17  18
HETATM   18  C   UNL     1      -8.290   7.357  67.021  1.00  0.00    -0.121 A  
HETATM   19  C   UNL     1      -8.388   6.713  65.784  1.00  0.00    -0.143 A  
HETATM   20  C   UNL     1      -8.840   5.396  65.715  1.00  0.00    -0.151 A  
HETATM   21  I   UNL     1      -9.019   4.510  63.832  1.00  0.00    -0.005 I  
HETATM   22  C   UNL     1      -9.193   4.716  66.884  1.00  0.00    -0.127 A  
HETATM   23  C   UNL     1      -9.007   5.336  68.126  1.00  0.00    -0.109 A  
HETATM   24  O   UNL     1      -9.739   3.461  66.826  1.00  0.00    -0.391 OA 
HETATM   25  H   UNL     1      -9.979   2.999  67.621  1.00  0.00     0.000 HD 
HETATM   26  I   UNL     1      -9.562   4.398  69.915  1.00  0.00    -0.246 I  
HETATM   27  C   UNL     1      -8.511   6.644  68.199  1.00  0.00    -0.116 A  
ENDBRANCH  17  18
ENDBRANCH  13  17
ENDBRANCH   8   9
ENDBRANCH   4   8
TORSDOF 4
ENDMDL
MODEL      163
REMARK 921   NORMALIZED FREE ENERGY PREDICTED BY IDOCK:   -3.87 KCAL/MOL
REMARK 922        TOTAL FREE ENERGY PREDICTED BY IDOCK:   -5.59 KCAL/MOL
REMARK 923 INTER-LIGAND FREE ENERGY PREDICTED BY IDOCK:   -5.28 KCAL/MOL
REMARK 924 INTRA-LIGAND FREE ENERGY PREDICTED BY IDOCK:   -0.31 KCAL/MOL
REMARK 927      BINDING AFFINITY PREDICTED BY RF-SCORE:    0.00 PKD
ROOT
HETATM    1  N   UNL     1     -11.530   7.256  72.889  1.00  0.00    -0.545 NA 
HETATM    2  H1  UNL     1     -12.115   6.422  72.931  1.00  0.00     0.000 HD 
HETATM    3  H2  UNL     1     -12.056   8.053  72.532  1.00  0.00     0.000 HD 
HETATM    4  CA  UNL     1     -10.273   7.048  72.099  1.00  0.00    -0.186 C  
HETATM    5  C   UNL     1      -9.480   5.901  72.748  1.00  0.00    -0.148 C  
HETATM    6  OXT UNL     1      -8.349   5.566  72.441  1.00  0.00    -0.117 OA 
HETATM    7  O   UNL     1     -10.207   5.290  73.721  1.00  0.00    -0.184 OA 
ENDROOT
BRANCH   4   8
HETATM    8  C   UNL     1      -9.389   8.307  72.035  1.00  0.00    -0.298 C  
BRANCH   8   9
HETATM    9  C   UNL     1      -9.473   9.014  70.703  1.00  0.00    -0.286 A  
HETATM   10  C   UNL     1      -8.487   8.835  69.728  1.00  0.00    -0.129 A  
HETATM   11  C   UNL     1      -8.553   9.539  68.518  1.00  0.00    -0.119 A  
HETATM   12  I   UNL     1      -6.950   9.262  67.176  1.00  0.00    -0.086 I  
HETATM   13  C   UNL     1      -9.599  10.445  68.251  1.00  0.00    -0.144 A  
HETATM   14  C   UNL     1     -10.534  10.687  69.273  1.00  0.00    -0.227 A  
HETATM   15  C   UNL     1     -10.498   9.933  70.459  1.00  0.00    -0.330 A  
HETATM   16  I   UNL     1     -11.904  12.299  69.318  1.00  0.00    -0.223 I  
BRANCH  13  17
HETATM   17  O   UNL     1      -9.515  11.113  67.050  1.00  0.00    -0.174 OA 
BRANCH  17  18
HETATM   18  C   UNL     1      -9.335  12.474  66.982  1.00  0.00    -0.210 A  
HETATM   19  C   UNL     1     -10.298  13.135  66.214  1.00  0.00    -0.291 A  
HETATM   20  C   UNL     1     -10.151  14.490  65.922  1.00  0.00    -0.326 A  
HETATM   21  I   UNL     1     -11.593  15.405  64.721  1.00  0.00     0.017 I  
HETATM   22  C   UNL     1      -9.041  15.192  66.402  1.00  0.00    -0.296 A  
HETATM   23  C   UNL     1      -8.128  14.547  67.245  1.00  0.00    -0.196 A  
HETATM   24  O   UNL     1      -8.826  16.494  66.037  1.00  0.00    -0.400 OA 
HETATM   25  H   UNL     1      -8.071  16.972  66.363  1.00  0.00     0.000 HD 
HETATM   26  I   UNL     1      -6.415  15.520  67.958  1.00  0.00    -0.196 I  
HETATM   27  C   UNL     1      -8.299  13.196  67.574  1.00  0.00    -0.185 A  
ENDBRANCH  17  18
ENDBRANCH  13  17
ENDBRANCH   8   9
ENDBRANCH   4   8
TORSDOF 4
ENDMDL
MODEL      164
REMARK 921   NORMALIZED FREE ENERGY PREDICTED BY IDOCK:   -3.86 KCAL/MOL
REMARK 922        TOTAL FREE ENERGY PREDICTED BY IDOCK:   -5.58 KCAL/MOL
REMARK 923 INTER-LIGAND FREE ENERGY PREDICTED BY IDOCK:   -5.78 KCAL/MOL
REMARK 924 INTRA-LIGAND FREE ENERGY PREDICTED BY IDOCK:    0.20 KCAL/MOL
REMARK 927      BINDING AFFINITY PREDICTED BY RF-SCORE:    0.00 PKD
ROOT
HETATM    1  N   UNL     1     -12.283  12.961  66.866  1.00  0.00    -0.410 NA 
HETATM    2  H1  UNL     1     -13.239  12.627  66.979  1.00  0.00     0.000 HD 
HETATM    3  H2  UNL     1     -11.901  13.281  67.755  1.00  0.00     0.000 HD 
HETATM    4  CA  UNL     1     -12.154  14.023  65.816  1.00  0.00    -0.427 C  
HETATM    5  C   UNL     1     -12.653  13.444  64.481  1.00  0.00    -0.226 C  
HETATM    6  OXT UNL     1     -12.559  13.993  63.398  1.00  0.00    -0.845 OA 
HETATM    7  O   UNL     1     -13.226  12.224  64.658  1.00  0.00    -0.763 OA 
ENDROOT
BRANCH   4   8
HETATM    8  C   UNL     1     -10.710  14.528  65.645  1.00  0.00    -0.335 C  
BRANCH   8   9
HETATM    9  C   UNL     1      -9.680  13.527  66.114  1.00  0.00    -0.264 A  
HETATM   10  C   UNL     1      -9.738  12.190  65.710  1.00  0.00    -0.245 A  
HETATM   11  C   UNL     1      -8.805  11.263  66.195  1.00  0.00    -0.190 A  
HETATM   12  I   UNL     1      -9.066   9.259  65.594  1.00  0.00    -0.274 I  
HETATM   13  C   UNL     1      -7.795  11.643  67.101  1.00  0.00    -0.163 A  
HETATM   14  C   UNL     1      -7.801  12.968  67.572  1.00  0.00    -0.178 A  
HETATM   15  C   UNL     1      -8.699  13.907  67.036  1.00  0.00    -0.215 A  
HETATM   16  I   UNL     1      -6.716  13.674  69.246  1.00  0.00     0.054 I  
BRANCH  13  17
HETATM   17  O   UNL     1      -6.980  10.626  67.543  1.00  0.00    -0.080 OA 
BRANCH  17  18
HETATM   18  C   UNL     1      -7.372   9.753  68.530  1.00  0.00    -0.074 A  
HETATM   19  C   UNL     1      -6.549   8.629  68.651  1.00  0.00    -0.055 A  
HETATM   20  C   UNL     1      -6.914   7.583  69.497  1.00  0.00    -0.060 A  
HETATM   21  I   UNL     1      -5.672   5.907  69.590  1.00  0.00    -0.018 I  
HETATM   22  C   UNL     1      -8.103   7.657  70.229  1.00  0.00    -0.114 A  
HETATM   23  C   UNL     1      -8.877   8.823  70.171  1.00  0.00    -0.154 A  
HETATM   24  O   UNL     1      -8.530   6.595  70.980  1.00  0.00    -0.127 OA 
HETATM   25  H   UNL     1      -9.339   6.646  71.478  1.00  0.00     0.000 HD 
HETATM   26  I   UNL     1     -10.695   8.986  71.198  1.00  0.00    -0.442 I  
HETATM   27  C   UNL     1      -8.487   9.894  69.355  1.00  0.00    -0.169 A  
ENDBRANCH  17  18
ENDBRANCH  13  17
ENDBRANCH   8   9
ENDBRANCH   4   8
TORSDOF 4
ENDMDL
MODEL      165
REMARK 921   NORMALIZED FREE ENERGY PREDICTED BY IDOCK:   -3.85 KCAL/MOL
REMARK 922        TOTAL FREE ENERGY PREDICTED BY IDOCK:   -5.57 KCAL/MOL
REMARK 923 INTER-LIGAND FREE ENERGY PREDICTED BY IDOCK:   -4.80 KCAL/MOL
REMARK 924 INTRA-LIGAND FREE ENERGY PREDICTED BY IDOCK:   -0.77 KCAL/MOL
REMARK 927      BINDING AFFINITY PREDICTED BY RF-SCORE:    0.00 PKD
ROOT
HETATM    1  N   UNL     1     -10.886  15.990  65.742  1.00  0.00    -0.275 NA 
HETATM    2  H1  UNL     1     -11.849  16.296  65.877  1.00  0.00     0.000 HD 
HETATM    3  H2  UNL     1     -10.789  15.467  64.872  1.00  0.00     0.000 HD 
HETATM    4  CA  UNL     1     -10.355  15.203  66.901  1.00  0.00    -0.272 C  
HETATM    5  C   UNL     1     -10.437  16.083  68.160  1.00  0.00    -0.269 C  
HETATM    6  OXT UNL     1      -9.962  15.803  69.246  1.00  0.00    -0.226 OA 
HETATM    7  O   UNL     1     -11.119  17.232  67.912  1.00  0.00    -0.276 OA 
ENDROOT
BRANCH   4   8
HETATM    8  C   UNL     1      -8.900  14.740  66.696  1.00  0.00    -0.262 C  
BRANCH   8   9
HETATM    9  C   UNL     1      -8.623  13.390  67.314  1.00  0.00    -0.216 A  
HETATM   10  C   UNL     1      -7.623  13.229  68.277  1.00  0.00    -0.139 A  
HETATM   11  C   UNL     1      -7.344  11.960  68.803  1.00  0.00    -0.105 A  
HETATM   12  I   UNL     1      -5.742  11.836  70.168  1.00  0.00    -0.140 I  
HETATM   13  C   UNL     1      -8.049  10.817  68.376  1.00  0.00    -0.127 A  
HETATM   14  C   UNL     1      -8.988  10.974  67.342  1.00  0.00    -0.141 A  
HETATM   15  C   UNL     1      -9.308  12.257  66.863  1.00  0.00    -0.210 A  
HETATM   16  I   UNL     1      -9.836   9.398  66.212  1.00  0.00    -0.281 I  
BRANCH  13  17
HETATM   17  O   UNL     1      -7.638   9.625  68.928  1.00  0.00    -0.073 OA 
BRANCH  17  18
HETATM   18  C   UNL     1      -8.345   9.001  69.929  1.00  0.00    -0.134 A  
HETATM   19  C   UNL     1      -7.717   7.861  70.439  1.00  0.00    -0.087 A  
HETATM   20  C   UNL     1      -8.389   7.037  71.341  1.00  0.00    -0.113 A  
HETATM   21  I   UNL     1      -7.419   5.318  72.022  1.00  0.00    -0.102 I  
HETATM   22  C   UNL     1      -9.691   7.353  71.740  1.00  0.00    -0.153 A  
HETATM   23  C   UNL     1     -10.280   8.543  71.295  1.00  0.00    -0.223 A  
HETATM   24  O   UNL     1     -10.405   6.500  72.540  1.00  0.00    -0.188 OA 
HETATM   25  H   UNL     1     -11.290   6.715  72.811  1.00  0.00     0.000 HD 
HETATM   26  I   UNL     1     -12.245   9.055  71.809  1.00  0.00    -0.468 I  
HETATM   27  C   UNL     1      -9.588   9.394  70.423  1.00  0.00    -0.319 A  
ENDBRANCH  17  18
ENDBRANCH  13  17
ENDBRANCH   8   9
ENDBRANCH   4   8
TORSDOF 4
ENDMDL
MODEL      166
REMARK 921   NORMALIZED FREE ENERGY PREDICTED BY IDOCK:   -3.84 KCAL/MOL
REMARK 922        TOTAL FREE ENERGY PREDICTED BY IDOCK:   -5.55 KCAL/MOL
REMARK 923 INTER-LIGAND FREE ENERGY PREDICTED BY IDOCK:   -4.94 KCAL/MOL
REMARK 924 INTRA-LIGAND FREE ENERGY PREDICTED BY IDOCK:   -0.61 KCAL/MOL
REMARK 927      BINDING AFFINITY PREDICTED BY RF-SCORE:    0.00 PKD
ROOT
HETATM    1  N   UNL     1      -7.485   8.481  73.335  1.00  0.00    -0.351 NA 
HETATM    2  H1  UNL     1      -8.191   8.099  73.964  1.00  0.00     0.000 HD 
HETATM    3  H2  UNL     1      -7.216   9.422  73.618  1.00  0.00     0.000 HD 
HETATM    4  CA  UNL     1      -7.908   8.455  71.897  1.00  0.00    -0.125 C  
HETATM    5  C   UNL     1      -8.201   6.996  71.507  1.00  0.00    -0.108 C  
HETATM    6  OXT UNL     1      -8.435   6.603  70.378  1.00  0.00    -0.131 OA 
HETATM    7  O   UNL     1      -8.174   6.181  72.596  1.00  0.00    -0.107 OA 
ENDROOT
BRANCH   4   8
HETATM    8  C   UNL     1      -6.842   9.031  70.947  1.00  0.00    -0.088 C  
BRANCH   8   9
HETATM    9  C   UNL     1      -7.366  10.167  70.101  1.00  0.00    -0.157 A  
HETATM   10  C   UNL     1      -8.635  10.106  69.517  1.00  0.00    -0.177 A  
HETATM   11  C   UNL     1      -9.085  11.146  68.692  1.00  0.00    -0.166 A  
HETATM   12  I   UNL     1     -10.972  10.884  67.788  1.00  0.00    -0.367 I  
HETATM   13  C   UNL     1      -8.279  12.271  68.422  1.00  0.00    -0.146 A  
HETATM   14  C   UNL     1      -6.972  12.280  68.939  1.00  0.00    -0.098 A  
HETATM   15  C   UNL     1      -6.548  11.265  69.815  1.00  0.00    -0.130 A  
HETATM   16  I   UNL     1      -5.425  13.587  68.324  1.00  0.00    -0.119 I  
BRANCH  13  17
HETATM   17  O   UNL     1      -8.818  13.192  67.552  1.00  0.00    -0.178 OA 
BRANCH  17  18
HETATM   18  C   UNL     1      -9.452  14.329  67.992  1.00  0.00    -0.204 A  
HETATM   19  C   UNL     1      -9.087  15.486  67.296  1.00  0.00    -0.215 A  
HETATM   20  C   UNL     1      -9.525  16.734  67.737  1.00  0.00    -0.228 A  
HETATM   21  I   UNL     1      -8.899  18.428  66.688  1.00  0.00    -0.248 I  
HETATM   22  C   UNL     1     -10.333  16.831  68.873  1.00  0.00    -0.317 A  
HETATM   23  C   UNL     1     -10.768  15.662  69.512  1.00  0.00    -0.271 A  
HETATM   24  O   UNL     1     -10.684  18.053  69.381  1.00  0.00    -0.282 OA 
HETATM   25  H   UNL     1     -11.233  18.119  70.154  1.00  0.00     0.000 HD 
HETATM   26  I   UNL     1     -11.936  15.731  71.249  1.00  0.00    -0.523 I  
HETATM   27  C   UNL     1     -10.364  14.405  69.044  1.00  0.00    -0.204 A  
ENDBRANCH  17  18
ENDBRANCH  13  17
ENDBRANCH   8   9
ENDBRANCH   4   8
TORSDOF 4
ENDMDL
MODEL      167
REMARK 921   NORMALIZED FREE ENERGY PREDICTED BY IDOCK:   -3.84 KCAL/MOL
REMARK 922        TOTAL FREE ENERGY PREDICTED BY IDOCK:   -5.55 KCAL/MOL
REMARK 923 INTER-LIGAND FREE ENERGY PREDICTED BY IDOCK:   -4.90 KCAL/MOL
REMARK 924 INTRA-LIGAND FREE ENERGY PREDICTED BY IDOCK:   -0.65 KCAL/MOL
REMARK 927      BINDING AFFINITY PREDICTED BY RF-SCORE:    0.00 PKD
ROOT
HETATM    1  N   UNL     1     -12.409  10.744  68.644  1.00  0.00    -0.786 NA 
HETATM    2  H1  UNL     1     -12.502   9.852  68.158  1.00  0.00     0.000 HD 
HETATM    3  H2  UNL     1     -13.111  11.409  68.322  1.00  0.00     0.000 HD 
HETATM    4  CA  UNL     1     -11.032  11.326  68.537  1.00  0.00    -0.220 C  
HETATM    5  C   UNL     1     -10.034  10.317  69.129  1.00  0.00    -0.222 C  
HETATM    6  OXT UNL     1      -8.851  10.530  69.326  1.00  0.00    -0.166 OA 
HETATM    7  O   UNL     1     -10.640   9.133  69.410  1.00  0.00    -0.222 OA 
ENDROOT
BRANCH   4   8
HETATM    8  C   UNL     1     -10.891  12.673  69.270  1.00  0.00    -0.045 C  
BRANCH   8   9
HETATM    9  C   UNL     1     -10.090  13.685  68.487  1.00  0.00    -0.219 A  
HETATM   10  C   UNL     1     -10.687  14.463  67.491  1.00  0.00    -0.271 A  
HETATM   11  C   UNL     1      -9.918  15.361  66.738  1.00  0.00    -0.249 A  
HETATM   12  I   UNL     1     -10.916  16.395  65.195  1.00  0.00     0.214 I  
HETATM   13  C   UNL     1      -8.532  15.502  66.954  1.00  0.00    -0.254 A  
HETATM   14  C   UNL     1      -7.925  14.651  67.893  1.00  0.00    -0.144 A  
HETATM   15  C   UNL     1      -8.710  13.797  68.688  1.00  0.00    -0.051 A  
HETATM   16  I   UNL     1      -5.842  14.329  68.083  1.00  0.00    -0.113 I  
BRANCH  13  17
HETATM   17  O   UNL     1      -7.886  16.375  66.109  1.00  0.00    -0.261 OA 
BRANCH  17  18
HETATM   18  C   UNL     1      -7.475  17.621  66.520  1.00  0.00    -0.264 A  
HETATM   19  C   UNL     1      -7.124  18.476  65.471  1.00  0.00    -0.123 A  
HETATM   20  C   UNL     1      -6.536  19.711  65.743  1.00  0.00    -0.242 A  
HETATM   21  I   UNL     1      -5.982  20.918  64.131  1.00  0.00    -0.256 I  
HETATM   22  C   UNL     1      -6.301  20.098  67.066  1.00  0.00    -0.194 A  
HETATM   23  C   UNL     1      -6.736  19.276  68.113  1.00  0.00    -0.247 A  
HETATM   24  O   UNL     1      -5.628  21.257  67.347  1.00  0.00    -0.268 OA 
HETATM   25  H   UNL     1      -5.468  21.520  68.246  1.00  0.00     0.000 HD 
HETATM   26  I   UNL     1      -6.371  19.765  70.117  1.00  0.00    -0.076 I  
HETATM   27  C   UNL     1      -7.366  18.055  67.841  1.00  0.00    -0.224 A  
ENDBRANCH  17  18
ENDBRANCH  13  17
ENDBRANCH   8   9
ENDBRANCH   4   8
TORSDOF 4
ENDMDL
MODEL      168
REMARK 921   NORMALIZED FREE ENERGY PREDICTED BY IDOCK:   -3.84 KCAL/MOL
REMARK 922        TOTAL FREE ENERGY PREDICTED BY IDOCK:   -5.55 KCAL/MOL
REMARK 923 INTER-LIGAND FREE ENERGY PREDICTED BY IDOCK:   -5.48 KCAL/MOL
REMARK 924 INTRA-LIGAND FREE ENERGY PREDICTED BY IDOCK:   -0.08 KCAL/MOL
REMARK 927      BINDING AFFINITY PREDICTED BY RF-SCORE:    0.00 PKD
ROOT
HETATM    1  N   UNL     1     -12.488  13.297  67.154  1.00  0.00    -0.162 NA 
HETATM    2  H1  UNL     1     -13.306  12.971  67.670  1.00  0.00     0.000 HD 
HETATM    3  H2  UNL     1     -12.756  13.963  66.430  1.00  0.00     0.000 HD 
HETATM    4  CA  UNL     1     -11.677  12.178  66.576  1.00  0.00    -0.321 C  
HETATM    5  C   UNL     1     -11.221  11.268  67.730  1.00  0.00    -0.291 C  
HETATM    6  OXT UNL     1     -10.433  10.345  67.629  1.00  0.00    -0.200 OA 
HETATM    7  O   UNL     1     -11.818  11.620  68.899  1.00  0.00    -0.303 OA 
ENDROOT
BRANCH   4   8
HETATM    8  C   UNL     1     -10.443  12.669  65.797  1.00  0.00    -0.299 C  
BRANCH   8   9
HETATM    9  C   UNL     1      -9.553  13.571  66.618  1.00  0.00    -0.282 A  
HETATM   10  C   UNL     1      -8.371  13.092  67.190  1.00  0.00    -0.153 A  
HETATM   11  C   UNL     1      -7.582  13.928  67.992  1.00  0.00    -0.144 A  
HETATM   12  I   UNL     1      -5.882  13.054  68.881  1.00  0.00    -0.096 I  
HETATM   13  C   UNL     1      -7.955  15.262  68.251  1.00  0.00    -0.132 A  
HETATM   14  C   UNL     1      -9.190  15.707  67.748  1.00  0.00    -0.193 A  
HETATM   15  C   UNL     1      -9.946  14.885  66.894  1.00  0.00    -0.245 A  
HETATM   16  I   UNL     1     -10.193  17.468  68.356  1.00  0.00    -0.364 I  
BRANCH  13  17
HETATM   17  O   UNL     1      -7.124  15.957  69.099  1.00  0.00    -0.159 OA 
BRANCH  17  18
HETATM   18  C   UNL     1      -6.574  17.169  68.754  1.00  0.00    -0.191 A  
HETATM   19  C   UNL     1      -6.141  17.927  69.846  1.00  0.00    -0.166 A  
HETATM   20  C   UNL     1      -5.714  19.241  69.660  1.00  0.00    -0.238 A  
HETATM   21  I   UNL     1      -5.135  20.339  71.340  1.00  0.00    -0.383 I  
HETATM   22  C   UNL     1      -5.713  19.801  68.380  1.00  0.00    -0.216 A  
HETATM   23  C   UNL     1      -6.062  19.009  67.279  1.00  0.00    -0.168 A  
HETATM   24  O   UNL     1      -5.399  21.121  68.194  1.00  0.00    -0.279 OA 
HETATM   25  H   UNL     1      -5.399  21.503  67.323  1.00  0.00     0.000 HD 
HETATM   26  I   UNL     1      -6.134  19.795  65.339  1.00  0.00    -0.320 I  
HETATM   27  C   UNL     1      -6.450  17.675  67.460  1.00  0.00    -0.177 A  
ENDBRANCH  17  18
ENDBRANCH  13  17
ENDBRANCH   8   9
ENDBRANCH   4   8
TORSDOF 4
ENDMDL
MODEL      169
REMARK 921   NORMALIZED FREE ENERGY PREDICTED BY IDOCK:   -3.80 KCAL/MOL
REMARK 922        TOTAL FREE ENERGY PREDICTED BY IDOCK:   -5.51 KCAL/MOL
REMARK 923 INTER-LIGAND FREE ENERGY PREDICTED BY IDOCK:   -4.75 KCAL/MOL
REMARK 924 INTRA-LIGAND FREE ENERGY PREDICTED BY IDOCK:   -0.76 KCAL/MOL
REMARK 927      BINDING AFFINITY PREDICTED BY RF-SCORE:    0.00 PKD
ROOT
HETATM    1  N   UNL     1     -10.530  16.349  67.700  1.00  0.00    -0.296 NA 
HETATM    2  H1  UNL     1     -11.445  16.707  67.424  1.00  0.00     0.000 HD 
HETATM    3  H2  UNL     1      -9.822  16.587  67.006  1.00  0.00     0.000 HD 
HETATM    4  CA  UNL     1     -10.538  14.875  67.972  1.00  0.00    -0.248 C  
HETATM    5  C   UNL     1     -11.554  14.597  69.093  1.00  0.00    -0.301 C  
HETATM    6  OXT UNL     1     -11.709  13.526  69.652  1.00  0.00    -0.291 OA 
HETATM    7  O   UNL     1     -12.274  15.711  69.391  1.00  0.00    -0.322 OA 
ENDROOT
BRANCH   4   8
HETATM    8  C   UNL     1      -9.158  14.333  68.387  1.00  0.00    -0.194 C  
BRANCH   8   9
HETATM    9  C   UNL     1      -8.840  12.998  67.758  1.00  0.00    -0.188 A  
HETATM   10  C   UNL     1      -7.762  12.229  68.206  1.00  0.00    -0.143 A  
HETATM   11  C   UNL     1      -7.448  11.016  67.577  1.00  0.00    -0.102 A  
HETATM   12  I   UNL     1      -5.736  10.005  68.278  1.00  0.00    -0.040 I  
HETATM   13  C   UNL     1      -8.196  10.542  66.481  1.00  0.00    -0.133 A  
HETATM   14  C   UNL     1      -9.220  11.366  65.980  1.00  0.00    -0.214 A  
HETATM   15  C   UNL     1      -9.569  12.550  66.652  1.00  0.00    -0.239 A  
HETATM   16  I   UNL     1     -10.174  11.126  64.106  1.00  0.00    -0.444 I  
BRANCH  13  17
HETATM   17  O   UNL     1      -7.749   9.368  65.920  1.00  0.00    -0.098 OA 
BRANCH  17  18
HETATM   18  C   UNL     1      -8.301   8.149  66.236  1.00  0.00    -0.119 A  
HETATM   19  C   UNL     1      -8.083   7.161  65.272  1.00  0.00    -0.134 A  
HETATM   20  C   UNL     1      -8.720   5.925  65.380  1.00  0.00    -0.103 A  
HETATM   21  I   UNL     1      -8.398   4.512  63.877  1.00  0.00    -0.125 I  
HETATM   22  C   UNL     1      -9.575   5.672  66.456  1.00  0.00    -0.155 A  
HETATM   23  C   UNL     1      -9.720   6.633  67.465  1.00  0.00    -0.127 A  
HETATM   24  O   UNL     1     -10.291   4.506  66.521  1.00  0.00    -0.279 OA 
HETATM   25  H   UNL     1     -10.873   4.333  67.253  1.00  0.00     0.000 HD 
HETATM   26  I   UNL     1     -11.023   6.343  69.078  1.00  0.00    -0.309 I  
HETATM   27  C   UNL     1      -9.045   7.857  67.379  1.00  0.00    -0.146 A  
ENDBRANCH  17  18
ENDBRANCH  13  17
ENDBRANCH   8   9
ENDBRANCH   4   8
TORSDOF 4
ENDMDL
MODEL      170
REMARK 921   NORMALIZED FREE ENERGY PREDICTED BY IDOCK:   -3.78 KCAL/MOL
REMARK 922        TOTAL FREE ENERGY PREDICTED BY IDOCK:   -5.48 KCAL/MOL
REMARK 923 INTER-LIGAND FREE ENERGY PREDICTED BY IDOCK:   -5.05 KCAL/MOL
REMARK 924 INTRA-LIGAND FREE ENERGY PREDICTED BY IDOCK:   -0.44 KCAL/MOL
REMARK 927      BINDING AFFINITY PREDICTED BY RF-SCORE:    0.00 PKD
ROOT
HETATM    1  N   UNL     1     -10.505  16.569  66.021  1.00  0.00    -0.328 NA 
HETATM    2  H1  UNL     1     -11.403  17.015  66.211  1.00  0.00     0.000 HD 
HETATM    3  H2  UNL     1     -10.539  16.039  65.151  1.00  0.00     0.000 HD 
HETATM    4  CA  UNL     1     -10.030  15.709  67.153  1.00  0.00    -0.240 C  
HETATM    5  C   UNL     1      -9.906  16.590  68.408  1.00  0.00    -0.237 C  
HETATM    6  OXT UNL     1      -9.415  16.240  69.467  1.00  0.00    -0.203 OA 
HETATM    7  O   UNL     1     -10.423  17.828  68.193  1.00  0.00    -0.368 OA 
ENDROOT
BRANCH   4   8
HETATM    8  C   UNL     1      -8.675  15.035  66.867  1.00  0.00    -0.285 C  
BRANCH   8   9
HETATM    9  C   UNL     1      -8.575  13.649  67.457  1.00  0.00    -0.197 A  
HETATM   10  C   UNL     1      -7.582  13.332  68.389  1.00  0.00    -0.137 A  
HETATM   11  C   UNL     1      -7.470  12.027  68.888  1.00  0.00    -0.043 A  
HETATM   12  I   UNL     1      -5.866  11.653  70.204  1.00  0.00    -0.099 I  
HETATM   13  C   UNL     1      -8.341  11.002  68.466  1.00  0.00    -0.149 A  
HETATM   14  C   UNL     1      -9.276  11.308  67.461  1.00  0.00    -0.158 A  
HETATM   15  C   UNL     1      -9.425  12.632  67.010  1.00  0.00    -0.220 A  
HETATM   16  I   UNL     1     -10.368   9.888  66.335  1.00  0.00    -0.065 I  
BRANCH  13  17
HETATM   17  O   UNL     1      -8.088   9.754  68.989  1.00  0.00    -0.091 OA 
BRANCH  17  18
HETATM   18  C   UNL     1      -8.978   9.116  69.819  1.00  0.00    -0.162 A  
HETATM   19  C   UNL     1     -10.084   9.895  70.171  1.00  0.00    -0.309 A  
HETATM   20  C   UNL     1     -10.984   9.439  71.133  1.00  0.00    -0.360 A  
HETATM   21  I   UNL     1     -12.583  10.676  71.656  1.00  0.00    -0.179 I  
HETATM   22  C   UNL     1     -10.783   8.199  71.747  1.00  0.00    -0.251 A  
HETATM   23  C   UNL     1      -9.723   7.385  71.326  1.00  0.00    -0.165 A  
HETATM   24  O   UNL     1     -11.594   7.784  72.768  1.00  0.00    -0.486 OA 
HETATM   25  H   UNL     1     -11.457   6.941  73.186  1.00  0.00     0.000 HD 
HETATM   26  I   UNL     1      -9.330   5.539  72.235  1.00  0.00    -0.170 I  
HETATM   27  C   UNL     1      -8.845   7.824  70.327  1.00  0.00    -0.144 A  
ENDBRANCH  17  18
ENDBRANCH  13  17
ENDBRANCH   8   9
ENDBRANCH   4   8
TORSDOF 4
ENDMDL
MODEL      171
REMARK 921   NORMALIZED FREE ENERGY PREDICTED BY IDOCK:   -3.78 KCAL/MOL
REMARK 922        TOTAL FREE ENERGY PREDICTED BY IDOCK:   -5.48 KCAL/MOL
REMARK 923 INTER-LIGAND FREE ENERGY PREDICTED BY IDOCK:   -5.36 KCAL/MOL
REMARK 924 INTRA-LIGAND FREE ENERGY PREDICTED BY IDOCK:   -0.12 KCAL/MOL
REMARK 927      BINDING AFFINITY PREDICTED BY RF-SCORE:    0.00 PKD
ROOT
HETATM    1  N   UNL     1      -8.915   6.885  73.655  1.00  0.00    -0.139 NA 
HETATM    2  H1  UNL     1      -8.585   6.147  74.278  1.00  0.00     0.000 HD 
HETATM    3  H2  UNL     1      -8.497   7.782  73.900  1.00  0.00     0.000 HD 
HETATM    4  CA  UNL     1     -10.409   6.986  73.609  1.00  0.00    -0.373 C  
HETATM    5  C   UNL     1     -10.969   5.633  73.137  1.00  0.00    -0.285 C  
HETATM    6  OXT UNL     1     -12.135   5.413  72.858  1.00  0.00    -0.172 OA 
HETATM    7  O   UNL     1      -9.991   4.692  73.072  1.00  0.00    -0.142 OA 
ENDROOT
BRANCH   4   8
HETATM    8  C   UNL     1     -10.907   8.100  72.670  1.00  0.00    -0.429 C  
BRANCH   8   9
HETATM    9  C   UNL     1     -10.114   8.183  71.388  1.00  0.00    -0.248 A  
HETATM   10  C   UNL     1      -9.039   9.069  71.261  1.00  0.00    -0.302 A  
HETATM   11  C   UNL     1      -8.346   9.171  70.048  1.00  0.00    -0.150 A  
HETATM   12  I   UNL     1      -6.816  10.619  69.954  1.00  0.00     0.018 I  
HETATM   13  C   UNL     1      -8.710   8.399  68.926  1.00  0.00    -0.136 A  
HETATM   14  C   UNL     1      -9.848   7.580  69.035  1.00  0.00    -0.170 A  
HETATM   15  C   UNL     1     -10.501   7.435  70.272  1.00  0.00    -0.229 A  
HETATM   16  I   UNL     1     -10.871   6.689  67.411  1.00  0.00    -0.340 I  
BRANCH  13  17
HETATM   17  O   UNL     1      -7.985   8.637  67.781  1.00  0.00    -0.105 OA 
BRANCH  17  18
HETATM   18  C   UNL     1      -8.497   9.358  66.728  1.00  0.00    -0.127 A  
HETATM   19  C   UNL     1      -9.432  10.326  67.107  1.00  0.00    -0.184 A  
HETATM   20  C   UNL     1     -10.152  11.020  66.135  1.00  0.00    -0.237 A  
HETATM   21  I   UNL     1     -11.575  12.412  66.766  1.00  0.00    -0.318 I  
HETATM   22  C   UNL     1      -9.938  10.750  64.780  1.00  0.00    -0.320 A  
HETATM   23  C   UNL     1      -8.938   9.844  64.406  1.00  0.00    -0.239 A  
HETATM   24  O   UNL     1     -10.711  11.343  63.818  1.00  0.00    -0.359 OA 
HETATM   25  H   UNL     1     -10.566  11.160  62.896  1.00  0.00     0.000 HD 
HETATM   26  I   UNL     1      -8.596   9.352  62.399  1.00  0.00    -0.242 I  
HETATM   27  C   UNL     1      -8.182   9.179  65.381  1.00  0.00    -0.131 A  
ENDBRANCH  17  18
ENDBRANCH  13  17
ENDBRANCH   8   9
ENDBRANCH   4   8
TORSDOF 4
ENDMDL
MODEL      172
REMARK 921   NORMALIZED FREE ENERGY PREDICTED BY IDOCK:   -3.78 KCAL/MOL
REMARK 922        TOTAL FREE ENERGY PREDICTED BY IDOCK:   -5.48 KCAL/MOL
REMARK 923 INTER-LIGAND FREE ENERGY PREDICTED BY IDOCK:   -6.49 KCAL/MOL
REMARK 924 INTRA-LIGAND FREE ENERGY PREDICTED BY IDOCK:    1.01 KCAL/MOL
REMARK 927      BINDING AFFINITY PREDICTED BY RF-SCORE:    0.00 PKD
ROOT
HETATM    1  N   UNL     1     -10.114  13.926  64.383  1.00  0.00    -0.739 NA 
HETATM    2  H1  UNL     1      -9.589  14.766  64.139  1.00  0.00     0.000 HD 
HETATM    3  H2  UNL     1     -10.266  13.341  63.563  1.00  0.00     0.000 HD 
HETATM    4  CA  UNL     1     -11.409  14.226  65.075  1.00  0.00    -0.365 C  
HETATM    5  C   UNL     1     -11.099  15.022  66.354  1.00  0.00    -0.329 C  
HETATM    6  OXT UNL     1     -11.908  15.308  67.219  1.00  0.00    -0.187 OA 
HETATM    7  O   UNL     1      -9.789  15.381  66.405  1.00  0.00    -0.251 OA 
ENDROOT
BRANCH   4   8
HETATM    8  C   UNL     1     -12.201  12.958  65.444  1.00  0.00    -0.528 C  
BRANCH   8   9
HETATM    9  C   UNL     1     -11.658  12.263  66.670  1.00  0.00    -0.438 A  
HETATM   10  C   UNL     1     -12.222  12.479  67.930  1.00  0.00     0.105 A  
HETATM   11  C   UNL     1     -11.674  11.867  69.066  1.00  0.00    -0.331 A  
HETATM   12  I   UNL     1     -12.551  12.359  70.919  1.00  0.00     0.085 I  
HETATM   13  C   UNL     1     -10.544  11.029  68.975  1.00  0.00    -0.225 A  
HETATM   14  C   UNL     1      -9.929  10.891  67.718  1.00  0.00    -0.176 A  
HETATM   15  C   UNL     1     -10.519  11.457  66.574  1.00  0.00    -0.292 A  
HETATM   16  I   UNL     1      -7.999  10.090  67.385  1.00  0.00    -0.104 I  
BRANCH  13  17
HETATM   17  O   UNL     1     -10.072  10.537  70.171  1.00  0.00    -0.063 OA 
BRANCH  17  18
HETATM   18  C   UNL     1     -10.446   9.305  70.653  1.00  0.00    -0.262 A  
HETATM   19  C   UNL     1     -11.825   9.161  70.829  1.00  0.00    -0.280 A  
HETATM   20  C   UNL     1     -12.334   8.027  71.462  1.00  0.00    -0.308 A  
HETATM   21  I   UNL     1     -14.398   7.897  71.748  1.00  0.00    -0.515 I  
HETATM   22  C   UNL     1     -11.465   7.031  71.917  1.00  0.00    -0.268 A  
HETATM   23  C   UNL     1     -10.093   7.140  71.658  1.00  0.00    -0.185 A  
HETATM   24  O   UNL     1     -11.937   5.964  72.635  1.00  0.00    -0.509 OA 
HETATM   25  H   UNL     1     -11.347   5.287  72.945  1.00  0.00     0.000 HD 
HETATM   26  I   UNL     1      -8.727   5.714  72.355  1.00  0.00    -0.128 I  
HETATM   27  C   UNL     1      -9.586   8.258  70.982  1.00  0.00    -0.197 A  
ENDBRANCH  17  18
ENDBRANCH  13  17
ENDBRANCH   8   9
ENDBRANCH   4   8
TORSDOF 4
ENDMDL
MODEL      173
REMARK 921   NORMALIZED FREE ENERGY PREDICTED BY IDOCK:   -3.75 KCAL/MOL
REMARK 922        TOTAL FREE ENERGY PREDICTED BY IDOCK:   -5.45 KCAL/MOL
REMARK 923 INTER-LIGAND FREE ENERGY PREDICTED BY IDOCK:   -5.34 KCAL/MOL
REMARK 924 INTRA-LIGAND FREE ENERGY PREDICTED BY IDOCK:   -0.11 KCAL/MOL
REMARK 927      BINDING AFFINITY PREDICTED BY RF-SCORE:    0.00 PKD
ROOT
HETATM    1  N   UNL     1     -12.786  10.784  71.791  1.00  0.00    -0.447 NA 
HETATM    2  H1  UNL     1     -13.739  11.043  71.537  1.00  0.00     0.000 HD 
HETATM    3  H2  UNL     1     -12.124  11.502  71.502  1.00  0.00     0.000 HD 
HETATM    4  CA  UNL     1     -12.384   9.441  71.260  1.00  0.00    -0.341 C  
HETATM    5  C   UNL     1     -13.363   8.391  71.814  1.00  0.00    -0.357 C  
HETATM    6  OXT UNL     1     -13.243   7.185  71.692  1.00  0.00    -0.374 OA 
HETATM    7  O   UNL     1     -14.400   8.981  72.465  1.00  0.00    -0.570 OA 
ENDROOT
BRANCH   4   8
HETATM    8  C   UNL     1     -10.946   9.049  71.644  1.00  0.00    -0.435 C  
BRANCH   8   9
HETATM    9  C   UNL     1      -9.980   9.164  70.489  1.00  0.00    -0.288 A  
HETATM   10  C   UNL     1      -8.865   8.325  70.394  1.00  0.00    -0.141 A  
HETATM   11  C   UNL     1      -7.950   8.479  69.344  1.00  0.00    -0.107 A  
HETATM   12  I   UNL     1      -6.257   7.223  69.375  1.00  0.00    -0.032 I  
HETATM   13  C   UNL     1      -8.118   9.478  68.364  1.00  0.00    -0.101 A  
HETATM   14  C   UNL     1      -9.190  10.374  68.518  1.00  0.00    -0.145 A  
HETATM   15  C   UNL     1     -10.139  10.177  69.537  1.00  0.00    -0.258 A  
HETATM   16  I   UNL     1      -9.408  12.207  67.483  1.00  0.00    -0.204 I  
BRANCH  13  17
HETATM   17  O   UNL     1      -7.119   9.559  67.421  1.00  0.00    -0.084 OA 
BRANCH  17  18
HETATM   18  C   UNL     1      -7.303   9.140  66.124  1.00  0.00    -0.095 A  
HETATM   19  C   UNL     1      -8.067  10.017  65.349  1.00  0.00    -0.143 A  
HETATM   20  C   UNL     1      -8.470   9.646  64.066  1.00  0.00    -0.185 A  
HETATM   21  I   UNL     1      -9.658  10.977  62.981  1.00  0.00    -0.332 I  
HETATM   22  C   UNL     1      -8.107   8.398  63.552  1.00  0.00    -0.143 A  
HETATM   23  C   UNL     1      -7.267   7.562  64.299  1.00  0.00    -0.079 A  
HETATM   24  O   UNL     1      -8.583   7.975  62.340  1.00  0.00    -0.385 OA 
HETATM   25  H   UNL     1      -8.336   7.126  61.991  1.00  0.00     0.000 HD 
HETATM   26  I   UNL     1      -6.725   5.657  63.616  1.00  0.00    -0.039 I  
HETATM   27  C   UNL     1      -6.825   7.953  65.570  1.00  0.00    -0.055 A  
ENDBRANCH  17  18
ENDBRANCH  13  17
ENDBRANCH   8   9
ENDBRANCH   4   8
TORSDOF 4
ENDMDL
MODEL      174
REMARK 921   NORMALIZED FREE ENERGY PREDICTED BY IDOCK:   -3.74 KCAL/MOL
REMARK 922        TOTAL FREE ENERGY PREDICTED BY IDOCK:   -5.44 KCAL/MOL
REMARK 923 INTER-LIGAND FREE ENERGY PREDICTED BY IDOCK:   -5.65 KCAL/MOL
REMARK 924 INTRA-LIGAND FREE ENERGY PREDICTED BY IDOCK:    0.20 KCAL/MOL
REMARK 927      BINDING AFFINITY PREDICTED BY RF-SCORE:    0.00 PKD
ROOT
HETATM    1  N   UNL     1     -12.060  12.005  67.007  1.00  0.00    -0.545 NA 
HETATM    2  H1  UNL     1     -13.041  11.747  67.114  1.00  0.00     0.000 HD 
HETATM    3  H2  UNL     1     -11.533  11.791  67.853  1.00  0.00     0.000 HD 
HETATM    4  CA  UNL     1     -11.871  13.436  66.606  1.00  0.00    -0.395 C  
HETATM    5  C   UNL     1     -12.606  13.665  65.274  1.00  0.00    -0.469 C  
HETATM    6  OXT UNL     1     -12.542  14.678  64.600  1.00  0.00    -0.573 OA 
HETATM    7  O   UNL     1     -13.355  12.583  64.934  1.00  0.00    -0.702 OA 
ENDROOT
BRANCH   4   8
HETATM    8  C   UNL     1     -10.390  13.825  66.444  1.00  0.00    -0.290 C  
BRANCH   8   9
HETATM    9  C   UNL     1      -9.513  12.650  66.082  1.00  0.00    -0.177 A  
HETATM   10  C   UNL     1      -9.574  12.070  64.812  1.00  0.00    -0.018 A  
HETATM   11  C   UNL     1      -8.790  10.948  64.508  1.00  0.00    -0.070 A  
HETATM   12  I   UNL     1      -9.053  10.103  62.594  1.00  0.00    -0.322 I  
HETATM   13  C   UNL     1      -7.930  10.372  65.464  1.00  0.00    -0.153 A  
HETATM   14  C   UNL     1      -7.944  10.906  66.765  1.00  0.00    -0.143 A  
HETATM   15  C   UNL     1      -8.684  12.067  67.046  1.00  0.00    -0.188 A  
HETATM   16  I   UNL     1      -7.124   9.972  68.477  1.00  0.00    -0.075 I  
BRANCH  13  17
HETATM   17  O   UNL     1      -7.260   9.241  65.056  1.00  0.00    -0.094 OA 
BRANCH  17  18
HETATM   18  C   UNL     1      -7.831   7.992  65.115  1.00  0.00    -0.116 A  
HETATM   19  C   UNL     1      -8.701   7.817  66.196  1.00  0.00    -0.177 A  
HETATM   20  C   UNL     1      -9.224   6.556  66.476  1.00  0.00    -0.157 A  
HETATM   21  I   UNL     1     -10.471   6.349  68.138  1.00  0.00    -0.394 I  
HETATM   22  C   UNL     1      -8.884   5.464  65.672  1.00  0.00    -0.153 A  
HETATM   23  C   UNL     1      -8.085   5.663  64.539  1.00  0.00    -0.131 A  
HETATM   24  O   UNL     1      -9.303   4.200  65.994  1.00  0.00    -0.142 OA 
HETATM   25  H   UNL     1      -9.071   3.457  65.448  1.00  0.00     0.000 HD 
HETATM   26  I   UNL     1      -7.492   4.066  63.320  1.00  0.00    -0.051 I  
HETATM   27  C   UNL     1      -7.594   6.938  64.233  1.00  0.00    -0.108 A  
ENDBRANCH  17  18
ENDBRANCH  13  17
ENDBRANCH   8   9
ENDBRANCH   4   8
TORSDOF 4
ENDMDL
MODEL      175
REMARK 921   NORMALIZED FREE ENERGY PREDICTED BY IDOCK:   -3.74 KCAL/MOL
REMARK 922        TOTAL FREE ENERGY PREDICTED BY IDOCK:   -5.44 KCAL/MOL
REMARK 923 INTER-LIGAND FREE ENERGY PREDICTED BY IDOCK:   -5.20 KCAL/MOL
REMARK 924 INTRA-LIGAND FREE ENERGY PREDICTED BY IDOCK:   -0.24 KCAL/MOL
REMARK 927      BINDING AFFINITY PREDICTED BY RF-SCORE:    0.00 PKD
ROOT
HETATM    1  N   UNL     1     -12.591  13.512  65.618  1.00  0.00    -0.473 NA 
HETATM    2  H1  UNL     1     -12.871  13.577  64.640  1.00  0.00     0.000 HD 
HETATM    3  H2  UNL     1     -13.368  13.202  66.200  1.00  0.00     0.000 HD 
HETATM    4  CA  UNL     1     -12.004  14.786  66.145  1.00  0.00    -0.149 C  
HETATM    5  C   UNL     1     -10.778  15.143  65.286  1.00  0.00    -0.404 C  
HETATM    6  OXT UNL     1      -9.990  16.041  65.525  1.00  0.00    -0.400 OA 
HETATM    7  O   UNL     1     -10.680  14.325  64.206  1.00  0.00    -0.220 OA 
ENDROOT
BRANCH   4   8
HETATM    8  C   UNL     1     -11.581  14.688  67.622  1.00  0.00    -0.383 C  
BRANCH   8   9
HETATM    9  C   UNL     1     -10.836  13.411  67.934  1.00  0.00    -0.263 A  
HETATM   10  C   UNL     1     -11.421  12.407  68.710  1.00  0.00    -0.350 A  
HETATM   11  C   UNL     1     -10.697  11.251  69.034  1.00  0.00    -0.217 A  
HETATM   12  I   UNL     1     -11.655   9.861  70.298  1.00  0.00    -0.242 I  
HETATM   13  C   UNL     1      -9.369  11.069  68.598  1.00  0.00    -0.194 A  
HETATM   14  C   UNL     1      -8.759  12.124  67.897  1.00  0.00    -0.176 A  
HETATM   15  C   UNL     1      -9.508  13.254  67.522  1.00  0.00    -0.220 A  
HETATM   16  I   UNL     1      -6.683  12.311  67.536  1.00  0.00    -0.123 I  
BRANCH  13  17
HETATM   17  O   UNL     1      -8.754   9.918  69.033  1.00  0.00    -0.133 OA 
BRANCH  17  18
HETATM   18  C   UNL     1      -8.669   8.793  68.247  1.00  0.00    -0.135 A  
HETATM   19  C   UNL     1      -8.422   9.063  66.897  1.00  0.00    -0.120 A  
HETATM   20  C   UNL     1      -8.472   8.034  65.958  1.00  0.00    -0.136 A  
HETATM   21  I   UNL     1      -8.151   8.511  63.951  1.00  0.00    -0.040 I  
HETATM   22  C   UNL     1      -8.766   6.729  66.365  1.00  0.00    -0.138 A  
HETATM   23  C   UNL     1      -8.924   6.451  67.728  1.00  0.00    -0.113 A  
HETATM   24  O   UNL     1      -8.924   5.728  65.444  1.00  0.00    -0.277 OA 
HETATM   25  H   UNL     1      -9.125   4.840  65.721  1.00  0.00     0.000 HD 
HETATM   26  I   UNL     1      -9.417   4.531  68.407  1.00  0.00    -0.170 I  
HETATM   27  C   UNL     1      -8.830   7.477  68.677  1.00  0.00    -0.127 A  
ENDBRANCH  17  18
ENDBRANCH  13  17
ENDBRANCH   8   9
ENDBRANCH   4   8
TORSDOF 4
ENDMDL
MODEL      176
REMARK 921   NORMALIZED FREE ENERGY PREDICTED BY IDOCK:   -3.74 KCAL/MOL
REMARK 922        TOTAL FREE ENERGY PREDICTED BY IDOCK:   -5.44 KCAL/MOL
REMARK 923 INTER-LIGAND FREE ENERGY PREDICTED BY IDOCK:   -4.60 KCAL/MOL
REMARK 924 INTRA-LIGAND FREE ENERGY PREDICTED BY IDOCK:   -0.84 KCAL/MOL
REMARK 927      BINDING AFFINITY PREDICTED BY RF-SCORE:    0.00 PKD
ROOT
HETATM    1  N   UNL     1      -8.424  11.216  63.644  1.00  0.00    -0.366 NA 
HETATM    2  H1  UNL     1      -7.869  12.061  63.507  1.00  0.00     0.000 HD 
HETATM    3  H2  UNL     1      -9.270  11.419  64.176  1.00  0.00     0.000 HD 
HETATM    4  CA  UNL     1      -7.648  10.102  64.278  1.00  0.00    -0.124 C  
HETATM    5  C   UNL     1      -6.444   9.780  63.376  1.00  0.00    -0.115 C  
HETATM    6  OXT UNL     1      -5.687   8.837  63.524  1.00  0.00    -0.074 OA 
HETATM    7  O   UNL     1      -6.321  10.692  62.376  1.00  0.00    -0.143 OA 
ENDROOT
BRANCH   4   8
HETATM    8  C   UNL     1      -8.486   8.827  64.485  1.00  0.00    -0.158 C  
BRANCH   8   9
HETATM    9  C   UNL     1      -8.439   8.321  65.907  1.00  0.00    -0.151 A  
HETATM   10  C   UNL     1      -7.878   9.091  66.929  1.00  0.00    -0.101 A  
HETATM   11  C   UNL     1      -7.797   8.585  68.233  1.00  0.00    -0.106 A  
HETATM   12  I   UNL     1      -6.832   9.803  69.660  1.00  0.00    -0.116 I  
HETATM   13  C   UNL     1      -8.265   7.295  68.551  1.00  0.00    -0.125 A  
HETATM   14  C   UNL     1      -8.743   6.493  67.500  1.00  0.00    -0.114 A  
HETATM   15  C   UNL     1      -8.881   7.028  66.207  1.00  0.00    -0.164 A  
HETATM   16  I   UNL     1      -9.069   4.405  67.607  1.00  0.00    -0.197 I  
BRANCH  13  17
HETATM   17  O   UNL     1      -8.074   6.898  69.855  1.00  0.00    -0.121 OA 
BRANCH  17  18
HETATM   18  C   UNL     1      -9.121   6.731  70.730  1.00  0.00    -0.151 A  
HETATM   19  C   UNL     1      -9.088   5.520  71.428  1.00  0.00    -0.157 A  
HETATM   20  C   UNL     1     -10.168   5.144  72.227  1.00  0.00    -0.202 A  
HETATM   21  I   UNL     1     -10.083   3.298  73.198  1.00  0.00    -0.260 I  
HETATM   22  C   UNL     1     -11.284   5.979  72.333  1.00  0.00    -0.292 A  
HETATM   23  C   UNL     1     -11.272   7.230  71.702  1.00  0.00    -0.245 A  
HETATM   24  O   UNL     1     -12.395   5.578  73.025  1.00  0.00    -0.504 OA 
HETATM   25  H   UNL     1     -13.154   6.146  73.097  1.00  0.00     0.000 HD 
HETATM   26  I   UNL     1     -12.928   8.511  71.774  1.00  0.00    -0.412 I  
HETATM   27  C   UNL     1     -10.169   7.628  70.936  1.00  0.00    -0.202 A  
ENDBRANCH  17  18
ENDBRANCH  13  17
ENDBRANCH   8   9
ENDBRANCH   4   8
TORSDOF 4
ENDMDL
MODEL      177
REMARK 921   NORMALIZED FREE ENERGY PREDICTED BY IDOCK:   -3.74 KCAL/MOL
REMARK 922        TOTAL FREE ENERGY PREDICTED BY IDOCK:   -5.43 KCAL/MOL
REMARK 923 INTER-LIGAND FREE ENERGY PREDICTED BY IDOCK:   -5.07 KCAL/MOL
REMARK 924 INTRA-LIGAND FREE ENERGY PREDICTED BY IDOCK:   -0.36 KCAL/MOL
REMARK 927      BINDING AFFINITY PREDICTED BY RF-SCORE:    0.00 PKD
ROOT
HETATM    1  N   UNL     1     -14.409  15.800  71.157  1.00  0.00    -0.535 NA 
HETATM    2  H1  UNL     1     -15.319  15.339  71.180  1.00  0.00     0.000 HD 
HETATM    3  H2  UNL     1     -14.444  16.644  70.586  1.00  0.00     0.000 HD 
HETATM    4  CA  UNL     1     -13.305  14.893  70.707  1.00  0.00    -0.293 C  
HETATM    5  C   UNL     1     -13.243  13.694  71.669  1.00  0.00    -0.367 C  
HETATM    6  OXT UNL     1     -12.374  12.841  71.673  1.00  0.00    -0.043 OA 
HETATM    7  O   UNL     1     -14.297  13.698  72.527  1.00  0.00    -0.707 OA 
ENDROOT
BRANCH   4   8
HETATM    8  C   UNL     1     -11.932  15.590  70.672  1.00  0.00    -0.416 C  
BRANCH   8   9
HETATM    9  C   UNL     1     -11.011  15.016  69.622  1.00  0.00    -0.294 A  
HETATM   10  C   UNL     1     -11.494  14.160  68.628  1.00  0.00    -0.332 A  
HETATM   11  C   UNL     1     -10.617  13.595  67.692  1.00  0.00    -0.241 A  
HETATM   12  I   UNL     1     -11.455  12.237  66.313  1.00  0.00    -0.354 I  
HETATM   13  C   UNL     1      -9.234  13.864  67.727  1.00  0.00    -0.197 A  
HETATM   14  C   UNL     1      -8.745  14.652  68.783  1.00  0.00    -0.166 A  
HETATM   15  C   UNL     1      -9.636  15.265  69.682  1.00  0.00    -0.188 A  
HETATM   16  I   UNL     1      -6.710  14.828  69.335  1.00  0.00    -0.168 I  
BRANCH  13  17
HETATM   17  O   UNL     1      -8.477  13.201  66.787  1.00  0.00    -0.123 OA 
BRANCH  17  18
HETATM   18  C   UNL     1      -8.054  11.906  66.971  1.00  0.00    -0.167 A  
HETATM   19  C   UNL     1      -7.631  11.277  65.796  1.00  0.00     0.251 A  
HETATM   20  C   UNL     1      -7.329   9.916  65.802  1.00  0.00    -0.111 A  
HETATM   21  I   UNL     1      -6.759   9.022  64.002  1.00  0.00    -0.092 I  
HETATM   22  C   UNL     1      -7.445   9.179  66.984  1.00  0.00    -0.091 A  
HETATM   23  C   UNL     1      -7.782   9.833  68.175  1.00  0.00    -0.082 A  
HETATM   24  O   UNL     1      -7.256   7.822  66.984  1.00  0.00    -0.085 OA 
HETATM   25  H   UNL     1      -7.335   7.321  67.788  1.00  0.00     0.000 HD 
HETATM   26  I   UNL     1      -8.025   8.786  69.972  1.00  0.00    -0.146 I  
HETATM   27  C   UNL     1      -8.042  11.210  68.179  1.00  0.00    -0.128 A  
ENDBRANCH  17  18
ENDBRANCH  13  17
ENDBRANCH   8   9
ENDBRANCH   4   8
TORSDOF 4
ENDMDL
MODEL      178
REMARK 921   NORMALIZED FREE ENERGY PREDICTED BY IDOCK:   -3.74 KCAL/MOL
REMARK 922        TOTAL FREE ENERGY PREDICTED BY IDOCK:   -5.43 KCAL/MOL
REMARK 923 INTER-LIGAND FREE ENERGY PREDICTED BY IDOCK:   -5.27 KCAL/MOL
REMARK 924 INTRA-LIGAND FREE ENERGY PREDICTED BY IDOCK:   -0.17 KCAL/MOL
REMARK 927      BINDING AFFINITY PREDICTED BY RF-SCORE:    0.00 PKD
ROOT
HETATM    1  N   UNL     1     -10.428   5.173  70.007  1.00  0.00    -0.283 NA 
HETATM    2  H1  UNL     1     -10.236   4.858  70.957  1.00  0.00     0.000 HD 
HETATM    3  H2  UNL     1      -9.772   4.759  69.346  1.00  0.00     0.000 HD 
HETATM    4  CA  UNL     1     -10.444   6.666  69.878  1.00  0.00    -0.209 C  
HETATM    5  C   UNL     1     -11.522   7.220  70.826  1.00  0.00    -0.299 C  
HETATM    6  OXT UNL     1     -11.892   8.379  70.870  1.00  0.00    -0.283 OA 
HETATM    7  O   UNL     1     -12.019   6.242  71.629  1.00  0.00    -0.305 OA 
ENDROOT
BRANCH   4   8
HETATM    8  C   UNL     1     -10.734   7.143  68.443  1.00  0.00    -0.192 C  
BRANCH   8   9
HETATM    9  C   UNL     1      -9.852   8.294  68.020  1.00  0.00    -0.201 A  
HETATM   10  C   UNL     1      -8.840   8.773  68.856  1.00  0.00    -0.137 A  
HETATM   11  C   UNL     1      -8.065   9.875  68.470  1.00  0.00    -0.101 A  
HETATM   12  I   UNL     1      -6.643  10.565  69.866  1.00  0.00    -0.127 I  
HETATM   13  C   UNL     1      -8.283  10.532  67.243  1.00  0.00    -0.119 A  
HETATM   14  C   UNL     1      -9.362  10.102  66.451  1.00  0.00    -0.169 A  
HETATM   15  C   UNL     1     -10.096   8.958  66.813  1.00  0.00    -0.350 A  
HETATM   16  I   UNL     1     -10.189  11.175  64.825  1.00  0.00    -0.392 I  
BRANCH  13  17
HETATM   17  O   UNL     1      -7.492  11.634  67.010  1.00  0.00    -0.141 OA 
BRANCH  17  18
HETATM   18  C   UNL     1      -7.824  12.884  67.476  1.00  0.00    -0.177 A  
HETATM   19  C   UNL     1      -9.125  12.973  67.981  1.00  0.00    -0.210 A  
HETATM   20  C   UNL     1      -9.654  14.213  68.336  1.00  0.00    -0.225 A  
HETATM   21  I   UNL     1     -11.623  14.286  69.029  1.00  0.00    -0.398 I  
HETATM   22  C   UNL     1      -8.883  15.370  68.192  1.00  0.00    -0.170 A  
HETATM   23  C   UNL     1      -7.551  15.263  67.771  1.00  0.00    -0.154 A  
HETATM   24  O   UNL     1      -9.421  16.605  68.435  1.00  0.00    -0.217 OA 
HETATM   25  H   UNL     1      -8.897  17.392  68.337  1.00  0.00     0.000 HD 
HETATM   26  I   UNL     1      -6.352  16.956  67.483  1.00  0.00    -0.238 I  
HETATM   27  C   UNL     1      -7.005  14.012  67.456  1.00  0.00    -0.167 A  
ENDBRANCH  17  18
ENDBRANCH  13  17
ENDBRANCH   8   9
ENDBRANCH   4   8
TORSDOF 4
ENDMDL
MODEL      179
REMARK 921   NORMALIZED FREE ENERGY PREDICTED BY IDOCK:   -3.73 KCAL/MOL
REMARK 922        TOTAL FREE ENERGY PREDICTED BY IDOCK:   -5.42 KCAL/MOL
REMARK 923 INTER-LIGAND FREE ENERGY PREDICTED BY IDOCK:   -5.75 KCAL/MOL
REMARK 924 INTRA-LIGAND FREE ENERGY PREDICTED BY IDOCK:    0.34 KCAL/MOL
REMARK 927      BINDING AFFINITY PREDICTED BY RF-SCORE:    0.00 PKD
ROOT
HETATM    1  N   UNL     1     -14.022  16.262  71.990  1.00  0.00     0.242 NA 
HETATM    2  H1  UNL     1     -14.806  16.293  72.641  1.00  0.00     0.000 HD 
HETATM    3  H2  UNL     1     -14.350  16.243  71.025  1.00  0.00     0.000 HD 
HETATM    4  CA  UNL     1     -13.083  15.125  72.259  1.00  0.00    -0.364 C  
HETATM    5  C   UNL     1     -12.548  15.270  73.694  1.00  0.00    -0.580 C  
HETATM    6  OXT UNL     1     -11.662  14.595  74.186  1.00  0.00    -0.157 OA 
HETATM    7  O   UNL     1     -13.199  16.259  74.363  1.00  0.00    -0.418 OA 
ENDROOT
BRANCH   4   8
HETATM    8  C   UNL     1     -11.899  15.078  71.276  1.00  0.00    -0.389 C  
BRANCH   8   9
HETATM    9  C   UNL     1     -11.874  13.816  70.448  1.00  0.00    -0.323 A  
HETATM   10  C   UNL     1     -12.220  12.581  71.005  1.00  0.00    -0.198 A  
HETATM   11  C   UNL     1     -12.142  11.411  70.237  1.00  0.00    -0.374 A  
HETATM   12  I   UNL     1     -12.587   9.602  71.225  1.00  0.00    -0.441 I  
HETATM   13  C   UNL     1     -11.712  11.441  68.895  1.00  0.00    -0.343 A  
HETATM   14  C   UNL     1     -11.280  12.672  68.372  1.00  0.00    -0.279 A  
HETATM   15  C   UNL     1     -11.418  13.851  69.126  1.00  0.00    -0.345 A  
HETATM   16  I   UNL     1     -10.175  12.920  66.584  1.00  0.00    -0.274 I  
BRANCH  13  17
HETATM   17  O   UNL     1     -11.627  10.217  68.272  1.00  0.00    -0.193 OA 
BRANCH  17  18
HETATM   18  C   UNL     1     -10.527   9.403  68.407  1.00  0.00    -0.218 A  
HETATM   19  C   UNL     1     -10.038   8.906  67.195  1.00  0.00    -0.316 A  
HETATM   20  C   UNL     1      -9.031   7.942  67.191  1.00  0.00    -0.129 A  
HETATM   21  I   UNL     1      -8.384   7.198  65.350  1.00  0.00     0.022 I  
HETATM   22  C   UNL     1      -8.506   7.472  68.398  1.00  0.00    -0.125 A  
HETATM   23  C   UNL     1      -8.938   8.038  69.605  1.00  0.00    -0.145 A  
HETATM   24  O   UNL     1      -7.595   6.450  68.416  1.00  0.00    -0.096 OA 
HETATM   25  H   UNL     1      -7.238   6.131  69.237  1.00  0.00     0.000 HD 
HETATM   26  I   UNL     1      -8.235   7.349  71.454  1.00  0.00    -0.114 I  
HETATM   27  C   UNL     1      -9.918   9.039  69.608  1.00  0.00    -0.196 A  
ENDBRANCH  17  18
ENDBRANCH  13  17
ENDBRANCH   8   9
ENDBRANCH   4   8
TORSDOF 4
ENDMDL
MODEL      180
REMARK 921   NORMALIZED FREE ENERGY PREDICTED BY IDOCK:   -3.73 KCAL/MOL
REMARK 922        TOTAL FREE ENERGY PREDICTED BY IDOCK:   -5.42 KCAL/MOL
REMARK 923 INTER-LIGAND FREE ENERGY PREDICTED BY IDOCK:   -4.81 KCAL/MOL
REMARK 924 INTRA-LIGAND FREE ENERGY PREDICTED BY IDOCK:   -0.61 KCAL/MOL
REMARK 927      BINDING AFFINITY PREDICTED BY RF-SCORE:    0.00 PKD
ROOT
HETATM    1  N   UNL     1      -6.801  16.792  69.059  1.00  0.00    -0.206 NA 
HETATM    2  H1  UNL     1      -5.877  17.216  68.981  1.00  0.00     0.000 HD 
HETATM    3  H2  UNL     1      -6.785  15.996  69.696  1.00  0.00     0.000 HD 
HETATM    4  CA  UNL     1      -7.379  16.403  67.732  1.00  0.00    -0.136 C  
HETATM    5  C   UNL     1      -7.469  17.665  66.857  1.00  0.00    -0.199 C  
HETATM    6  OXT UNL     1      -8.019  17.730  65.772  1.00  0.00    -0.544 OA 
HETATM    7  O   UNL     1      -6.847  18.719  67.448  1.00  0.00    -0.202 OA 
ENDROOT
BRANCH   4   8
HETATM    8  C   UNL     1      -8.775  15.763  67.849  1.00  0.00    -0.170 C  
BRANCH   8   9
HETATM    9  C   UNL     1      -8.793  14.316  67.419  1.00  0.00    -0.211 A  
HETATM   10  C   UNL     1      -7.634  13.536  67.461  1.00  0.00    -0.176 A  
HETATM   11  C   UNL     1      -7.656  12.209  67.010  1.00  0.00    -0.093 A  
HETATM   12  I   UNL     1      -5.818  11.175  67.027  1.00  0.00    -0.122 I  
HETATM   13  C   UNL     1      -8.833  11.627  66.497  1.00  0.00    -0.188 A  
HETATM   14  C   UNL     1      -9.969  12.446  66.373  1.00  0.00    -0.242 A  
HETATM   15  C   UNL     1      -9.958  13.756  66.884  1.00  0.00    -0.264 A  
HETATM   16  I   UNL     1     -11.692  11.980  65.237  1.00  0.00     0.002 I  
BRANCH  13  17
HETATM   17  O   UNL     1      -8.705  10.337  66.035  1.00  0.00    -0.143 OA 
BRANCH  17  18
HETATM   18  C   UNL     1      -9.314   9.274  66.659  1.00  0.00    -0.170 A  
HETATM   19  C   UNL     1      -9.687   9.531  67.982  1.00  0.00    -0.168 A  
HETATM   20  C   UNL     1     -10.165   8.498  68.787  1.00  0.00    -0.200 A  
HETATM   21  I   UNL     1     -10.651   8.935  70.770  1.00  0.00    -0.370 I  
HETATM   22  C   UNL     1     -10.276   7.204  68.271  1.00  0.00    -0.184 A  
HETATM   23  C   UNL     1      -9.986   6.971  66.921  1.00  0.00    -0.217 A  
HETATM   24  O   UNL     1     -10.642   6.158  69.076  1.00  0.00    -0.217 OA 
HETATM   25  H   UNL     1     -10.717   5.278  68.726  1.00  0.00     0.000 HD 
HETATM   26  I   UNL     1     -10.079   5.050  66.093  1.00  0.00    -0.228 I  
HETATM   27  C   UNL     1      -9.547   8.018  66.099  1.00  0.00    -0.159 A  
ENDBRANCH  17  18
ENDBRANCH  13  17
ENDBRANCH   8   9
ENDBRANCH   4   8
TORSDOF 4
ENDMDL
MODEL      181
REMARK 921   NORMALIZED FREE ENERGY PREDICTED BY IDOCK:   -3.72 KCAL/MOL
REMARK 922        TOTAL FREE ENERGY PREDICTED BY IDOCK:   -5.41 KCAL/MOL
REMARK 923 INTER-LIGAND FREE ENERGY PREDICTED BY IDOCK:   -4.91 KCAL/MOL
REMARK 924 INTRA-LIGAND FREE ENERGY PREDICTED BY IDOCK:   -0.50 KCAL/MOL
REMARK 927      BINDING AFFINITY PREDICTED BY RF-SCORE:    0.00 PKD
ROOT
HETATM    1  N   UNL     1      -9.504   5.034  62.907  1.00  0.00    -0.348 NA 
HETATM    2  H1  UNL     1     -10.139   4.952  62.113  1.00  0.00     0.000 HD 
HETATM    3  H2  UNL     1      -8.775   5.722  62.721  1.00  0.00     0.000 HD 
HETATM    4  CA  UNL     1      -8.907   3.721  63.316  1.00  0.00    -0.100 C  
HETATM    5  C   UNL     1     -10.054   2.762  63.678  1.00  0.00    -0.161 C  
HETATM    6  OXT UNL     1      -9.917   1.661  64.182  1.00  0.00    -0.118 OA 
HETATM    7  O   UNL     1     -11.262   3.298  63.360  1.00  0.00    -0.234 OA 
ENDROOT
BRANCH   4   8
HETATM    8  C   UNL     1      -7.948   3.845  64.514  1.00  0.00    -0.086 C  
BRANCH   8   9
HETATM    9  C   UNL     1      -8.122   5.138  65.273  1.00  0.00    -0.120 A  
HETATM   10  C   UNL     1      -7.302   6.241  65.018  1.00  0.00    -0.078 A  
HETATM   11  C   UNL     1      -7.443   7.417  65.767  1.00  0.00    -0.080 A  
HETATM   12  I   UNL     1      -6.074   8.968  65.356  1.00  0.00    -0.065 I  
HETATM   13  C   UNL     1      -8.401   7.523  66.795  1.00  0.00    -0.126 A  
HETATM   14  C   UNL     1      -9.158   6.379  67.106  1.00  0.00    -0.120 A  
HETATM   15  C   UNL     1      -9.056   5.224  66.311  1.00  0.00    -0.139 A  
HETATM   16  I   UNL     1     -10.310   6.118  68.861  1.00  0.00    -0.366 I  
BRANCH  13  17
HETATM   17  O   UNL     1      -8.397   8.710  67.491  1.00  0.00    -0.118 OA 
BRANCH  17  18
HETATM   18  C   UNL     1      -9.460   9.581  67.457  1.00  0.00    -0.130 A  
HETATM   19  C   UNL     1      -9.693  10.141  66.197  1.00  0.00    -0.275 A  
HETATM   20  C   UNL     1     -10.632  11.161  66.048  1.00  0.00    -0.239 A  
HETATM   21  I   UNL     1     -10.891  11.997  64.152  1.00  0.00    -0.555 I  
HETATM   22  C   UNL     1     -11.346  11.622  67.158  1.00  0.00    -0.306 A  
HETATM   23  C   UNL     1     -11.173  10.995  68.399  1.00  0.00    -0.274 A  
HETATM   24  O   UNL     1     -12.193  12.693  67.051  1.00  0.00    -0.466 OA 
HETATM   25  H   UNL     1     -12.678  13.006  67.806  1.00  0.00     0.000 HD 
HETATM   26  I   UNL     1     -12.169  11.665  70.116  1.00  0.00    -0.212 I  
HETATM   27  C   UNL     1     -10.261   9.941  68.540  1.00  0.00    -0.199 A  
ENDBRANCH  17  18
ENDBRANCH  13  17
ENDBRANCH   8   9
ENDBRANCH   4   8
TORSDOF 4
ENDMDL
MODEL      182
REMARK 921   NORMALIZED FREE ENERGY PREDICTED BY IDOCK:   -3.72 KCAL/MOL
REMARK 922        TOTAL FREE ENERGY PREDICTED BY IDOCK:   -5.41 KCAL/MOL
REMARK 923 INTER-LIGAND FREE ENERGY PREDICTED BY IDOCK:   -4.99 KCAL/MOL
REMARK 924 INTRA-LIGAND FREE ENERGY PREDICTED BY IDOCK:   -0.42 KCAL/MOL
REMARK 927      BINDING AFFINITY PREDICTED BY RF-SCORE:    0.00 PKD
ROOT
HETATM    1  N   UNL     1      -9.565  14.053  67.860  1.00  0.00    -0.215 NA 
HETATM    2  H1  UNL     1      -8.736  14.341  67.339  1.00  0.00     0.000 HD 
HETATM    3  H2  UNL     1      -9.350  13.934  68.850  1.00  0.00     0.000 HD 
HETATM    4  CA  UNL     1     -10.209  12.821  67.301  1.00  0.00    -0.232 C  
HETATM    5  C   UNL     1     -10.598  13.102  65.839  1.00  0.00    -0.280 C  
HETATM    6  OXT UNL     1     -11.263  12.364  65.135  1.00  0.00    -0.298 OA 
HETATM    7  O   UNL     1     -10.098  14.294  65.418  1.00  0.00    -0.346 OA 
ENDROOT
BRANCH   4   8
HETATM    8  C   UNL     1     -11.459  12.387  68.087  1.00  0.00    -0.370 C  
BRANCH   8   9
HETATM    9  C   UNL     1     -11.317  11.016  68.704  1.00  0.00    -0.346 A  
HETATM   10  C   UNL     1     -10.770   9.953  67.979  1.00  0.00    -0.296 A  
HETATM   11  C   UNL     1     -10.692   8.675  68.548  1.00  0.00    -0.043 A  
HETATM   12  I   UNL     1      -9.945   7.136  67.314  1.00  0.00    -0.331 I  
HETATM   13  C   UNL     1     -11.164   8.421  69.852  1.00  0.00    -0.026 A  
HETATM   14  C   UNL     1     -11.796   9.473  70.537  1.00  0.00    -0.183 A  
HETATM   15  C   UNL     1     -11.815  10.767  69.987  1.00  0.00    -0.424 A  
HETATM   16  I   UNL     1     -12.981   9.261  72.277  1.00  0.00    -0.332 I  
BRANCH  13  17
HETATM   17  O   UNL     1     -11.081   7.112  70.269  1.00  0.00    -0.259 OA 
BRANCH  17  18
HETATM   18  C   UNL     1      -9.969   6.618  70.909  1.00  0.00    -0.187 A  
HETATM   19  C   UNL     1      -8.979   7.576  71.143  1.00  0.00    -0.144 A  
HETATM   20  C   UNL     1      -7.733   7.188  71.636  1.00  0.00    -0.088 A  
HETATM   21  I   UNL     1      -6.277   8.659  71.910  1.00  0.00    -0.044 I  
HETATM   22  C   UNL     1      -7.474   5.840  71.899  1.00  0.00    -0.095 A  
HETATM   23  C   UNL     1      -8.500   4.898  71.747  1.00  0.00    -0.123 A  
HETATM   24  O   UNL     1      -6.225   5.428  72.280  1.00  0.00    -0.032 OA 
HETATM   25  H   UNL     1      -6.049   4.511  72.459  1.00  0.00     0.000 HD 
HETATM   26  I   UNL     1      -8.170   2.855  72.073  1.00  0.00    -0.078 I  
HETATM   27  C   UNL     1      -9.765   5.293  71.294  1.00  0.00    -0.222 A  
ENDBRANCH  17  18
ENDBRANCH  13  17
ENDBRANCH   8   9
ENDBRANCH   4   8
TORSDOF 4
ENDMDL
MODEL      183
REMARK 921   NORMALIZED FREE ENERGY PREDICTED BY IDOCK:   -3.69 KCAL/MOL
REMARK 922        TOTAL FREE ENERGY PREDICTED BY IDOCK:   -5.38 KCAL/MOL
REMARK 923 INTER-LIGAND FREE ENERGY PREDICTED BY IDOCK:   -4.66 KCAL/MOL
REMARK 924 INTRA-LIGAND FREE ENERGY PREDICTED BY IDOCK:   -0.72 KCAL/MOL
REMARK 927      BINDING AFFINITY PREDICTED BY RF-SCORE:    0.00 PKD
ROOT
HETATM    1  N   UNL     1     -10.647  15.828  66.044  1.00  0.00    -0.321 NA 
HETATM    2  H1  UNL     1     -11.648  16.015  65.988  1.00  0.00     0.000 HD 
HETATM    3  H2  UNL     1     -10.258  15.654  65.118  1.00  0.00     0.000 HD 
HETATM    4  CA  UNL     1     -10.314  14.709  66.984  1.00  0.00    -0.263 C  
HETATM    5  C   UNL     1     -10.841  15.079  68.381  1.00  0.00    -0.256 C  
HETATM    6  OXT UNL     1     -10.619  14.457  69.404  1.00  0.00    -0.212 OA 
HETATM    7  O   UNL     1     -11.602  16.204  68.336  1.00  0.00    -0.355 OA 
ENDROOT
BRANCH   4   8
HETATM    8  C   UNL     1      -8.803  14.425  67.067  1.00  0.00    -0.256 C  
BRANCH   8   9
HETATM    9  C   UNL     1      -8.495  12.978  67.371  1.00  0.00    -0.200 A  
HETATM   10  C   UNL     1      -7.677  12.626  68.449  1.00  0.00    -0.133 A  
HETATM   11  C   UNL     1      -7.359  11.282  68.687  1.00  0.00    -0.109 A  
HETATM   12  I   UNL     1      -6.032  10.893  70.279  1.00  0.00    -0.079 I  
HETATM   13  C   UNL     1      -7.842  10.254  67.852  1.00  0.00    -0.101 A  
HETATM   14  C   UNL     1      -8.586  10.625  66.719  1.00  0.00    -0.129 A  
HETATM   15  C   UNL     1      -8.954  11.968  66.520  1.00  0.00    -0.193 A  
HETATM   16  I   UNL     1      -9.031   9.361  65.081  1.00  0.00    -0.212 I  
BRANCH  13  17
HETATM   17  O   UNL     1      -7.409   8.985  68.161  1.00  0.00    -0.081 OA 
BRANCH  17  18
HETATM   18  C   UNL     1      -8.267   8.009  68.611  1.00  0.00    -0.126 A  
HETATM   19  C   UNL     1      -9.199   8.464  69.549  1.00  0.00    -0.154 A  
HETATM   20  C   UNL     1     -10.024   7.555  70.211  1.00  0.00    -0.192 A  
HETATM   21  I   UNL     1     -11.354   8.291  71.643  1.00  0.00    -0.420 I  
HETATM   22  C   UNL     1      -9.923   6.189  69.935  1.00  0.00    -0.172 A  
HETATM   23  C   UNL     1      -9.050   5.750  68.931  1.00  0.00    -0.115 A  
HETATM   24  O   UNL     1     -10.648   5.274  70.652  1.00  0.00    -0.253 OA 
HETATM   25  H   UNL     1     -10.579   4.345  70.464  1.00  0.00     0.000 HD 
HETATM   26  I   UNL     1      -8.808   3.715  68.499  1.00  0.00    -0.211 I  
HETATM   27  C   UNL     1      -8.253   6.667  68.234  1.00  0.00    -0.114 A  
ENDBRANCH  17  18
ENDBRANCH  13  17
ENDBRANCH   8   9
ENDBRANCH   4   8
TORSDOF 4
ENDMDL
MODEL      184
REMARK 921   NORMALIZED FREE ENERGY PREDICTED BY IDOCK:   -3.69 KCAL/MOL
REMARK 922        TOTAL FREE ENERGY PREDICTED BY IDOCK:   -5.37 KCAL/MOL
REMARK 923 INTER-LIGAND FREE ENERGY PREDICTED BY IDOCK:   -5.79 KCAL/MOL
REMARK 924 INTRA-LIGAND FREE ENERGY PREDICTED BY IDOCK:    0.42 KCAL/MOL
REMARK 927      BINDING AFFINITY PREDICTED BY RF-SCORE:    0.00 PKD
ROOT
HETATM    1  N   UNL     1     -12.865  13.631  65.555  1.00  0.00    -0.627 NA 
HETATM    2  H1  UNL     1     -13.674  13.805  64.958  1.00  0.00     0.000 HD 
HETATM    3  H2  UNL     1     -12.877  14.240  66.372  1.00  0.00     0.000 HD 
HETATM    4  CA  UNL     1     -11.563  13.745  64.822  1.00  0.00    -0.362 C  
HETATM    5  C   UNL     1     -11.571  12.731  63.665  1.00  0.00    -0.506 C  
HETATM    6  OXT UNL     1     -10.616  12.466  62.956  1.00  0.00    -0.207 OA 
HETATM    7  O   UNL     1     -12.795  12.159  63.521  1.00  0.00    -0.768 OA 
ENDROOT
BRANCH   4   8
HETATM    8  C   UNL     1     -10.342  13.482  65.721  1.00  0.00    -0.296 C  
BRANCH   8   9
HETATM    9  C   UNL     1     -10.385  12.127  66.387  1.00  0.00    -0.246 A  
HETATM   10  C   UNL     1     -10.979  11.959  67.641  1.00  0.00    -0.286 A  
HETATM   11  C   UNL     1     -10.965  10.705  68.268  1.00  0.00    -0.263 A  
HETATM   12  I   UNL     1     -11.800  10.608  70.202  1.00  0.00    -0.456 I  
HETATM   13  C   UNL     1     -10.353   9.589  67.664  1.00  0.00    -0.244 A  
HETATM   14  C   UNL     1      -9.679   9.789  66.447  1.00  0.00    -0.216 A  
HETATM   15  C   UNL     1      -9.749  11.032  65.794  1.00  0.00    -0.268 A  
HETATM   16  I   UNL     1      -8.312   8.433  65.570  1.00  0.00    -0.172 I  
BRANCH  13  17
HETATM   17  O   UNL     1     -10.359   8.432  68.410  1.00  0.00    -0.206 OA 
BRANCH  17  18
HETATM   18  C   UNL     1      -9.208   7.733  68.684  1.00  0.00    -0.138 A  
HETATM   19  C   UNL     1      -8.191   8.513  69.241  1.00  0.00    -0.115 A  
HETATM   20  C   UNL     1      -6.916   7.976  69.420  1.00  0.00    -0.055 A  
HETATM   21  I   UNL     1      -5.425   9.210  70.203  1.00  0.00    -0.029 I  
HETATM   22  C   UNL     1      -6.655   6.655  69.046  1.00  0.00    -0.044 A  
HETATM   23  C   UNL     1      -7.701   5.852  68.572  1.00  0.00    -0.094 A  
HETATM   24  O   UNL     1      -5.386   6.146  69.114  1.00  0.00    -0.004 OA 
HETATM   25  H   UNL     1      -5.208   5.247  68.859  1.00  0.00     0.000 HD 
HETATM   26  I   UNL     1      -7.373   3.881  67.943  1.00  0.00    -0.067 I  
HETATM   27  C   UNL     1      -8.992   6.378  68.434  1.00  0.00    -0.120 A  
ENDBRANCH  17  18
ENDBRANCH  13  17
ENDBRANCH   8   9
ENDBRANCH   4   8
TORSDOF 4
ENDMDL
MODEL      185
REMARK 921   NORMALIZED FREE ENERGY PREDICTED BY IDOCK:   -3.69 KCAL/MOL
REMARK 922        TOTAL FREE ENERGY PREDICTED BY IDOCK:   -5.37 KCAL/MOL
REMARK 923 INTER-LIGAND FREE ENERGY PREDICTED BY IDOCK:   -5.68 KCAL/MOL
REMARK 924 INTRA-LIGAND FREE ENERGY PREDICTED BY IDOCK:    0.31 KCAL/MOL
REMARK 927      BINDING AFFINITY PREDICTED BY RF-SCORE:    0.00 PKD
ROOT
HETATM    1  N   UNL     1      -8.156   6.614  71.758  1.00  0.00    -0.103 NA 
HETATM    2  H1  UNL     1      -8.519   5.905  72.395  1.00  0.00     0.000 HD 
HETATM    3  H2  UNL     1      -8.257   7.547  72.156  1.00  0.00     0.000 HD 
HETATM    4  CA  UNL     1      -8.771   6.544  70.393  1.00  0.00    -0.147 C  
HETATM    5  C   UNL     1      -8.495   5.147  69.810  1.00  0.00    -0.096 C  
HETATM    6  OXT UNL     1      -8.736   4.802  68.667  1.00  0.00    -0.095 OA 
HETATM    7  O   UNL     1      -7.945   4.326  70.743  1.00  0.00    -0.058 OA 
ENDROOT
BRANCH   4   8
HETATM    8  C   UNL     1      -8.223   7.615  69.432  1.00  0.00    -0.129 C  
BRANCH   8   9
HETATM    9  C   UNL     1      -9.298   8.536  68.906  1.00  0.00    -0.146 A  
HETATM   10  C   UNL     1      -9.200   9.106  67.634  1.00  0.00    -0.143 A  
HETATM   11  C   UNL     1     -10.181  10.000  67.182  1.00  0.00    -0.228 A  
HETATM   12  I   UNL     1      -9.862  10.872  65.288  1.00  0.00    -0.391 I  
HETATM   13  C   UNL     1     -11.281  10.354  67.989  1.00  0.00    -0.272 A  
HETATM   14  C   UNL     1     -11.322   9.847  69.299  1.00  0.00    -0.067 A  
HETATM   15  C   UNL     1     -10.370   8.904  69.726  1.00  0.00    -0.213 A  
HETATM   16  I   UNL     1     -12.577  10.562  70.846  1.00  0.00    -0.508 I  
BRANCH  13  17
HETATM   17  O   UNL     1     -12.140  11.283  67.448  1.00  0.00    -0.450 OA 
BRANCH  17  18
HETATM   18  C   UNL     1     -11.988  12.632  67.666  1.00  0.00    -0.247 A  
HETATM   19  C   UNL     1     -11.749  13.371  66.504  1.00  0.00    -0.415 A  
HETATM   20  C   UNL     1     -11.416  14.722  66.590  1.00  0.00    -0.335 A  
HETATM   21  I   UNL     1     -11.014  15.755  64.820  1.00  0.00     0.159 I  
HETATM   22  C   UNL     1     -11.323  15.341  67.839  1.00  0.00    -0.334 A  
HETATM   23  C   UNL     1     -11.651  14.618  68.994  1.00  0.00    -0.298 A  
HETATM   24  O   UNL     1     -10.893  16.636  67.949  1.00  0.00    -0.347 OA 
HETATM   25  H   UNL     1     -10.830  17.058  68.798  1.00  0.00     0.000 HD 
HETATM   26  I   UNL     1     -11.486  15.465  70.902  1.00  0.00    -0.480 I  
HETATM   27  C   UNL     1     -12.030  13.273  68.904  1.00  0.00    -0.336 A  
ENDBRANCH  17  18
ENDBRANCH  13  17
ENDBRANCH   8   9
ENDBRANCH   4   8
TORSDOF 4
ENDMDL
MODEL      186
REMARK 921   NORMALIZED FREE ENERGY PREDICTED BY IDOCK:   -3.68 KCAL/MOL
REMARK 922        TOTAL FREE ENERGY PREDICTED BY IDOCK:   -5.36 KCAL/MOL
REMARK 923 INTER-LIGAND FREE ENERGY PREDICTED BY IDOCK:   -4.69 KCAL/MOL
REMARK 924 INTRA-LIGAND FREE ENERGY PREDICTED BY IDOCK:   -0.67 KCAL/MOL
REMARK 927      BINDING AFFINITY PREDICTED BY RF-SCORE:    0.00 PKD
ROOT
HETATM    1  N   UNL     1      -8.787   5.442  62.388  1.00  0.00    -0.286 NA 
HETATM    2  H1  UNL     1      -9.288   5.455  61.500  1.00  0.00     0.000 HD 
HETATM    3  H2  UNL     1      -8.027   6.121  62.387  1.00  0.00     0.000 HD 
HETATM    4  CA  UNL     1      -8.285   4.078  62.755  1.00  0.00    -0.081 C  
HETATM    5  C   UNL     1      -9.491   3.126  62.836  1.00  0.00    -0.093 C  
HETATM    6  OXT UNL     1      -9.455   1.979  63.244  1.00  0.00    -0.092 OA 
HETATM    7  O   UNL     1     -10.624   3.729  62.386  1.00  0.00    -0.181 OA 
ENDROOT
BRANCH   4   8
HETATM    8  C   UNL     1      -7.528   4.057  64.095  1.00  0.00    -0.070 C  
BRANCH   8   9
HETATM    9  C   UNL     1      -7.777   5.292  64.928  1.00  0.00    -0.087 A  
HETATM   10  C   UNL     1      -6.822   6.309  65.013  1.00  0.00    -0.051 A  
HETATM   11  C   UNL     1      -7.047   7.425  65.831  1.00  0.00    -0.065 A  
HETATM   12  I   UNL     1      -5.484   8.836  65.955  1.00  0.00    -0.038 I  
HETATM   13  C   UNL     1      -8.227   7.552  66.592  1.00  0.00    -0.125 A  
HETATM   14  C   UNL     1      -9.138   6.482  66.571  1.00  0.00    -0.152 A  
HETATM   15  C   UNL     1      -8.937   5.395  65.702  1.00  0.00    -0.160 A  
HETATM   16  I   UNL     1     -10.728   6.205  67.941  1.00  0.00    -0.315 I  
BRANCH  13  17
HETATM   17  O   UNL     1      -8.297   8.666  67.397  1.00  0.00    -0.114 OA 
BRANCH  17  18
HETATM   18  C   UNL     1      -9.140   9.716  67.118  1.00  0.00    -0.134 A  
HETATM   19  C   UNL     1      -9.883  10.153  68.219  1.00  0.00    -0.162 A  
HETATM   20  C   UNL     1     -10.893  11.099  68.050  1.00  0.00    -0.225 A  
HETATM   21  I   UNL     1     -12.005  11.668  69.723  1.00  0.00    -0.306 I  
HETATM   22  C   UNL     1     -11.162  11.616  66.779  1.00  0.00    -0.308 A  
HETATM   23  C   UNL     1     -10.355  11.241  65.697  1.00  0.00    -0.256 A  
HETATM   24  O   UNL     1     -12.218  12.463  66.577  1.00  0.00    -0.586 OA 
HETATM   25  H   UNL     1     -12.401  12.814  65.713  1.00  0.00     0.000 HD 
HETATM   26  I   UNL     1     -10.731  11.933  63.756  1.00  0.00    -0.580 I  
HETATM   27  C   UNL     1      -9.311  10.323  65.875  1.00  0.00    -0.226 A  
ENDBRANCH  17  18
ENDBRANCH  13  17
ENDBRANCH   8   9
ENDBRANCH   4   8
TORSDOF 4
ENDMDL
MODEL      187
REMARK 921   NORMALIZED FREE ENERGY PREDICTED BY IDOCK:   -3.67 KCAL/MOL
REMARK 922        TOTAL FREE ENERGY PREDICTED BY IDOCK:   -5.35 KCAL/MOL
REMARK 923 INTER-LIGAND FREE ENERGY PREDICTED BY IDOCK:   -4.98 KCAL/MOL
REMARK 924 INTRA-LIGAND FREE ENERGY PREDICTED BY IDOCK:   -0.38 KCAL/MOL
REMARK 927      BINDING AFFINITY PREDICTED BY RF-SCORE:    0.00 PKD
ROOT
HETATM    1  N   UNL     1     -11.662   6.520  70.440  1.00  0.00    -0.408 NA 
HETATM    2  H1  UNL     1     -12.154   5.712  70.060  1.00  0.00     0.000 HD 
HETATM    3  H2  UNL     1     -12.316   7.264  70.682  1.00  0.00     0.000 HD 
HETATM    4  CA  UNL     1     -10.585   7.029  69.531  1.00  0.00    -0.234 C  
HETATM    5  C   UNL     1      -9.581   5.890  69.286  1.00  0.00    -0.141 C  
HETATM    6  OXT UNL     1      -8.516   6.003  68.706  1.00  0.00    -0.112 OA 
HETATM    7  O   UNL     1     -10.035   4.716  69.801  1.00  0.00    -0.217 OA 
ENDROOT
BRANCH   4   8
HETATM    8  C   UNL     1      -9.842   8.250  70.104  1.00  0.00    -0.184 C  
BRANCH   8   9
HETATM    9  C   UNL     1      -9.730   9.385  69.115  1.00  0.00    -0.165 A  
HETATM   10  C   UNL     1      -8.689   9.430  68.183  1.00  0.00    -0.124 A  
HETATM   11  C   UNL     1      -8.571  10.517  67.306  1.00  0.00    -0.122 A  
HETATM   12  I   UNL     1      -6.897  10.516  66.023  1.00  0.00    -0.074 I  
HETATM   13  C   UNL     1      -9.482  11.591  67.340  1.00  0.00    -0.165 A  
HETATM   14  C   UNL     1     -10.470  11.581  68.340  1.00  0.00    -0.207 A  
HETATM   15  C   UNL     1     -10.623  10.461  69.175  1.00  0.00    -0.255 A  
HETATM   16  I   UNL     1     -11.652  13.243  68.906  1.00  0.00    -0.390 I  
BRANCH  13  17
HETATM   17  O   UNL     1      -9.220  12.621  66.465  1.00  0.00    -0.233 OA 
BRANCH  17  18
HETATM   18  C   UNL     1      -8.835  13.867  66.898  1.00  0.00    -0.193 A  
HETATM   19  C   UNL     1      -7.836  13.844  67.876  1.00  0.00    -0.161 A  
HETATM   20  C   UNL     1      -7.462  15.021  68.523  1.00  0.00    -0.119 A  
HETATM   21  I   UNL     1      -6.005  14.909  70.015  1.00  0.00    -0.151 I  
HETATM   22  C   UNL     1      -8.084  16.228  68.193  1.00  0.00    -0.158 A  
HETATM   23  C   UNL     1      -9.020  16.260  67.151  1.00  0.00    -0.195 A  
HETATM   24  O   UNL     1      -7.807  17.373  68.891  1.00  0.00    -0.256 OA 
HETATM   25  H   UNL     1      -8.231  18.194  68.667  1.00  0.00     0.000 HD 
HETATM   26  I   UNL     1     -10.030  18.021  66.635  1.00  0.00    -0.403 I  
HETATM   27  C   UNL     1      -9.363  15.085  66.470  1.00  0.00    -0.309 A  
ENDBRANCH  17  18
ENDBRANCH  13  17
ENDBRANCH   8   9
ENDBRANCH   4   8
TORSDOF 4
ENDMDL
MODEL      188
REMARK 921   NORMALIZED FREE ENERGY PREDICTED BY IDOCK:   -3.65 KCAL/MOL
REMARK 922        TOTAL FREE ENERGY PREDICTED BY IDOCK:   -5.33 KCAL/MOL
REMARK 923 INTER-LIGAND FREE ENERGY PREDICTED BY IDOCK:   -6.12 KCAL/MOL
REMARK 924 INTRA-LIGAND FREE ENERGY PREDICTED BY IDOCK:    0.79 KCAL/MOL
REMARK 927      BINDING AFFINITY PREDICTED BY RF-SCORE:    0.00 PKD
ROOT
HETATM    1  N   UNL     1     -13.255  11.938  64.568  1.00  0.00    -0.263 NA 
HETATM    2  H1  UNL     1     -13.320  10.920  64.557  1.00  0.00     0.000 HD 
HETATM    3  H2  UNL     1     -14.181  12.362  64.541  1.00  0.00     0.000 HD 
HETATM    4  CA  UNL     1     -12.386  12.480  63.474  1.00  0.00    -0.525 C  
HETATM    5  C   UNL     1     -10.979  11.879  63.631  1.00  0.00    -0.440 C  
HETATM    6  OXT UNL     1      -9.996  12.212  62.994  1.00  0.00    -0.352 OA 
HETATM    7  O   UNL     1     -10.964  10.908  64.583  1.00  0.00    -0.195 OA 
ENDROOT
BRANCH   4   8
HETATM    8  C   UNL     1     -12.288  14.017  63.490  1.00  0.00     0.034 C  
BRANCH   8   9
HETATM    9  C   UNL     1     -11.754  14.556  64.796  1.00  0.00    -0.425 A  
HETATM   10  C   UNL     1     -11.882  13.828  65.982  1.00  0.00    -0.415 A  
HETATM   11  C   UNL     1     -11.427  14.365  67.195  1.00  0.00    -0.362 A  
HETATM   12  I   UNL     1     -11.775  13.213  68.926  1.00  0.00    -0.319 I  
HETATM   13  C   UNL     1     -10.840  15.645  67.257  1.00  0.00    -0.298 A  
HETATM   14  C   UNL     1     -10.799  16.405  66.075  1.00  0.00    -0.093 A  
HETATM   15  C   UNL     1     -11.199  15.839  64.853  1.00  0.00    -0.358 A  
HETATM   16  I   UNL     1     -10.408  18.483  65.973  1.00  0.00     0.032 I  
BRANCH  13  17
HETATM   17  O   UNL     1     -10.489  16.076  68.516  1.00  0.00    -0.239 OA 
BRANCH  17  18
HETATM   18  C   UNL     1      -9.180  16.298  68.874  1.00  0.00    -0.249 A  
HETATM   19  C   UNL     1      -8.768  17.625  68.720  1.00  0.00    -0.207 A  
HETATM   20  C   UNL     1      -7.427  17.965  68.889  1.00  0.00    -0.230 A  
HETATM   21  I   UNL     1      -6.866  19.955  68.590  1.00  0.00    -0.273 I  
HETATM   22  C   UNL     1      -6.491  16.980  69.216  1.00  0.00    -0.231 A  
HETATM   23  C   UNL     1      -6.925  15.669  69.455  1.00  0.00    -0.193 A  
HETATM   24  O   UNL     1      -5.156  17.276  69.280  1.00  0.00    -0.144 OA 
HETATM   25  H   UNL     1      -4.519  16.605  69.502  1.00  0.00     0.000 HD 
HETATM   26  I   UNL     1      -5.574  14.130  69.898  1.00  0.00    -0.133 I  
HETATM   27  C   UNL     1      -8.279  15.336  69.329  1.00  0.00    -0.244 A  
ENDBRANCH  17  18
ENDBRANCH  13  17
ENDBRANCH   8   9
ENDBRANCH   4   8
TORSDOF 4
ENDMDL
MODEL      189
REMARK 921   NORMALIZED FREE ENERGY PREDICTED BY IDOCK:   -3.65 KCAL/MOL
REMARK 922        TOTAL FREE ENERGY PREDICTED BY IDOCK:   -5.32 KCAL/MOL
REMARK 923 INTER-LIGAND FREE ENERGY PREDICTED BY IDOCK:   -4.75 KCAL/MOL
REMARK 924 INTRA-LIGAND FREE ENERGY PREDICTED BY IDOCK:   -0.57 KCAL/MOL
REMARK 927      BINDING AFFINITY PREDICTED BY RF-SCORE:    0.00 PKD
ROOT
HETATM    1  N   UNL     1      -6.939   8.099  72.838  1.00  0.00    -0.097 NA 
HETATM    2  H1  UNL     1      -7.086   8.296  73.828  1.00  0.00     0.000 HD 
HETATM    3  H2  UNL     1      -5.954   8.187  72.592  1.00  0.00     0.000 HD 
HETATM    4  CA  UNL     1      -7.792   8.942  71.940  1.00  0.00     0.086 C  
HETATM    5  C   UNL     1      -9.267   8.687  72.297  1.00  0.00    -0.227 C  
HETATM    6  OXT UNL     1     -10.224   9.106  71.671  1.00  0.00    -0.336 OA 
HETATM    7  O   UNL     1      -9.377   7.928  73.418  1.00  0.00    -0.262 OA 
ENDROOT
BRANCH   4   8
HETATM    8  C   UNL     1      -7.570   8.645  70.446  1.00  0.00    -0.075 C  
BRANCH   8   9
HETATM    9  C   UNL     1      -7.617   9.886  69.588  1.00  0.00    -0.136 A  
HETATM   10  C   UNL     1      -6.889  11.029  69.932  1.00  0.00    -0.097 A  
HETATM   11  C   UNL     1      -6.985  12.190  69.154  1.00  0.00    -0.053 A  
HETATM   12  I   UNL     1      -5.921  13.877  69.840  1.00  0.00    -0.130 I  
HETATM   13  C   UNL     1      -7.813  12.245  68.015  1.00  0.00    -0.147 A  
HETATM   14  C   UNL     1      -8.610  11.123  67.730  1.00  0.00    -0.131 A  
HETATM   15  C   UNL     1      -8.465   9.941  68.477  1.00  0.00    -0.112 A  
HETATM   16  I   UNL     1     -10.248  11.097  66.389  1.00  0.00    -0.304 I  
BRANCH  13  17
HETATM   17  O   UNL     1      -7.860  13.461  67.372  1.00  0.00    -0.161 OA 
BRANCH  17  18
HETATM   18  C   UNL     1      -8.736  14.453  67.747  1.00  0.00    -0.180 A  
HETATM   19  C   UNL     1      -8.451  15.701  67.186  1.00  0.00    -0.234 A  
HETATM   20  C   UNL     1      -9.154  16.831  67.601  1.00  0.00    -0.218 A  
HETATM   21  I   UNL     1      -8.642  18.676  66.768  1.00  0.00    -0.319 I  
HETATM   22  C   UNL     1     -10.148  16.717  68.578  1.00  0.00    -0.281 A  
HETATM   23  C   UNL     1     -10.489  15.451  69.070  1.00  0.00    -0.249 A  
HETATM   24  O   UNL     1     -10.773  17.830  69.074  1.00  0.00    -0.350 OA 
HETATM   25  H   UNL     1     -11.448  17.752  69.739  1.00  0.00     0.000 HD 
HETATM   26  I   UNL     1     -11.930  15.208  70.571  1.00  0.00    -0.508 I  
HETATM   27  C   UNL     1      -9.813  14.309  68.620  1.00  0.00    -0.228 A  
ENDBRANCH  17  18
ENDBRANCH  13  17
ENDBRANCH   8   9
ENDBRANCH   4   8
TORSDOF 4
ENDMDL
MODEL      190
REMARK 921   NORMALIZED FREE ENERGY PREDICTED BY IDOCK:   -3.64 KCAL/MOL
REMARK 922        TOTAL FREE ENERGY PREDICTED BY IDOCK:   -5.32 KCAL/MOL
REMARK 923 INTER-LIGAND FREE ENERGY PREDICTED BY IDOCK:   -4.54 KCAL/MOL
REMARK 924 INTRA-LIGAND FREE ENERGY PREDICTED BY IDOCK:   -0.78 KCAL/MOL
REMARK 927      BINDING AFFINITY PREDICTED BY RF-SCORE:    0.00 PKD
ROOT
HETATM    1  N   UNL     1     -11.559   4.171  64.784  1.00  0.00    -0.798 NA 
HETATM    2  H1  UNL     1     -11.409   3.744  63.870  1.00  0.00     0.000 HD 
HETATM    3  H2  UNL     1     -12.277   4.893  64.736  1.00  0.00     0.000 HD 
HETATM    4  CA  UNL     1     -10.299   4.709  65.391  1.00  0.00    -0.146 C  
HETATM    5  C   UNL     1      -9.296   3.551  65.528  1.00  0.00    -0.158 C  
HETATM    6  OXT UNL     1      -8.227   3.611  66.108  1.00  0.00    -0.099 OA 
HETATM    7  O   UNL     1      -9.753   2.430  64.909  1.00  0.00    -0.056 OA 
ENDROOT
BRANCH   4   8
HETATM    8  C   UNL     1     -10.524   5.355  66.771  1.00  0.00    -0.347 C  
BRANCH   8   9
HETATM    9  C   UNL     1      -9.769   6.651  66.941  1.00  0.00    -0.209 A  
HETATM   10  C   UNL     1      -9.079   7.230  65.872  1.00  0.00    -0.064 A  
HETATM   11  C   UNL     1      -8.341   8.407  66.060  1.00  0.00    -0.126 A  
HETATM   12  I   UNL     1      -7.260   9.118  64.395  1.00  0.00    -0.111 I  
HETATM   13  C   UNL     1      -8.265   9.033  67.320  1.00  0.00    -0.103 A  
HETATM   14  C   UNL     1      -8.885   8.394  68.408  1.00  0.00    -0.140 A  
HETATM   15  C   UNL     1      -9.675   7.250  68.202  1.00  0.00    -0.155 A  
HETATM   16  I   UNL     1      -8.549   8.853  70.446  1.00  0.00    -0.276 I  
BRANCH  13  17
HETATM   17  O   UNL     1      -7.461  10.148  67.381  1.00  0.00    -0.093 OA 
BRANCH  17  18
HETATM   18  C   UNL     1      -7.978  11.416  67.498  1.00  0.00    -0.127 A  
HETATM   19  C   UNL     1      -7.007  12.415  67.620  1.00  0.00    -0.132 A  
HETATM   20  C   UNL     1      -7.385  13.726  67.909  1.00  0.00    -0.153 A  
HETATM   21  I   UNL     1      -5.884  15.160  68.136  1.00  0.00    -0.148 I  
HETATM   22  C   UNL     1      -8.736  14.044  68.073  1.00  0.00    -0.180 A  
HETATM   23  C   UNL     1      -9.708  13.059  67.861  1.00  0.00    -0.218 A  
HETATM   24  O   UNL     1      -9.117  15.301  68.462  1.00  0.00    -0.178 OA 
HETATM   25  H   UNL     1     -10.036  15.518  68.574  1.00  0.00     0.000 HD 
HETATM   26  I   UNL     1     -11.747  13.450  68.140  1.00  0.00    -0.349 I  
HETATM   27  C   UNL     1      -9.332  11.751  67.527  1.00  0.00    -0.174 A  
ENDBRANCH  17  18
ENDBRANCH  13  17
ENDBRANCH   8   9
ENDBRANCH   4   8
TORSDOF 4
ENDMDL
MODEL      191
REMARK 921   NORMALIZED FREE ENERGY PREDICTED BY IDOCK:   -3.59 KCAL/MOL
REMARK 922        TOTAL FREE ENERGY PREDICTED BY IDOCK:   -5.25 KCAL/MOL
REMARK 923 INTER-LIGAND FREE ENERGY PREDICTED BY IDOCK:   -4.73 KCAL/MOL
REMARK 924 INTRA-LIGAND FREE ENERGY PREDICTED BY IDOCK:   -0.52 KCAL/MOL
REMARK 927      BINDING AFFINITY PREDICTED BY RF-SCORE:    0.00 PKD
ROOT
HETATM    1  N   UNL     1      -9.496   7.137  68.830  1.00  0.00    -0.143 NA 
HETATM    2  H1  UNL     1     -10.049   6.410  68.377  1.00  0.00     0.000 HD 
HETATM    3  H2  UNL     1     -10.093   7.777  69.354  1.00  0.00     0.000 HD 
HETATM    4  CA  UNL     1      -8.620   7.887  67.873  1.00  0.00    -0.125 C  
HETATM    5  C   UNL     1      -7.678   6.879  67.192  1.00  0.00    -0.108 C  
HETATM    6  OXT UNL     1      -6.747   7.169  66.462  1.00  0.00    -0.054 OA 
HETATM    7  O   UNL     1      -8.017   5.600  67.504  1.00  0.00    -0.101 OA 
ENDROOT
BRANCH   4   8
HETATM    8  C   UNL     1      -7.784   8.984  68.556  1.00  0.00    -0.097 C  
BRANCH   8   9
HETATM    9  C   UNL     1      -7.993  10.348  67.941  1.00  0.00    -0.102 A  
HETATM   10  C   UNL     1      -7.132  11.410  68.233  1.00  0.00    -0.078 A  
HETATM   11  C   UNL     1      -7.370  12.682  67.695  1.00  0.00    -0.139 A  
HETATM   12  I   UNL     1      -6.061  14.222  68.297  1.00  0.00    -0.160 I  
HETATM   13  C   UNL     1      -8.476  12.930  66.857  1.00  0.00    -0.086 A  
HETATM   14  C   UNL     1      -9.386  11.880  66.644  1.00  0.00    -0.205 A  
HETATM   15  C   UNL     1      -9.109  10.592  67.135  1.00  0.00    -0.154 A  
HETATM   16  I   UNL     1     -11.328  12.092  65.831  1.00  0.00    -0.329 I  
BRANCH  13  17
HETATM   17  O   UNL     1      -8.626  14.234  66.443  1.00  0.00     0.005 OA 
BRANCH  17  18
HETATM   18  C   UNL     1      -9.293  15.169  67.199  1.00  0.00    -0.212 A  
HETATM   19  C   UNL     1      -9.113  16.484  66.760  1.00  0.00    -0.262 A  
HETATM   20  C   UNL     1      -9.594  17.548  67.523  1.00  0.00    -0.265 A  
HETATM   21  I   UNL     1      -9.242  19.491  66.843  1.00  0.00    -0.521 I  
HETATM   22  C   UNL     1     -10.261  17.300  68.726  1.00  0.00    -0.353 A  
HETATM   23  C   UNL     1     -10.516  15.979  69.114  1.00  0.00    -0.251 A  
HETATM   24  O   UNL     1     -10.645  18.333  69.539  1.00  0.00    -0.261 OA 
HETATM   25  H   UNL     1     -11.099  18.164  70.357  1.00  0.00     0.000 HD 
HETATM   26  I   UNL     1     -11.464  15.531  70.928  1.00  0.00    -0.510 I  
HETATM   27  C   UNL     1     -10.072  14.909  68.326  1.00  0.00    -0.221 A  
ENDBRANCH  17  18
ENDBRANCH  13  17
ENDBRANCH   8   9
ENDBRANCH   4   8
TORSDOF 4
ENDMDL
MODEL      192
REMARK 921   NORMALIZED FREE ENERGY PREDICTED BY IDOCK:   -3.59 KCAL/MOL
REMARK 922        TOTAL FREE ENERGY PREDICTED BY IDOCK:   -5.24 KCAL/MOL
REMARK 923 INTER-LIGAND FREE ENERGY PREDICTED BY IDOCK:   -4.74 KCAL/MOL
REMARK 924 INTRA-LIGAND FREE ENERGY PREDICTED BY IDOCK:   -0.50 KCAL/MOL
REMARK 927      BINDING AFFINITY PREDICTED BY RF-SCORE:    0.00 PKD
ROOT
HETATM    1  N   UNL     1      -9.538   7.420  73.673  1.00  0.00    -0.265 NA 
HETATM    2  H1  UNL     1     -10.430   7.076  74.028  1.00  0.00     0.000 HD 
HETATM    3  H2  UNL     1      -9.462   8.429  73.795  1.00  0.00     0.000 HD 
HETATM    4  CA  UNL     1      -9.288   7.033  72.246  1.00  0.00    -0.136 C  
HETATM    5  C   UNL     1      -9.317   5.498  72.151  1.00  0.00    -0.143 C  
HETATM    6  OXT UNL     1      -9.015   4.849  71.165  1.00  0.00    -0.130 OA 
HETATM    7  O   UNL     1      -9.731   4.940  73.319  1.00  0.00    -0.136 OA 
ENDROOT
BRANCH   4   8
HETATM    8  C   UNL     1      -7.942   7.552  71.710  1.00  0.00    -0.094 C  
BRANCH   8   9
HETATM    9  C   UNL     1      -8.093   8.394  70.465  1.00  0.00    -0.107 A  
HETATM   10  C   UNL     1      -8.827   7.934  69.368  1.00  0.00    -0.145 A  
HETATM   11  C   UNL     1      -8.914   8.706  68.201  1.00  0.00    -0.141 A  
HETATM   12  I   UNL     1      -9.960   7.852  66.582  1.00  0.00    -0.122 I  
HETATM   13  C   UNL     1      -8.266   9.953  68.095  1.00  0.00    -0.109 A  
HETATM   14  C   UNL     1      -7.456  10.364  69.168  1.00  0.00    -0.112 A  
HETATM   15  C   UNL     1      -7.422   9.617  70.358  1.00  0.00    -0.168 A  
HETATM   16  I   UNL     1      -6.034  11.930  69.094  1.00  0.00    -0.099 I  
BRANCH  13  17
HETATM   17  O   UNL     1      -8.384  10.582  66.877  1.00  0.00    -0.123 OA 
BRANCH  17  18
HETATM   18  C   UNL     1      -9.348  11.531  66.635  1.00  0.00    -0.189 A  
HETATM   19  C   UNL     1      -9.631  12.345  67.736  1.00  0.00    -0.202 A  
HETATM   20  C   UNL     1     -10.697  13.241  67.688  1.00  0.00    -0.239 A  
HETATM   21  I   UNL     1     -11.103  14.387  69.386  1.00  0.00    -0.211 I  
HETATM   22  C   UNL     1     -11.484  13.331  66.536  1.00  0.00    -0.337 A  
HETATM   23  C   UNL     1     -11.142  12.578  65.406  1.00  0.00    -0.302 A  
HETATM   24  O   UNL     1     -12.599  14.126  66.510  1.00  0.00    -0.542 OA 
HETATM   25  H   UNL     1     -13.134  14.187  65.727  1.00  0.00     0.000 HD 
HETATM   26  I   UNL     1     -12.304  12.622  63.664  1.00  0.00    -0.389 I  
HETATM   27  C   UNL     1     -10.043  11.709  65.439  1.00  0.00    -0.299 A  
ENDBRANCH  17  18
ENDBRANCH  13  17
ENDBRANCH   8   9
ENDBRANCH   4   8
TORSDOF 4
ENDMDL
MODEL      193
REMARK 921   NORMALIZED FREE ENERGY PREDICTED BY IDOCK:   -3.58 KCAL/MOL
REMARK 922        TOTAL FREE ENERGY PREDICTED BY IDOCK:   -5.23 KCAL/MOL
REMARK 923 INTER-LIGAND FREE ENERGY PREDICTED BY IDOCK:   -4.90 KCAL/MOL
REMARK 924 INTRA-LIGAND FREE ENERGY PREDICTED BY IDOCK:   -0.33 KCAL/MOL
REMARK 927      BINDING AFFINITY PREDICTED BY RF-SCORE:    0.00 PKD
ROOT
HETATM    1  N   UNL     1     -11.928  13.811  67.144  1.00  0.00    -0.403 NA 
HETATM    2  H1  UNL     1     -12.791  14.340  67.014  1.00  0.00     0.000 HD 
HETATM    3  H2  UNL     1     -11.941  12.952  66.596  1.00  0.00     0.000 HD 
HETATM    4  CA  UNL     1     -11.632  13.522  68.584  1.00  0.00    -0.330 C  
HETATM    5  C   UNL     1     -11.526  14.862  69.334  1.00  0.00    -0.299 C  
HETATM    6  OXT UNL     1     -11.160  14.995  70.488  1.00  0.00    -0.257 OA 
HETATM    7  O   UNL     1     -11.902  15.899  68.540  1.00  0.00    -0.366 OA 
ENDROOT
BRANCH   4   8
HETATM    8  C   UNL     1     -10.330  12.724  68.781  1.00  0.00    -0.136 C  
BRANCH   8   9
HETATM    9  C   UNL     1     -10.565  11.235  68.875  1.00  0.00    -0.239 A  
HETATM   10  C   UNL     1     -11.115  10.662  70.025  1.00  0.00    -0.359 A  
HETATM   11  C   UNL     1     -11.279   9.273  70.116  1.00  0.00    -0.208 A  
HETATM   12  I   UNL     1     -12.020   8.528  71.944  1.00  0.00    -0.480 I  
HETATM   13  C   UNL     1     -10.891   8.418  69.065  1.00  0.00     0.009 A  
HETATM   14  C   UNL     1     -10.254   8.994  67.952  1.00  0.00    -0.221 A  
HETATM   15  C   UNL     1     -10.150  10.391  67.839  1.00  0.00    -0.200 A  
HETATM   16  I   UNL     1      -9.177   7.929  66.475  1.00  0.00    -0.234 I  
BRANCH  13  17
HETATM   17  O   UNL     1     -11.052   7.072  69.305  1.00  0.00    -0.204 OA 
BRANCH  17  18
HETATM   18  C   UNL     1      -9.982   6.222  69.452  1.00  0.00    -0.159 A  
HETATM   19  C   UNL     1      -8.956   6.737  70.250  1.00  0.00    -0.152 A  
HETATM   20  C   UNL     1      -7.743   6.057  70.355  1.00  0.00    -0.097 A  
HETATM   21  I   UNL     1      -6.230   6.907  71.516  1.00  0.00    -0.037 I  
HETATM   22  C   UNL     1      -7.553   4.857  69.664  1.00  0.00    -0.056 A  
HETATM   23  C   UNL     1      -8.614   4.302  68.938  1.00  0.00    -0.084 A  
HETATM   24  O   UNL     1      -6.334   4.232  69.669  1.00  0.00    -0.026 OA 
HETATM   25  H   UNL     1      -6.204   3.416  69.199  1.00  0.00     0.000 HD 
HETATM   26  I   UNL     1      -8.387   2.535  67.837  1.00  0.00    -0.123 I  
HETATM   27  C   UNL     1      -9.848   4.963  68.869  1.00  0.00    -0.241 A  
ENDBRANCH  17  18
ENDBRANCH  13  17
ENDBRANCH   8   9
ENDBRANCH   4   8
TORSDOF 4
ENDMDL
MODEL      194
REMARK 921   NORMALIZED FREE ENERGY PREDICTED BY IDOCK:   -3.55 KCAL/MOL
REMARK 922        TOTAL FREE ENERGY PREDICTED BY IDOCK:   -5.20 KCAL/MOL
REMARK 923 INTER-LIGAND FREE ENERGY PREDICTED BY IDOCK:   -4.96 KCAL/MOL
REMARK 924 INTRA-LIGAND FREE ENERGY PREDICTED BY IDOCK:   -0.24 KCAL/MOL
REMARK 927      BINDING AFFINITY PREDICTED BY RF-SCORE:    0.00 PKD
ROOT
HETATM    1  N   UNL     1     -10.391   5.069  70.010  1.00  0.00    -0.271 NA 
HETATM    2  H1  UNL     1     -10.215   4.791  70.975  1.00  0.00     0.000 HD 
HETATM    3  H2  UNL     1      -9.741   4.607  69.375  1.00  0.00     0.000 HD 
HETATM    4  CA  UNL     1     -10.366   6.554  69.814  1.00  0.00    -0.195 C  
HETATM    5  C   UNL     1     -11.437   7.178  70.726  1.00  0.00    -0.305 C  
HETATM    6  OXT UNL     1     -11.776   8.348  70.714  1.00  0.00    -0.276 OA 
HETATM    7  O   UNL     1     -11.967   6.251  71.567  1.00  0.00    -0.303 OA 
ENDROOT
BRANCH   4   8
HETATM    8  C   UNL     1     -10.631   6.973  68.357  1.00  0.00    -0.240 C  
BRANCH   8   9
HETATM    9  C   UNL     1      -9.830   8.185  67.941  1.00  0.00    -0.206 A  
HETATM   10  C   UNL     1      -8.798   8.677  68.745  1.00  0.00    -0.139 A  
HETATM   11  C   UNL     1      -8.099   9.833  68.370  1.00  0.00    -0.104 A  
HETATM   12  I   UNL     1      -6.639  10.533  69.720  1.00  0.00    -0.143 I  
HETATM   13  C   UNL     1      -8.416  10.532  67.187  1.00  0.00    -0.127 A  
HETATM   14  C   UNL     1      -9.515  10.082  66.434  1.00  0.00    -0.186 A  
HETATM   15  C   UNL     1     -10.171   8.888  66.781  1.00  0.00    -0.348 A  
HETATM   16  I   UNL     1     -10.480  11.182  64.906  1.00  0.00    -0.279 I  
BRANCH  13  17
HETATM   17  O   UNL     1      -7.693  11.682  66.965  1.00  0.00    -0.148 OA 
BRANCH  17  18
HETATM   18  C   UNL     1      -8.123  12.912  67.403  1.00  0.00    -0.181 A  
HETATM   19  C   UNL     1      -7.086  13.800  67.704  1.00  0.00    -0.187 A  
HETATM   20  C   UNL     1      -7.367  15.023  68.312  1.00  0.00    -0.111 A  
HETATM   21  I   UNL     1      -5.769  16.280  68.788  1.00  0.00    -0.119 I  
HETATM   22  C   UNL     1      -8.687  15.365  68.618  1.00  0.00    -0.191 A  
HETATM   23  C   UNL     1      -9.728  14.511  68.233  1.00  0.00    -0.218 A  
HETATM   24  O   UNL     1      -8.971  16.512  69.309  1.00  0.00    -0.205 OA 
HETATM   25  H   UNL     1      -9.868  16.745  69.518  1.00  0.00     0.000 HD 
HETATM   26  I   UNL     1     -11.725  14.933  68.704  1.00  0.00    -0.272 I  
HETATM   27  C   UNL     1      -9.450  13.301  67.582  1.00  0.00    -0.211 A  
ENDBRANCH  17  18
ENDBRANCH  13  17
ENDBRANCH   8   9
ENDBRANCH   4   8
TORSDOF 4
ENDMDL
MODEL      195
REMARK 921   NORMALIZED FREE ENERGY PREDICTED BY IDOCK:   -3.53 KCAL/MOL
REMARK 922        TOTAL FREE ENERGY PREDICTED BY IDOCK:   -5.18 KCAL/MOL
REMARK 923 INTER-LIGAND FREE ENERGY PREDICTED BY IDOCK:   -5.65 KCAL/MOL
REMARK 924 INTRA-LIGAND FREE ENERGY PREDICTED BY IDOCK:    0.47 KCAL/MOL
REMARK 927      BINDING AFFINITY PREDICTED BY RF-SCORE:    0.00 PKD
ROOT
HETATM    1  N   UNL     1      -8.177   4.400  68.005  1.00  0.00    -0.094 NA 
HETATM    2  H1  UNL     1      -7.399   3.748  68.100  1.00  0.00     0.000 HD 
HETATM    3  H2  UNL     1      -8.458   4.766  68.915  1.00  0.00     0.000 HD 
HETATM    4  CA  UNL     1      -9.350   3.810  67.282  1.00  0.00    -0.197 C  
HETATM    5  C   UNL     1      -8.882   3.369  65.884  1.00  0.00    -0.135 C  
HETATM    6  OXT UNL     1      -9.610   2.978  64.990  1.00  0.00    -0.146 OA 
HETATM    7  O   UNL     1      -7.531   3.468  65.764  1.00  0.00    -0.074 OA 
ENDROOT
BRANCH   4   8
HETATM    8  C   UNL     1     -10.525   4.793  67.140  1.00  0.00    -0.066 C  
BRANCH   8   9
HETATM    9  C   UNL     1     -10.133   6.222  67.432  1.00  0.00    -0.191 A  
HETATM   10  C   UNL     1     -10.532   6.853  68.614  1.00  0.00    -0.217 A  
HETATM   11  C   UNL     1     -10.202   8.195  68.845  1.00  0.00    -0.210 A  
HETATM   12  I   UNL     1     -10.955   9.059  70.616  1.00  0.00    -0.372 I  
HETATM   13  C   UNL     1      -9.473   8.946  67.902  1.00  0.00    -0.142 A  
HETATM   14  C   UNL     1      -9.156   8.331  66.678  1.00  0.00    -0.166 A  
HETATM   15  C   UNL     1      -9.434   6.968  66.477  1.00  0.00    -0.199 A  
HETATM   16  I   UNL     1      -8.491   9.339  64.941  1.00  0.00    -0.211 I  
BRANCH  13  17
HETATM   17  O   UNL     1      -9.266  10.267  68.227  1.00  0.00    -0.134 OA 
BRANCH  17  18
HETATM   18  C   UNL     1     -10.194  11.242  67.950  1.00  0.00    -0.181 A  
HETATM   19  C   UNL     1     -10.702  11.187  66.648  1.00  0.00    -0.322 A  
HETATM   20  C   UNL     1     -11.528  12.207  66.176  1.00  0.00    -0.371 A  
HETATM   21  I   UNL     1     -12.207  12.096  64.205  1.00  0.00    -0.400 I  
HETATM   22  C   UNL     1     -11.852  13.285  67.006  1.00  0.00    -0.390 A  
HETATM   23  C   UNL     1     -11.413  13.288  68.336  1.00  0.00    -0.314 A  
HETATM   24  O   UNL     1     -12.572  14.346  66.525  1.00  0.00    -0.519 OA 
HETATM   25  H   UNL     1     -12.793  15.079  67.089  1.00  0.00     0.000 HD 
HETATM   26  I   UNL     1     -11.817  14.893  69.620  1.00  0.00    -0.374 I  
HETATM   27  C   UNL     1     -10.620  12.242  68.824  1.00  0.00    -0.223 A  
ENDBRANCH  17  18
ENDBRANCH  13  17
ENDBRANCH   8   9
ENDBRANCH   4   8
TORSDOF 4
ENDMDL
MODEL      196
REMARK 921   NORMALIZED FREE ENERGY PREDICTED BY IDOCK:   -3.52 KCAL/MOL
REMARK 922        TOTAL FREE ENERGY PREDICTED BY IDOCK:   -5.17 KCAL/MOL
REMARK 923 INTER-LIGAND FREE ENERGY PREDICTED BY IDOCK:   -4.88 KCAL/MOL
REMARK 924 INTRA-LIGAND FREE ENERGY PREDICTED BY IDOCK:   -0.29 KCAL/MOL
REMARK 927      BINDING AFFINITY PREDICTED BY RF-SCORE:    0.00 PKD
ROOT
HETATM    1  N   UNL     1      -9.906   3.838  66.515  1.00  0.00    -0.399 NA 
HETATM    2  H1  UNL     1     -10.849   3.514  66.303  1.00  0.00     0.000 HD 
HETATM    3  H2  UNL     1      -9.842   4.169  67.477  1.00  0.00     0.000 HD 
HETATM    4  CA  UNL     1      -9.416   4.881  65.557  1.00  0.00    -0.145 C  
HETATM    5  C   UNL     1      -9.443   4.284  64.140  1.00  0.00    -0.134 C  
HETATM    6  OXT UNL     1      -8.981   4.814  63.145  1.00  0.00    -0.141 OA 
HETATM    7  O   UNL     1     -10.059   3.073  64.128  1.00  0.00    -0.162 OA 
ENDROOT
BRANCH   4   8
HETATM    8  C   UNL     1      -7.992   5.370  65.878  1.00  0.00    -0.106 C  
BRANCH   8   9
HETATM    9  C   UNL     1      -7.948   6.829  66.267  1.00  0.00    -0.108 A  
HETATM   10  C   UNL     1      -7.623   7.218  67.570  1.00  0.00    -0.109 A  
HETATM   11  C   UNL     1      -7.637   8.573  67.927  1.00  0.00    -0.098 A  
HETATM   12  I   UNL     1      -7.233   9.020  69.949  1.00  0.00    -0.083 I  
HETATM   13  C   UNL     1      -7.981   9.575  66.998  1.00  0.00    -0.109 A  
HETATM   14  C   UNL     1      -8.394   9.167  65.718  1.00  0.00    -0.126 A  
HETATM   15  C   UNL     1      -8.319   7.814  65.346  1.00  0.00    -0.141 A  
HETATM   16  I   UNL     1      -9.386  10.394  64.306  1.00  0.00    -0.380 I  
BRANCH  13  17
HETATM   17  O   UNL     1      -8.011  10.859  67.492  1.00  0.00    -0.112 OA 
BRANCH  17  18
HETATM   18  C   UNL     1      -9.190  11.524  67.729  1.00  0.00    -0.165 A  
HETATM   19  C   UNL     1      -9.356  12.677  66.956  1.00  0.00    -0.220 A  
HETATM   20  C   UNL     1     -10.424  13.538  67.204  1.00  0.00    -0.256 A  
HETATM   21  I   UNL     1     -10.583  15.273  66.053  1.00  0.00    -0.370 I  
HETATM   22  C   UNL     1     -11.335  13.247  68.223  1.00  0.00    -0.300 A  
HETATM   23  C   UNL     1     -11.215  12.046  68.934  1.00  0.00    -0.261 A  
HETATM   24  O   UNL     1     -12.326  14.133  68.551  1.00  0.00    -0.556 OA 
HETATM   25  H   UNL     1     -12.946  13.935  69.244  1.00  0.00     0.000 HD 
HETATM   26  I   UNL     1     -12.510  11.568  70.509  1.00  0.00    -0.185 I  
HETATM   27  C   UNL     1     -10.166  11.159  68.656  1.00  0.00    -0.216 A  
ENDBRANCH  17  18
ENDBRANCH  13  17
ENDBRANCH   8   9
ENDBRANCH   4   8
TORSDOF 4
ENDMDL
MODEL      197
REMARK 921   NORMALIZED FREE ENERGY PREDICTED BY IDOCK:   -3.51 KCAL/MOL
REMARK 922        TOTAL FREE ENERGY PREDICTED BY IDOCK:   -5.15 KCAL/MOL
REMARK 923 INTER-LIGAND FREE ENERGY PREDICTED BY IDOCK:   -4.66 KCAL/MOL
REMARK 924 INTRA-LIGAND FREE ENERGY PREDICTED BY IDOCK:   -0.48 KCAL/MOL
REMARK 927      BINDING AFFINITY PREDICTED BY RF-SCORE:    0.00 PKD
ROOT
HETATM    1  N   UNL     1      -8.321  10.859  64.005  1.00  0.00    -0.369 NA 
HETATM    2  H1  UNL     1      -8.549  10.247  63.222  1.00  0.00     0.000 HD 
HETATM    3  H2  UNL     1      -7.436  10.589  64.433  1.00  0.00     0.000 HD 
HETATM    4  CA  UNL     1      -9.412  10.927  65.030  1.00  0.00    -0.233 C  
HETATM    5  C   UNL     1     -10.690  11.436  64.341  1.00  0.00    -0.342 C  
HETATM    6  OXT UNL     1     -11.724  11.738  64.911  1.00  0.00    -0.239 OA 
HETATM    7  O   UNL     1     -10.527  11.505  62.994  1.00  0.00    -0.298 OA 
ENDROOT
BRANCH   4   8
HETATM    8  C   UNL     1      -9.069  11.851  66.213  1.00  0.00    -0.188 C  
BRANCH   8   9
HETATM    9  C   UNL     1      -8.917  11.102  67.516  1.00  0.00    -0.139 A  
HETATM   10  C   UNL     1     -10.029  10.801  68.308  1.00  0.00    -0.182 A  
HETATM   11  C   UNL     1      -9.865  10.151  69.539  1.00  0.00    -0.232 A  
HETATM   12  I   UNL     1     -11.609   9.850  70.687  1.00  0.00    -0.445 I  
HETATM   13  C   UNL     1      -8.589   9.791  70.016  1.00  0.00    -0.204 A  
HETATM   14  C   UNL     1      -7.472  10.179  69.256  1.00  0.00    -0.111 A  
HETATM   15  C   UNL     1      -7.644  10.775  67.995  1.00  0.00    -0.092 A  
HETATM   16  I   UNL     1      -5.469  10.182  69.942  1.00  0.00    -0.050 I  
BRANCH  13  17
HETATM   17  O   UNL     1      -8.563   9.210  71.264  1.00  0.00    -0.278 OA 
BRANCH  17  18
HETATM   18  C   UNL     1      -8.541   7.847  71.435  1.00  0.00    -0.123 A  
HETATM   19  C   UNL     1      -7.774   7.169  70.483  1.00  0.00    -0.094 A  
HETATM   20  C   UNL     1      -7.792   5.775  70.434  1.00  0.00    -0.104 A  
HETATM   21  I   UNL     1      -6.670   4.824  68.952  1.00  0.00    -0.052 I  
HETATM   22  C   UNL     1      -8.574   5.054  71.340  1.00  0.00    -0.126 A  
HETATM   23  C   UNL     1      -9.269   5.735  72.348  1.00  0.00    -0.143 A  
HETATM   24  O   UNL     1      -8.687   3.693  71.239  1.00  0.00    -0.078 OA 
HETATM   25  H   UNL     1      -9.219   3.202  71.855  1.00  0.00     0.000 HD 
HETATM   26  I   UNL     1     -10.501   4.725  73.707  1.00  0.00    -0.388 I  
HETATM   27  C   UNL     1      -9.216   7.133  72.425  1.00  0.00    -0.154 A  
ENDBRANCH  17  18
ENDBRANCH  13  17
ENDBRANCH   8   9
ENDBRANCH   4   8
TORSDOF 4
ENDMDL
MODEL      198
REMARK 921   NORMALIZED FREE ENERGY PREDICTED BY IDOCK:   -3.50 KCAL/MOL
REMARK 922        TOTAL FREE ENERGY PREDICTED BY IDOCK:   -5.14 KCAL/MOL
REMARK 923 INTER-LIGAND FREE ENERGY PREDICTED BY IDOCK:   -4.40 KCAL/MOL
REMARK 924 INTRA-LIGAND FREE ENERGY PREDICTED BY IDOCK:   -0.75 KCAL/MOL
REMARK 927      BINDING AFFINITY PREDICTED BY RF-SCORE:    0.00 PKD
ROOT
HETATM    1  N   UNL     1     -11.573  11.825  70.256  1.00  0.00    -0.517 NA 
HETATM    2  H1  UNL     1     -12.322  12.408  69.881  1.00  0.00     0.000 HD 
HETATM    3  H2  UNL     1     -10.807  11.745  69.589  1.00  0.00     0.000 HD 
HETATM    4  CA  UNL     1     -12.048  10.472  70.691  1.00  0.00    -0.356 C  
HETATM    5  C   UNL     1     -13.131  10.664  71.767  1.00  0.00    -0.466 C  
HETATM    6  OXT UNL     1     -13.629   9.773  72.430  1.00  0.00    -0.407 OA 
HETATM    7  O   UNL     1     -13.476  11.974  71.888  1.00  0.00    -0.392 OA 
ENDROOT
BRANCH   4   8
HETATM    8  C   UNL     1     -10.919   9.592  71.256  1.00  0.00    -0.440 C  
BRANCH   8   9
HETATM    9  C   UNL     1     -10.013   9.041  70.181  1.00  0.00    -0.216 A  
HETATM   10  C   UNL     1      -8.800   9.663  69.871  1.00  0.00    -0.240 A  
HETATM   11  C   UNL     1      -7.995   9.169  68.835  1.00  0.00    -0.099 A  
HETATM   12  I   UNL     1      -6.245  10.261  68.397  1.00  0.00    -0.047 I  
HETATM   13  C   UNL     1      -8.381   8.045  68.078  1.00  0.00    -0.126 A  
HETATM   14  C   UNL     1      -9.643   7.482  68.336  1.00  0.00    -0.150 A  
HETATM   15  C   UNL     1     -10.417   7.942  69.415  1.00  0.00    -0.222 A  
HETATM   16  I   UNL     1     -10.652   6.115  67.074  1.00  0.00    -0.372 I  
BRANCH  13  17
HETATM   17  O   UNL     1      -7.528   7.697  67.055  1.00  0.00    -0.091 OA 
BRANCH  17  18
HETATM   18  C   UNL     1      -6.807   6.528  67.070  1.00  0.00    -0.066 A  
HETATM   19  C   UNL     1      -6.534   6.013  65.799  1.00  0.00    -0.043 A  
HETATM   20  C   UNL     1      -5.953   4.753  65.664  1.00  0.00    -0.023 A  
HETATM   21  I   UNL     1      -5.625   4.017  63.738  1.00  0.00    -0.014 I  
HETATM   22  C   UNL     1      -5.639   4.002  66.801  1.00  0.00    -0.018 A  
HETATM   23  C   UNL     1      -5.832   4.560  68.071  1.00  0.00    -0.022 A  
HETATM   24  O   UNL     1      -5.169   2.722  66.686  1.00  0.00    -0.008 OA 
HETATM   25  H   UNL     1      -4.955   2.211  67.459  1.00  0.00     0.000 HD 
HETATM   26  I   UNL     1      -5.434   3.476  69.818  1.00  0.00    -0.018 I  
HETATM   27  C   UNL     1      -6.375   5.845  68.207  1.00  0.00    -0.044 A  
ENDBRANCH  17  18
ENDBRANCH  13  17
ENDBRANCH   8   9
ENDBRANCH   4   8
TORSDOF 4
ENDMDL
MODEL      199
REMARK 921   NORMALIZED FREE ENERGY PREDICTED BY IDOCK:   -3.50 KCAL/MOL
REMARK 922        TOTAL FREE ENERGY PREDICTED BY IDOCK:   -5.14 KCAL/MOL
REMARK 923 INTER-LIGAND FREE ENERGY PREDICTED BY IDOCK:   -4.37 KCAL/MOL
REMARK 924 INTRA-LIGAND FREE ENERGY PREDICTED BY IDOCK:   -0.76 KCAL/MOL
REMARK 927      BINDING AFFINITY PREDICTED BY RF-SCORE:    0.00 PKD
ROOT
HETATM    1  N   UNL     1      -8.778   6.273  68.020  1.00  0.00    -0.115 NA 
HETATM    2  H1  UNL     1      -7.989   5.636  67.914  1.00  0.00     0.000 HD 
HETATM    3  H2  UNL     1      -8.965   6.770  67.150  1.00  0.00     0.000 HD 
HETATM    4  CA  UNL     1      -8.605   7.234  69.157  1.00  0.00    -0.133 C  
HETATM    5  C   UNL     1      -8.428   6.422  70.452  1.00  0.00    -0.131 C  
HETATM    6  OXT UNL     1      -8.402   6.889  71.577  1.00  0.00    -0.113 OA 
HETATM    7  O   UNL     1      -8.299   5.095  70.186  1.00  0.00    -0.090 OA 
ENDROOT
BRANCH   4   8
HETATM    8  C   UNL     1      -9.796   8.197  69.318  1.00  0.00    -0.182 C  
BRANCH   8   9
HETATM    9  C   UNL     1      -9.533   9.558  68.718  1.00  0.00    -0.147 A  
HETATM   10  C   UNL     1     -10.305  10.039  67.656  1.00  0.00    -0.272 A  
HETATM   11  C   UNL     1     -10.016  11.282  67.077  1.00  0.00    -0.198 A  
HETATM   12  I   UNL     1     -11.186  11.844  65.415  1.00  0.00    -0.217 I  
HETATM   13  C   UNL     1      -8.945  12.075  67.536  1.00  0.00    -0.174 A  
HETATM   14  C   UNL     1      -8.119  11.542  68.542  1.00  0.00    -0.146 A  
HETATM   15  C   UNL     1      -8.450  10.324  69.161  1.00  0.00    -0.164 A  
HETATM   16  I   UNL     1      -6.216  12.293  69.083  1.00  0.00    -0.106 I  
BRANCH  13  17
HETATM   17  O   UNL     1      -8.734  13.246  66.845  1.00  0.00    -0.207 OA 
BRANCH  17  18
HETATM   18  C   UNL     1      -9.144  14.465  67.330  1.00  0.00    -0.214 A  
HETATM   19  C   UNL     1      -8.463  15.553  66.775  1.00  0.00    -0.314 A  
HETATM   20  C   UNL     1      -8.658  16.835  67.287  1.00  0.00    -0.192 A  
HETATM   21  I   UNL     1      -7.567  18.409  66.454  1.00  0.00    -0.250 I  
HETATM   22  C   UNL     1      -9.538  17.035  68.354  1.00  0.00    -0.277 A  
HETATM   23  C   UNL     1     -10.284  15.956  68.846  1.00  0.00    -0.226 A  
HETATM   24  O   UNL     1      -9.661  18.267  68.939  1.00  0.00    -0.335 OA 
HETATM   25  H   UNL     1     -10.260  18.404  69.665  1.00  0.00     0.000 HD 
HETATM   26  I   UNL     1     -11.582  16.170  70.475  1.00  0.00     0.057 I  
HETATM   27  C   UNL     1     -10.121  14.675  68.302  1.00  0.00    -0.228 A  
ENDBRANCH  17  18
ENDBRANCH  13  17
ENDBRANCH   8   9
ENDBRANCH   4   8
TORSDOF 4
ENDMDL
MODEL      200
REMARK 921   NORMALIZED FREE ENERGY PREDICTED BY IDOCK:   -3.49 KCAL/MOL
REMARK 922        TOTAL FREE ENERGY PREDICTED BY IDOCK:   -5.13 KCAL/MOL
REMARK 923 INTER-LIGAND FREE ENERGY PREDICTED BY IDOCK:   -4.92 KCAL/MOL
REMARK 924 INTRA-LIGAND FREE ENERGY PREDICTED BY IDOCK:   -0.21 KCAL/MOL
REMARK 927      BINDING AFFINITY PREDICTED BY RF-SCORE:    0.00 PKD
ROOT
HETATM    1  N   UNL     1     -12.294  14.165  67.921  1.00  0.00    -0.533 NA 
HETATM    2  H1  UNL     1     -13.232  14.244  67.530  1.00  0.00     0.000 HD 
HETATM    3  H2  UNL     1     -12.235  14.632  68.825  1.00  0.00     0.000 HD 
HETATM    4  CA  UNL     1     -11.229  14.664  66.992  1.00  0.00    -0.344 C  
HETATM    5  C   UNL     1     -11.308  13.852  65.687  1.00  0.00    -0.309 C  
HETATM    6  OXT UNL     1     -10.502  13.905  64.776  1.00  0.00    -0.408 OA 
HETATM    7  O   UNL     1     -12.409  13.054  65.671  1.00  0.00    -0.448 OA 
ENDROOT
BRANCH   4   8
HETATM    8  C   UNL     1      -9.812  14.544  67.582  1.00  0.00    -0.223 C  
BRANCH   8   9
HETATM    9  C   UNL     1      -9.364  13.111  67.743  1.00  0.00    -0.206 A  
HETATM   10  C   UNL     1     -10.111  12.202  68.497  1.00  0.00    -0.192 A  
HETATM   11  C   UNL     1      -9.654  10.889  68.680  1.00  0.00    -0.190 A  
HETATM   12  I   UNL     1     -10.819   9.650  69.927  1.00  0.00    -0.321 I  
HETATM   13  C   UNL     1      -8.437  10.451  68.120  1.00  0.00    -0.121 A  
HETATM   14  C   UNL     1      -7.650  11.396  67.441  1.00  0.00    -0.124 A  
HETATM   15  C   UNL     1      -8.141  12.693  67.208  1.00  0.00    -0.178 A  
HETATM   16  I   UNL     1      -5.616  11.139  66.915  1.00  0.00    -0.130 I  
BRANCH  13  17
HETATM   17  O   UNL     1      -8.077   9.157  68.422  1.00  0.00    -0.102 OA 
BRANCH  17  18
HETATM   18  C   UNL     1      -8.299   8.115  67.553  1.00  0.00    -0.123 A  
HETATM   19  C   UNL     1      -8.655   6.919  68.183  1.00  0.00    -0.123 A  
HETATM   20  C   UNL     1      -8.751   5.741  67.444  1.00  0.00    -0.107 A  
HETATM   21  I   UNL     1      -9.230   3.976  68.453  1.00  0.00    -0.208 I  
HETATM   22  C   UNL     1      -8.496   5.755  66.069  1.00  0.00    -0.135 A  
HETATM   23  C   UNL     1      -8.228   6.972  65.430  1.00  0.00    -0.133 A  
HETATM   24  O   UNL     1      -8.481   4.591  65.348  1.00  0.00    -0.117 OA 
HETATM   25  H   UNL     1      -8.307   4.600  64.414  1.00  0.00     0.000 HD 
HETATM   26  I   UNL     1      -7.785   7.063  63.385  1.00  0.00    -0.032 I  
HETATM   27  C   UNL     1      -8.175   8.163  66.165  1.00  0.00    -0.117 A  
ENDBRANCH  17  18
ENDBRANCH  13  17
ENDBRANCH   8   9
ENDBRANCH   4   8
TORSDOF 4
ENDMDL
MODEL      201
REMARK 921   NORMALIZED FREE ENERGY PREDICTED BY IDOCK:   -3.46 KCAL/MOL
REMARK 922        TOTAL FREE ENERGY PREDICTED BY IDOCK:   -5.10 KCAL/MOL
REMARK 923 INTER-LIGAND FREE ENERGY PREDICTED BY IDOCK:   -4.30 KCAL/MOL
REMARK 924 INTRA-LIGAND FREE ENERGY PREDICTED BY IDOCK:   -0.79 KCAL/MOL
REMARK 927      BINDING AFFINITY PREDICTED BY RF-SCORE:    0.00 PKD
ROOT
HETATM    1  N   UNL     1      -6.891   8.596  73.993  1.00  0.00    -0.312 NA 
HETATM    2  H1  UNL     1      -7.450   8.031  74.632  1.00  0.00     0.000 HD 
HETATM    3  H2  UNL     1      -7.287   9.530  73.891  1.00  0.00     0.000 HD 
HETATM    4  CA  UNL     1      -6.698   7.948  72.655  1.00  0.00    -0.074 C  
HETATM    5  C   UNL     1      -6.007   6.591  72.873  1.00  0.00    -0.042 C  
HETATM    6  OXT UNL     1      -5.580   5.869  71.989  1.00  0.00    -0.021 OA 
HETATM    7  O   UNL     1      -5.931   6.284  74.195  1.00  0.00    -0.061 OA 
ENDROOT
BRANCH   4   8
HETATM    8  C   UNL     1      -5.854   8.801  71.690  1.00  0.00    -0.056 C  
BRANCH   8   9
HETATM    9  C   UNL     1      -6.684   9.468  70.620  1.00  0.00    -0.110 A  
HETATM   10  C   UNL     1      -7.773   8.812  70.038  1.00  0.00    -0.082 A  
HETATM   11  C   UNL     1      -8.501   9.425  69.009  1.00  0.00    -0.129 A  
HETATM   12  I   UNL     1     -10.051   8.287  68.143  1.00  0.00    -0.250 I  
HETATM   13  C   UNL     1      -8.159  10.705  68.529  1.00  0.00    -0.125 A  
HETATM   14  C   UNL     1      -7.008  11.317  69.056  1.00  0.00    -0.104 A  
HETATM   15  C   UNL     1      -6.319  10.726  70.129  1.00  0.00    -0.147 A  
HETATM   16  I   UNL     1      -6.020  12.988  68.215  1.00  0.00    -0.129 I  
BRANCH  13  17
HETATM   17  O   UNL     1      -8.919  11.168  67.479  1.00  0.00    -0.138 OA 
BRANCH  17  18
HETATM   18  C   UNL     1      -9.902  12.112  67.649  1.00  0.00    -0.194 A  
HETATM   19  C   UNL     1     -10.145  12.889  66.512  1.00  0.00    -0.263 A  
HETATM   20  C   UNL     1     -10.998  13.990  66.586  1.00  0.00    -0.300 A  
HETATM   21  I   UNL     1     -11.273  15.143  64.867  1.00  0.00    -0.259 I  
HETATM   22  C   UNL     1     -11.615  14.316  67.796  1.00  0.00    -0.354 A  
HETATM   23  C   UNL     1     -11.438  13.483  68.908  1.00  0.00    -0.306 A  
HETATM   24  O   UNL     1     -12.369  15.453  67.913  1.00  0.00    -0.280 OA 
HETATM   25  H   UNL     1     -12.789  15.676  68.737  1.00  0.00     0.000 HD 
HETATM   26  I   UNL     1     -12.289  13.938  70.767  1.00  0.00    -0.352 I  
HETATM   27  C   UNL     1     -10.617  12.351  68.823  1.00  0.00    -0.213 A  
ENDBRANCH  17  18
ENDBRANCH  13  17
ENDBRANCH   8   9
ENDBRANCH   4   8
TORSDOF 4
ENDMDL
MODEL      202
REMARK 921   NORMALIZED FREE ENERGY PREDICTED BY IDOCK:   -3.46 KCAL/MOL
REMARK 922        TOTAL FREE ENERGY PREDICTED BY IDOCK:   -5.10 KCAL/MOL
REMARK 923 INTER-LIGAND FREE ENERGY PREDICTED BY IDOCK:   -4.68 KCAL/MOL
REMARK 924 INTRA-LIGAND FREE ENERGY PREDICTED BY IDOCK:   -0.42 KCAL/MOL
REMARK 927      BINDING AFFINITY PREDICTED BY RF-SCORE:    0.00 PKD
ROOT
HETATM    1  N   UNL     1      -8.659   5.108  68.262  1.00  0.00    -0.099 NA 
HETATM    2  H1  UNL     1      -8.099   4.284  68.042  1.00  0.00     0.000 HD 
HETATM    3  H2  UNL     1      -8.618   5.321  69.258  1.00  0.00     0.000 HD 
HETATM    4  CA  UNL     1     -10.079   4.990  67.799  1.00  0.00    -0.122 C  
HETATM    5  C   UNL     1     -10.074   4.769  66.276  1.00  0.00    -0.264 C  
HETATM    6  OXT UNL     1     -11.060   4.770  65.562  1.00  0.00    -0.183 OA 
HETATM    7  O   UNL     1      -8.811   4.566  65.814  1.00  0.00    -0.119 OA 
ENDROOT
BRANCH   4   8
HETATM    8  C   UNL     1     -10.925   6.232  68.131  1.00  0.00    -0.412 C  
BRANCH   8   9
HETATM    9  C   UNL     1     -10.166   7.525  67.945  1.00  0.00    -0.245 A  
HETATM   10  C   UNL     1     -10.188   8.204  66.723  1.00  0.00    -0.372 A  
HETATM   11  C   UNL     1      -9.436   9.374  66.551  1.00  0.00    -0.190 A  
HETATM   12  I   UNL     1      -9.470  10.243  64.629  1.00  0.00    -0.370 I  
HETATM   13  C   UNL     1      -8.638   9.895  67.589  1.00  0.00    -0.122 A  
HETATM   14  C   UNL     1      -8.551   9.155  68.782  1.00  0.00    -0.131 A  
HETATM   15  C   UNL     1      -9.354   8.017  68.971  1.00  0.00    -0.147 A  
HETATM   16  I   UNL     1      -7.103   9.448  70.297  1.00  0.00    -0.142 I  
BRANCH  13  17
HETATM   17  O   UNL     1      -7.907  11.016  67.271  1.00  0.00    -0.114 OA 
BRANCH  17  18
HETATM   18  C   UNL     1      -8.110  12.223  67.898  1.00  0.00    -0.155 A  
HETATM   19  C   UNL     1      -9.445  12.636  67.912  1.00  0.00    -0.204 A  
HETATM   20  C   UNL     1      -9.778  13.911  68.367  1.00  0.00    -0.226 A  
HETATM   21  I   UNL     1     -11.784  14.489  68.309  1.00  0.00    -0.281 I  
HETATM   22  C   UNL     1      -8.777  14.778  68.814  1.00  0.00    -0.178 A  
HETATM   23  C   UNL     1      -7.452  14.326  68.881  1.00  0.00    -0.123 A  
HETATM   24  O   UNL     1      -9.072  16.068  69.163  1.00  0.00    -0.229 OA 
HETATM   25  H   UNL     1      -8.391  16.658  69.467  1.00  0.00     0.000 HD 
HETATM   26  I   UNL     1      -5.893  15.584  69.490  1.00  0.00    -0.143 I  
HETATM   27  C   UNL     1      -7.123  13.029  68.465  1.00  0.00    -0.105 A  
ENDBRANCH  17  18
ENDBRANCH  13  17
ENDBRANCH   8   9
ENDBRANCH   4   8
TORSDOF 4
ENDMDL
MODEL      203
REMARK 921   NORMALIZED FREE ENERGY PREDICTED BY IDOCK:   -3.42 KCAL/MOL
REMARK 922        TOTAL FREE ENERGY PREDICTED BY IDOCK:   -5.04 KCAL/MOL
REMARK 923 INTER-LIGAND FREE ENERGY PREDICTED BY IDOCK:   -4.99 KCAL/MOL
REMARK 924 INTRA-LIGAND FREE ENERGY PREDICTED BY IDOCK:   -0.05 KCAL/MOL
REMARK 927      BINDING AFFINITY PREDICTED BY RF-SCORE:    0.00 PKD
ROOT
HETATM    1  N   UNL     1     -10.197   5.265  65.581  1.00  0.00    -0.419 NA 
HETATM    2  H1  UNL     1     -10.996   4.636  65.669  1.00  0.00     0.000 HD 
HETATM    3  H2  UNL     1     -10.449   6.102  65.056  1.00  0.00     0.000 HD 
HETATM    4  CA  UNL     1      -8.994   4.600  64.983  1.00  0.00    -0.152 C  
HETATM    5  C   UNL     1      -8.608   3.408  65.875  1.00  0.00    -0.118 C  
HETATM    6  OXT UNL     1      -7.598   2.738  65.755  1.00  0.00    -0.071 OA 
HETATM    7  O   UNL     1      -9.549   3.185  66.830  1.00  0.00    -0.135 OA 
ENDROOT
BRANCH   4   8
HETATM    8  C   UNL     1      -7.789   5.549  64.849  1.00  0.00    -0.104 C  
BRANCH   8   9
HETATM    9  C   UNL     1      -7.896   6.762  65.741  1.00  0.00    -0.102 A  
HETATM   10  C   UNL     1      -7.525   6.702  67.088  1.00  0.00    -0.088 A  
HETATM   11  C   UNL     1      -7.679   7.823  67.915  1.00  0.00    -0.122 A  
HETATM   12  I   UNL     1      -7.184   7.571  69.949  1.00  0.00    -0.084 I  
HETATM   13  C   UNL     1      -8.214   9.031  67.423  1.00  0.00    -0.108 A  
HETATM   14  C   UNL     1      -8.669   9.053  66.093  1.00  0.00    -0.147 A  
HETATM   15  C   UNL     1      -8.455   7.947  65.252  1.00  0.00    -0.119 A  
HETATM   16  I   UNL     1      -9.908  10.548  65.251  1.00  0.00    -0.377 I  
BRANCH  13  17
HETATM   17  O   UNL     1      -8.365  10.035  68.352  1.00  0.00    -0.108 OA 
BRANCH  17  18
HETATM   18  C   UNL     1      -9.571  10.293  68.960  1.00  0.00    -0.203 A  
HETATM   19  C   UNL     1     -10.046  11.591  68.748  1.00  0.00    -0.191 A  
HETATM   20  C   UNL     1     -11.172  12.045  69.434  1.00  0.00    -0.196 A  
HETATM   21  I   UNL     1     -11.796  14.012  69.117  1.00  0.00    -0.363 I  
HETATM   22  C   UNL     1     -11.831  11.201  70.332  1.00  0.00    -0.369 A  
HETATM   23  C   UNL     1     -11.403   9.874  70.473  1.00  0.00    -0.327 A  
HETATM   24  O   UNL     1     -12.871  11.663  71.093  1.00  0.00    -0.364 OA 
HETATM   25  H   UNL     1     -13.319  11.089  71.704  1.00  0.00     0.000 HD 
HETATM   26  I   UNL     1     -12.309   8.568  71.837  1.00  0.00    -0.486 I  
HETATM   27  C   UNL     1     -10.299   9.404  69.750  1.00  0.00    -0.240 A  
ENDBRANCH  17  18
ENDBRANCH  13  17
ENDBRANCH   8   9
ENDBRANCH   4   8
TORSDOF 4
ENDMDL
MODEL      204
REMARK 921   NORMALIZED FREE ENERGY PREDICTED BY IDOCK:   -3.41 KCAL/MOL
REMARK 922        TOTAL FREE ENERGY PREDICTED BY IDOCK:   -5.03 KCAL/MOL
REMARK 923 INTER-LIGAND FREE ENERGY PREDICTED BY IDOCK:   -4.56 KCAL/MOL
REMARK 924 INTRA-LIGAND FREE ENERGY PREDICTED BY IDOCK:   -0.47 KCAL/MOL
REMARK 927      BINDING AFFINITY PREDICTED BY RF-SCORE:    0.00 PKD
ROOT
HETATM    1  N   UNL     1     -11.208  11.189  70.146  1.00  0.00    -0.480 NA 
HETATM    2  H1  UNL     1     -11.882  11.762  69.638  1.00  0.00     0.000 HD 
HETATM    3  H2  UNL     1     -10.422  10.937  69.548  1.00  0.00     0.000 HD 
HETATM    4  CA  UNL     1     -11.824   9.970  70.762  1.00  0.00    -0.346 C  
HETATM    5  C   UNL     1     -12.933  10.426  71.726  1.00  0.00    -0.475 C  
HETATM    6  OXT UNL     1     -13.540   9.700  72.493  1.00  0.00    -0.400 OA 
HETATM    7  O   UNL     1     -13.162  11.761  71.616  1.00  0.00    -0.411 OA 
ENDROOT
BRANCH   4   8
HETATM    8  C   UNL     1     -10.806   9.105  71.528  1.00  0.00    -0.436 C  
BRANCH   8   9
HETATM    9  C   UNL     1      -9.852   8.376  70.613  1.00  0.00    -0.208 A  
HETATM   10  C   UNL     1      -8.733   7.709  71.122  1.00  0.00    -0.138 A  
HETATM   11  C   UNL     1      -7.829   7.081  70.254  1.00  0.00    -0.105 A  
HETATM   12  I   UNL     1      -6.127   6.203  71.139  1.00  0.00    -0.037 I  
HETATM   13  C   UNL     1      -8.012   7.107  68.857  1.00  0.00    -0.120 A  
HETATM   14  C   UNL     1      -9.088   7.857  68.351  1.00  0.00    -0.135 A  
HETATM   15  C   UNL     1     -10.026   8.432  69.226  1.00  0.00    -0.195 A  
HETATM   16  I   UNL     1      -9.326   8.440  66.331  1.00  0.00    -0.256 I  
BRANCH  13  17
HETATM   17  O   UNL     1      -7.022   6.502  68.117  1.00  0.00    -0.071 OA 
BRANCH  17  18
HETATM   18  C   UNL     1      -7.207   5.286  67.504  1.00  0.00    -0.071 A  
HETATM   19  C   UNL     1      -6.796   5.256  66.168  1.00  0.00    -0.058 A  
HETATM   20  C   UNL     1      -7.072   4.143  65.376  1.00  0.00    -0.063 A  
HETATM   21  I   UNL     1      -6.482   4.184  63.373  1.00  0.00    -0.032 I  
HETATM   22  C   UNL     1      -7.758   3.052  65.918  1.00  0.00    -0.078 A  
HETATM   23  C   UNL     1      -8.088   3.051  67.279  1.00  0.00    -0.078 A  
HETATM   24  O   UNL     1      -8.131   1.997  65.128  1.00  0.00    -0.077 OA 
HETATM   25  H   UNL     1      -8.598   1.255  65.496  1.00  0.00     0.000 HD 
HETATM   26  I   UNL     1      -9.160   1.475  68.147  1.00  0.00    -0.220 I  
HETATM   27  C   UNL     1      -7.771   4.151  68.086  1.00  0.00    -0.071 A  
ENDBRANCH  17  18
ENDBRANCH  13  17
ENDBRANCH   8   9
ENDBRANCH   4   8
TORSDOF 4
ENDMDL
MODEL      205
REMARK 921   NORMALIZED FREE ENERGY PREDICTED BY IDOCK:   -3.40 KCAL/MOL
REMARK 922        TOTAL FREE ENERGY PREDICTED BY IDOCK:   -5.02 KCAL/MOL
REMARK 923 INTER-LIGAND FREE ENERGY PREDICTED BY IDOCK:   -4.48 KCAL/MOL
REMARK 924 INTRA-LIGAND FREE ENERGY PREDICTED BY IDOCK:   -0.54 KCAL/MOL
REMARK 927      BINDING AFFINITY PREDICTED BY RF-SCORE:    0.00 PKD
ROOT
HETATM    1  N   UNL     1      -8.663   5.720  64.074  1.00  0.00    -0.347 NA 
HETATM    2  H1  UNL     1      -9.259   5.743  63.247  1.00  0.00     0.000 HD 
HETATM    3  H2  UNL     1      -7.935   6.431  64.018  1.00  0.00     0.000 HD 
HETATM    4  CA  UNL     1      -8.071   4.367  64.331  1.00  0.00    -0.097 C  
HETATM    5  C   UNL     1      -9.222   3.362  64.505  1.00  0.00    -0.137 C  
HETATM    6  OXT UNL     1      -9.097   2.204  64.861  1.00  0.00    -0.125 OA 
HETATM    7  O   UNL     1     -10.420   3.930  64.204  1.00  0.00    -0.239 OA 
ENDROOT
BRANCH   4   8
HETATM    8  C   UNL     1      -7.171   4.332  65.579  1.00  0.00    -0.068 C  
BRANCH   8   9
HETATM    9  C   UNL     1      -7.492   5.431  66.564  1.00  0.00    -0.087 A  
HETATM   10  C   UNL     1      -6.602   6.486  66.784  1.00  0.00    -0.048 A  
HETATM   11  C   UNL     1      -6.892   7.470  67.739  1.00  0.00    -0.071 A  
HETATM   12  I   UNL     1      -5.419   8.947  68.050  1.00  0.00    -0.034 I  
HETATM   13  C   UNL     1      -8.074   7.424  68.505  1.00  0.00    -0.125 A  
HETATM   14  C   UNL     1      -8.917   6.311  68.343  1.00  0.00    -0.116 A  
HETATM   15  C   UNL     1      -8.653   5.361  67.341  1.00  0.00    -0.108 A  
HETATM   16  I   UNL     1     -10.481   5.762  69.659  1.00  0.00    -0.378 I  
BRANCH  13  17
HETATM   17  O   UNL     1      -8.210   8.418  69.447  1.00  0.00    -0.112 OA 
BRANCH  17  18
HETATM   18  C   UNL     1      -9.094   9.459  69.289  1.00  0.00    -0.152 A  
HETATM   19  C   UNL     1     -10.117   9.482  70.242  1.00  0.00    -0.314 A  
HETATM   20  C   UNL     1     -11.174  10.381  70.110  1.00  0.00    -0.321 A  
HETATM   21  I   UNL     1     -12.700  10.327  71.535  1.00  0.00    -0.537 I  
HETATM   22  C   UNL     1     -11.212  11.263  69.027  1.00  0.00    -0.258 A  
HETATM   23  C   UNL     1     -10.140  11.295  68.126  1.00  0.00    -0.182 A  
HETATM   24  O   UNL     1     -12.294  12.077  68.824  1.00  0.00    -0.206 OA 
HETATM   25  H   UNL     1     -12.320  12.677  68.086  1.00  0.00     0.000 HD 
HETATM   26  I   UNL     1     -10.151  12.553  66.451  1.00  0.00    -0.276 I  
HETATM   27  C   UNL     1      -9.055  10.423  68.282  1.00  0.00    -0.145 A  
ENDBRANCH  17  18
ENDBRANCH  13  17
ENDBRANCH   8   9
ENDBRANCH   4   8
TORSDOF 4
ENDMDL
MODEL      206
REMARK 921   NORMALIZED FREE ENERGY PREDICTED BY IDOCK:   -3.37 KCAL/MOL
REMARK 922        TOTAL FREE ENERGY PREDICTED BY IDOCK:   -4.97 KCAL/MOL
REMARK 923 INTER-LIGAND FREE ENERGY PREDICTED BY IDOCK:   -4.38 KCAL/MOL
REMARK 924 INTRA-LIGAND FREE ENERGY PREDICTED BY IDOCK:   -0.59 KCAL/MOL
REMARK 927      BINDING AFFINITY PREDICTED BY RF-SCORE:    0.00 PKD
ROOT
HETATM    1  N   UNL     1      -7.310   5.688  65.888  1.00  0.00    -0.072 NA 
HETATM    2  H1  UNL     1      -7.777   5.231  65.106  1.00  0.00     0.000 HD 
HETATM    3  H2  UNL     1      -7.784   5.482  66.767  1.00  0.00     0.000 HD 
HETATM    4  CA  UNL     1      -7.160   7.167  65.696  1.00  0.00    -0.068 C  
HETATM    5  C   UNL     1      -6.351   7.407  64.410  1.00  0.00    -0.041 C  
HETATM    6  OXT UNL     1      -5.931   8.486  64.034  1.00  0.00    -0.066 OA 
HETATM    7  O   UNL     1      -6.160   6.247  63.727  1.00  0.00    -0.022 OA 
ENDROOT
BRANCH   4   8
HETATM    8  C   UNL     1      -6.455   7.858  66.878  1.00  0.00    -0.056 C  
BRANCH   8   9
HETATM    9  C   UNL     1      -6.980   9.250  67.140  1.00  0.00    -0.085 A  
HETATM   10  C   UNL     1      -6.108  10.332  67.292  1.00  0.00    -0.054 A  
HETATM   11  C   UNL     1      -6.608  11.608  67.586  1.00  0.00    -0.082 A  
HETATM   12  I   UNL     1      -5.184  13.132  67.897  1.00  0.00    -0.013 I  
HETATM   13  C   UNL     1      -7.990  11.837  67.744  1.00  0.00    -0.141 A  
HETATM   14  C   UNL     1      -8.850  10.726  67.680  1.00  0.00    -0.132 A  
HETATM   15  C   UNL     1      -8.350   9.462  67.323  1.00  0.00    -0.125 A  
HETATM   16  I   UNL     1     -10.866  10.705  68.323  1.00  0.00    -0.362 I  
BRANCH  13  17
HETATM   17  O   UNL     1      -8.343  13.122  68.087  1.00  0.00    -0.148 OA 
BRANCH  17  18
HETATM   18  C   UNL     1      -8.892  13.996  67.179  1.00  0.00    -0.228 A  
HETATM   19  C   UNL     1      -8.444  15.313  67.319  1.00  0.00    -0.216 A  
HETATM   20  C   UNL     1      -9.034  16.335  66.577  1.00  0.00    -0.278 A  
HETATM   21  I   UNL     1      -8.359  18.289  66.873  1.00  0.00    -0.288 I  
HETATM   22  C   UNL     1     -10.073  16.044  65.688  1.00  0.00    -0.354 A  
HETATM   23  C   UNL     1     -10.456  14.712  65.487  1.00  0.00    -0.356 A  
HETATM   24  O   UNL     1     -10.734  17.047  65.031  1.00  0.00    -0.713 OA 
HETATM   25  H   UNL     1     -11.441  16.849  64.427  1.00  0.00     0.000 HD 
HETATM   26  I   UNL     1     -12.038  14.205  64.211  1.00  0.00    -0.181 I  
HETATM   27  C   UNL     1      -9.833  13.679  66.200  1.00  0.00    -0.304 A  
ENDBRANCH  17  18
ENDBRANCH  13  17
ENDBRANCH   8   9
ENDBRANCH   4   8
TORSDOF 4
ENDMDL
MODEL      207
REMARK 921   NORMALIZED FREE ENERGY PREDICTED BY IDOCK:   -3.34 KCAL/MOL
REMARK 922        TOTAL FREE ENERGY PREDICTED BY IDOCK:   -4.94 KCAL/MOL
REMARK 923 INTER-LIGAND FREE ENERGY PREDICTED BY IDOCK:   -4.60 KCAL/MOL
REMARK 924 INTRA-LIGAND FREE ENERGY PREDICTED BY IDOCK:   -0.34 KCAL/MOL
REMARK 927      BINDING AFFINITY PREDICTED BY RF-SCORE:    0.00 PKD
ROOT
HETATM    1  N   UNL     1      -9.718  16.335  66.930  1.00  0.00    -0.232 NA 
HETATM    2  H1  UNL     1      -9.350  17.285  66.960  1.00  0.00     0.000 HD 
HETATM    3  H2  UNL     1      -9.961  16.068  65.976  1.00  0.00     0.000 HD 
HETATM    4  CA  UNL     1     -10.878  16.127  67.856  1.00  0.00    -0.332 C  
HETATM    5  C   UNL     1     -10.416  16.449  69.287  1.00  0.00    -0.303 C  
HETATM    6  OXT UNL     1     -11.068  16.253  70.297  1.00  0.00    -0.357 OA 
HETATM    7  O   UNL     1      -9.171  16.994  69.291  1.00  0.00    -0.128 OA 
ENDROOT
BRANCH   4   8
HETATM    8  C   UNL     1     -11.434  14.692  67.810  1.00  0.00    -0.359 C  
BRANCH   8   9
HETATM    9  C   UNL     1     -10.492  13.720  67.141  1.00  0.00    -0.272 A  
HETATM   10  C   UNL     1     -10.798  13.159  65.898  1.00  0.00    -0.288 A  
HETATM   11  C   UNL     1      -9.938  12.219  65.314  1.00  0.00    -0.230 A  
HETATM   12  I   UNL     1     -10.566  11.370  63.489  1.00  0.00    -0.272 I  
HETATM   13  C   UNL     1      -8.753  11.808  65.958  1.00  0.00     0.002 A  
HETATM   14  C   UNL     1      -8.501  12.308  67.248  1.00  0.00    -0.181 A  
HETATM   15  C   UNL     1      -9.334  13.296  67.801  1.00  0.00    -0.209 A  
HETATM   16  I   UNL     1      -7.076  11.526  68.603  1.00  0.00    -0.111 I  
BRANCH  13  17
HETATM   17  O   UNL     1      -8.028  10.838  65.305  1.00  0.00    -0.107 OA 
BRANCH  17  18
HETATM   18  C   UNL     1      -8.084   9.514  65.669  1.00  0.00    -0.112 A  
HETATM   19  C   UNL     1      -7.010   8.752  65.198  1.00  0.00    -0.079 A  
HETATM   20  C   UNL     1      -7.017   7.366  65.351  1.00  0.00    -0.059 A  
HETATM   21  I   UNL     1      -5.411   6.278  64.576  1.00  0.00    -0.019 I  
HETATM   22  C   UNL     1      -8.095   6.736  65.979  1.00  0.00    -0.119 A  
HETATM   23  C   UNL     1      -9.124   7.513  66.527  1.00  0.00    -0.166 A  
HETATM   24  O   UNL     1      -8.169   5.370  66.042  1.00  0.00    -0.112 OA 
HETATM   25  H   UNL     1      -8.902   4.942  66.469  1.00  0.00     0.000 HD 
HETATM   26  I   UNL     1     -10.796   6.638  67.435  1.00  0.00    -0.340 I  
HETATM   27  C   UNL     1      -9.096   8.909  66.413  1.00  0.00    -0.217 A  
ENDBRANCH  17  18
ENDBRANCH  13  17
ENDBRANCH   8   9
ENDBRANCH   4   8
TORSDOF 4
ENDMDL
MODEL      208
REMARK 921   NORMALIZED FREE ENERGY PREDICTED BY IDOCK:   -3.33 KCAL/MOL
REMARK 922        TOTAL FREE ENERGY PREDICTED BY IDOCK:   -4.94 KCAL/MOL
REMARK 923 INTER-LIGAND FREE ENERGY PREDICTED BY IDOCK:   -4.76 KCAL/MOL
REMARK 924 INTRA-LIGAND FREE ENERGY PREDICTED BY IDOCK:   -0.18 KCAL/MOL
REMARK 927      BINDING AFFINITY PREDICTED BY RF-SCORE:    0.00 PKD
ROOT
HETATM    1  N   UNL     1      -8.240   7.644  73.890  1.00  0.00    -0.162 NA 
HETATM    2  H1  UNL     1      -8.616   7.965  74.782  1.00  0.00     0.000 HD 
HETATM    3  H2  UNL     1      -7.228   7.765  73.857  1.00  0.00     0.000 HD 
HETATM    4  CA  UNL     1      -8.895   8.296  72.711  1.00  0.00    -0.239 C  
HETATM    5  C   UNL     1     -10.402   7.991  72.767  1.00  0.00    -0.339 C  
HETATM    6  OXT UNL     1     -11.206   8.253  71.890  1.00  0.00    -0.262 OA 
HETATM    7  O   UNL     1     -10.737   7.387  73.938  1.00  0.00    -0.319 OA 
ENDROOT
BRANCH   4   8
HETATM    8  C   UNL     1      -8.328   7.812  71.364  1.00  0.00    -0.118 C  
BRANCH   8   9
HETATM    9  C   UNL     1      -8.215   8.919  70.343  1.00  0.00    -0.146 A  
HETATM   10  C   UNL     1      -7.241   9.915  70.464  1.00  0.00    -0.099 A  
HETATM   11  C   UNL     1      -7.184  10.964  69.537  1.00  0.00    -0.113 A  
HETATM   12  I   UNL     1      -5.738  12.459  69.892  1.00  0.00    -0.144 I  
HETATM   13  C   UNL     1      -8.099  11.052  68.469  1.00  0.00    -0.140 A  
HETATM   14  C   UNL     1      -9.130  10.098  68.409  1.00  0.00    -0.133 A  
HETATM   15  C   UNL     1      -9.146   9.014  69.304  1.00  0.00    -0.145 A  
HETATM   16  I   UNL     1     -10.871  10.255  67.216  1.00  0.00    -0.082 I  
BRANCH  13  17
HETATM   17  O   UNL     1      -7.969  12.162  67.665  1.00  0.00    -0.136 OA 
BRANCH  17  18
HETATM   18  C   UNL     1      -8.984  13.075  67.509  1.00  0.00    -0.193 A  
HETATM   19  C   UNL     1      -9.365  13.705  68.697  1.00  0.00    -0.057 A  
HETATM   20  C   UNL     1     -10.487  14.533  68.721  1.00  0.00    -0.246 A  
HETATM   21  I   UNL     1     -11.039  15.399  70.539  1.00  0.00    -0.306 I  
HETATM   22  C   UNL     1     -11.230  14.737  67.555  1.00  0.00    -0.332 A  
HETATM   23  C   UNL     1     -10.791  14.175  66.349  1.00  0.00    -0.304 A  
HETATM   24  O   UNL     1     -12.394  15.459  67.583  1.00  0.00    -0.144 OA 
HETATM   25  H   UNL     1     -12.899  15.598  66.790  1.00  0.00     0.000 HD 
HETATM   26  I   UNL     1     -11.881  14.395  64.574  1.00  0.00    -0.350 I  
HETATM   27  C   UNL     1      -9.639  13.379  66.316  1.00  0.00    -0.245 A  
ENDBRANCH  17  18
ENDBRANCH  13  17
ENDBRANCH   8   9
ENDBRANCH   4   8
TORSDOF 4
ENDMDL
MODEL      209
REMARK 921   NORMALIZED FREE ENERGY PREDICTED BY IDOCK:   -3.31 KCAL/MOL
REMARK 922        TOTAL FREE ENERGY PREDICTED BY IDOCK:   -4.90 KCAL/MOL
REMARK 923 INTER-LIGAND FREE ENERGY PREDICTED BY IDOCK:   -4.47 KCAL/MOL
REMARK 924 INTRA-LIGAND FREE ENERGY PREDICTED BY IDOCK:   -0.43 KCAL/MOL
REMARK 927      BINDING AFFINITY PREDICTED BY RF-SCORE:    0.00 PKD
ROOT
HETATM    1  N   UNL     1     -13.931   9.690  70.378  1.00  0.00    -0.030 NA 
HETATM    2  H1  UNL     1     -14.140   8.737  70.084  1.00  0.00     0.000 HD 
HETATM    3  H2  UNL     1     -14.448  10.367  69.817  1.00  0.00     0.000 HD 
HETATM    4  CA  UNL     1     -12.464   9.997  70.369  1.00  0.00    -0.108 C  
HETATM    5  C   UNL     1     -11.759   9.007  71.312  1.00  0.00    -0.313 C  
HETATM    6  OXT UNL     1     -10.588   9.063  71.643  1.00  0.00    -0.316 OA 
HETATM    7  O   UNL     1     -12.614   8.039  71.737  1.00  0.00    -0.306 OA 
ENDROOT
BRANCH   4   8
HETATM    8  C   UNL     1     -12.148  11.437  70.814  1.00  0.00    -0.433 C  
BRANCH   8   9
HETATM    9  C   UNL     1     -11.304  12.187  69.812  1.00  0.00    -0.173 A  
HETATM   10  C   UNL     1     -11.627  13.492  69.430  1.00  0.00    -0.369 A  
HETATM   11  C   UNL     1     -10.863  14.156  68.460  1.00  0.00    -0.252 A  
HETATM   12  I   UNL     1     -11.518  16.079  67.896  1.00  0.00     0.241 I  
HETATM   13  C   UNL     1      -9.760  13.533  67.841  1.00  0.00    -0.225 A  
HETATM   14  C   UNL     1      -9.499  12.190  68.164  1.00  0.00    -0.205 A  
HETATM   15  C   UNL     1     -10.230  11.550  69.181  1.00  0.00    -0.038 A  
HETATM   16  I   UNL     1      -8.229  10.896  67.073  1.00  0.00    -0.149 I  
BRANCH  13  17
HETATM   17  O   UNL     1      -9.131  14.273  66.866  1.00  0.00    -0.234 OA 
BRANCH  17  18
HETATM   18  C   UNL     1      -8.152  15.191  67.163  1.00  0.00    -0.214 A  
HETATM   19  C   UNL     1      -7.426  14.890  68.320  1.00  0.00    -0.113 A  
HETATM   20  C   UNL     1      -6.514  15.812  68.832  1.00  0.00    -0.116 A  
HETATM   21  I   UNL     1      -5.504  15.327  70.594  1.00  0.00    -0.015 I  
HETATM   22  C   UNL     1      -6.320  17.037  68.188  1.00  0.00    -0.142 A  
HETATM   23  C   UNL     1      -6.984  17.294  66.981  1.00  0.00    -0.188 A  
HETATM   24  O   UNL     1      -5.510  17.995  68.735  1.00  0.00    -0.176 OA 
HETATM   25  H   UNL     1      -5.378  18.829  68.297  1.00  0.00     0.000 HD 
HETATM   26  I   UNL     1      -6.783  19.127  65.988  1.00  0.00    -0.306 I  
HETATM   27  C   UNL     1      -7.868  16.350  66.442  1.00  0.00    -0.297 A  
ENDBRANCH  17  18
ENDBRANCH  13  17
ENDBRANCH   8   9
ENDBRANCH   4   8
TORSDOF 4
ENDMDL
MODEL      210
REMARK 921   NORMALIZED FREE ENERGY PREDICTED BY IDOCK:   -3.30 KCAL/MOL
REMARK 922        TOTAL FREE ENERGY PREDICTED BY IDOCK:   -4.89 KCAL/MOL
REMARK 923 INTER-LIGAND FREE ENERGY PREDICTED BY IDOCK:   -5.23 KCAL/MOL
REMARK 924 INTRA-LIGAND FREE ENERGY PREDICTED BY IDOCK:    0.34 KCAL/MOL
REMARK 927      BINDING AFFINITY PREDICTED BY RF-SCORE:    0.00 PKD
ROOT
HETATM    1  N   UNL     1      -9.800  15.060  67.956  1.00  0.00    -0.216 NA 
HETATM    2  H1  UNL     1     -10.325  15.713  68.537  1.00  0.00     0.000 HD 
HETATM    3  H2  UNL     1      -8.847  15.389  67.809  1.00  0.00     0.000 HD 
HETATM    4  CA  UNL     1     -10.473  14.769  66.649  1.00  0.00    -0.286 C  
HETATM    5  C   UNL     1     -11.865  14.183  66.944  1.00  0.00    -0.431 C  
HETATM    6  OXT UNL     1     -12.619  13.710  66.113  1.00  0.00    -0.412 OA 
HETATM    7  O   UNL     1     -12.161  14.262  68.269  1.00  0.00    -0.322 OA 
ENDROOT
BRANCH   4   8
HETATM    8  C   UNL     1      -9.681  13.782  65.772  1.00  0.00    -0.175 C  
BRANCH   8   9
HETATM    9  C   UNL     1      -9.146  12.605  66.551  1.00  0.00    -0.163 A  
HETATM   10  C   UNL     1      -9.769  11.355  66.488  1.00  0.00    -0.226 A  
HETATM   11  C   UNL     1      -9.291  10.286  67.258  1.00  0.00    -0.149 A  
HETATM   12  I   UNL     1     -10.384   8.485  67.154  1.00  0.00    -0.244 I  
HETATM   13  C   UNL     1      -8.182  10.436  68.115  1.00  0.00    -0.116 A  
HETATM   14  C   UNL     1      -7.619  11.718  68.240  1.00  0.00    -0.122 A  
HETATM   15  C   UNL     1      -8.063  12.771  67.421  1.00  0.00    -0.185 A  
HETATM   16  I   UNL     1      -6.279  12.319  69.764  1.00  0.00     0.030 I  
BRANCH  13  17
HETATM   17  O   UNL     1      -7.850   9.325  68.856  1.00  0.00    -0.084 OA 
BRANCH  17  18
HETATM   18  C   UNL     1      -8.387   9.089  70.100  1.00  0.00    -0.151 A  
HETATM   19  C   UNL     1      -7.434   8.807  71.083  1.00  0.00    -0.115 A  
HETATM   20  C   UNL     1      -7.839   8.390  72.350  1.00  0.00    -0.099 A  
HETATM   21  I   UNL     1      -6.366   7.929  73.757  1.00  0.00    -0.124 I  
HETATM   22  C   UNL     1      -9.199   8.255  72.641  1.00  0.00    -0.274 A  
HETATM   23  C   UNL     1     -10.150   8.624  71.680  1.00  0.00    -0.294 A  
HETATM   24  O   UNL     1      -9.612   7.745  73.842  1.00  0.00    -0.365 OA 
HETATM   25  H   UNL     1     -10.537   7.653  74.040  1.00  0.00     0.000 HD 
HETATM   26  I   UNL     1     -12.204   8.401  72.025  1.00  0.00    -0.466 I  
HETATM   27  C   UNL     1      -9.744   9.087  70.421  1.00  0.00    -0.245 A  
ENDBRANCH  17  18
ENDBRANCH  13  17
ENDBRANCH   8   9
ENDBRANCH   4   8
TORSDOF 4
ENDMDL
MODEL      211
REMARK 921   NORMALIZED FREE ENERGY PREDICTED BY IDOCK:   -3.29 KCAL/MOL
REMARK 922        TOTAL FREE ENERGY PREDICTED BY IDOCK:   -4.88 KCAL/MOL
REMARK 923 INTER-LIGAND FREE ENERGY PREDICTED BY IDOCK:   -5.70 KCAL/MOL
REMARK 924 INTRA-LIGAND FREE ENERGY PREDICTED BY IDOCK:    0.82 KCAL/MOL
REMARK 927      BINDING AFFINITY PREDICTED BY RF-SCORE:    0.00 PKD
ROOT
HETATM    1  N   UNL     1      -6.426   8.942  63.505  1.00  0.00    -0.089 NA 
HETATM    2  H1  UNL     1      -6.353   8.414  62.635  1.00  0.00     0.000 HD 
HETATM    3  H2  UNL     1      -5.663   9.612  63.590  1.00  0.00     0.000 HD 
HETATM    4  CA  UNL     1      -6.502   8.063  64.717  1.00  0.00    -0.049 C  
HETATM    5  C   UNL     1      -7.729   7.147  64.572  1.00  0.00    -0.113 C  
HETATM    6  OXT UNL     1      -8.162   6.409  65.439  1.00  0.00    -0.133 OA 
HETATM    7  O   UNL     1      -8.283   7.259  63.336  1.00  0.00    -0.055 OA 
ENDROOT
BRANCH   4   8
HETATM    8  C   UNL     1      -6.612   8.859  66.030  1.00  0.00    -0.065 C  
BRANCH   8   9
HETATM    9  C   UNL     1      -7.968   9.495  66.218  1.00  0.00    -0.107 A  
HETATM   10  C   UNL     1      -8.534  10.294  65.220  1.00  0.00    -0.168 A  
HETATM   11  C   UNL     1      -9.770  10.920  65.430  1.00  0.00    -0.238 A  
HETATM   12  I   UNL     1     -10.463  12.183  63.891  1.00  0.00    -0.514 I  
HETATM   13  C   UNL     1     -10.472  10.771  66.644  1.00  0.00    -0.246 A  
HETATM   14  C   UNL     1      -9.853  10.042  67.674  1.00  0.00    -0.162 A  
HETATM   15  C   UNL     1      -8.643   9.366  67.436  1.00  0.00    -0.125 A  
HETATM   16  I   UNL     1     -10.451  10.047  69.704  1.00  0.00    -0.329 I  
BRANCH  13  17
HETATM   17  O   UNL     1     -11.645  11.484  66.743  1.00  0.00    -0.492 OA 
BRANCH  17  18
HETATM   18  C   UNL     1     -11.722  12.675  67.424  1.00  0.00    -0.369 A  
HETATM   19  C   UNL     1     -11.169  13.758  66.734  1.00  0.00    -0.327 A  
HETATM   20  C   UNL     1     -11.029  14.993  67.367  1.00  0.00    -0.315 A  
HETATM   21  I   UNL     1     -10.143  16.555  66.301  1.00  0.00    -0.351 I  
HETATM   22  C   UNL     1     -11.446  15.151  68.692  1.00  0.00    -0.325 A  
HETATM   23  C   UNL     1     -12.080  14.087  69.347  1.00  0.00    -0.340 A  
HETATM   24  O   UNL     1     -11.219  16.323  69.362  1.00  0.00    -0.324 OA 
HETATM   25  H   UNL     1     -11.502  16.430  70.263  1.00  0.00     0.000 HD 
HETATM   26  I   UNL     1     -12.683  14.234  71.348  1.00  0.00    -0.465 I  
HETATM   27  C   UNL     1     -12.261  12.860  68.697  1.00  0.00    -0.003 A  
ENDBRANCH  17  18
ENDBRANCH  13  17
ENDBRANCH   8   9
ENDBRANCH   4   8
TORSDOF 4
ENDMDL
MODEL      212
REMARK 921   NORMALIZED FREE ENERGY PREDICTED BY IDOCK:   -3.29 KCAL/MOL
REMARK 922        TOTAL FREE ENERGY PREDICTED BY IDOCK:   -4.88 KCAL/MOL
REMARK 923 INTER-LIGAND FREE ENERGY PREDICTED BY IDOCK:   -5.27 KCAL/MOL
REMARK 924 INTRA-LIGAND FREE ENERGY PREDICTED BY IDOCK:    0.40 KCAL/MOL
REMARK 927      BINDING AFFINITY PREDICTED BY RF-SCORE:    0.00 PKD
ROOT
HETATM    1  N   UNL     1     -10.893  11.163  69.832  1.00  0.00    -0.470 NA 
HETATM    2  H1  UNL     1     -11.020  10.175  69.612  1.00  0.00     0.000 HD 
HETATM    3  H2  UNL     1     -10.892  11.315  70.840  1.00  0.00     0.000 HD 
HETATM    4  CA  UNL     1     -11.899  12.046  69.159  1.00  0.00    -0.311 C  
HETATM    5  C   UNL     1     -11.779  11.842  67.639  1.00  0.00    -0.275 C  
HETATM    6  OXT UNL     1     -12.353  12.505  66.793  1.00  0.00    -0.457 OA 
HETATM    7  O   UNL     1     -10.943  10.811  67.345  1.00  0.00    -0.274 OA 
ENDROOT
BRANCH   4   8
HETATM    8  C   UNL     1     -11.707  13.537  69.490  1.00  0.00    -0.382 C  
BRANCH   8   9
HETATM    9  C   UNL     1     -10.583  14.171  68.705  1.00  0.00    -0.258 A  
HETATM   10  C   UNL     1     -10.801  15.314  67.930  1.00  0.00    -0.288 A  
HETATM   11  C   UNL     1      -9.760  15.861  67.167  1.00  0.00    -0.224 A  
HETATM   12  I   UNL     1     -10.246  17.520  65.959  1.00  0.00    -0.013 I  
HETATM   13  C   UNL     1      -8.477  15.278  67.151  1.00  0.00    -0.209 A  
HETATM   14  C   UNL     1      -8.293  14.078  67.860  1.00  0.00    -0.168 A  
HETATM   15  C   UNL     1      -9.321  13.570  68.673  1.00  0.00    -0.036 A  
HETATM   16  I   UNL     1      -6.644  12.771  67.640  1.00  0.00    -0.108 I  
BRANCH  13  17
HETATM   17  O   UNL     1      -7.562  15.879  66.316  1.00  0.00     0.002 OA 
BRANCH  17  18
HETATM   18  C   UNL     1      -6.840  16.984  66.699  1.00  0.00    -0.244 A  
HETATM   19  C   UNL     1      -6.415  16.951  68.030  1.00  0.00    -0.151 A  
HETATM   20  C   UNL     1      -5.815  18.072  68.602  1.00  0.00    -0.189 A  
HETATM   21  I   UNL     1      -5.256  17.978  70.611  1.00  0.00    -0.144 I  
HETATM   22  C   UNL     1      -5.634  19.231  67.842  1.00  0.00    -0.190 A  
HETATM   23  C   UNL     1      -5.980  19.228  66.485  1.00  0.00    -0.165 A  
HETATM   24  O   UNL     1      -5.145  20.375  68.416  1.00  0.00    -0.196 OA 
HETATM   25  H   UNL     1      -5.021  21.163  67.900  1.00  0.00     0.000 HD 
HETATM   26  I   UNL     1      -5.784  20.944  65.299  1.00  0.00    -0.205 I  
HETATM   27  C   UNL     1      -6.542  18.087  65.899  1.00  0.00    -0.319 A  
ENDBRANCH  17  18
ENDBRANCH  13  17
ENDBRANCH   8   9
ENDBRANCH   4   8
TORSDOF 4
ENDMDL
MODEL      213
REMARK 921   NORMALIZED FREE ENERGY PREDICTED BY IDOCK:   -3.28 KCAL/MOL
REMARK 922        TOTAL FREE ENERGY PREDICTED BY IDOCK:   -4.87 KCAL/MOL
REMARK 923 INTER-LIGAND FREE ENERGY PREDICTED BY IDOCK:   -4.50 KCAL/MOL
REMARK 924 INTRA-LIGAND FREE ENERGY PREDICTED BY IDOCK:   -0.37 KCAL/MOL
REMARK 927      BINDING AFFINITY PREDICTED BY RF-SCORE:    0.00 PKD
ROOT
HETATM    1  N   UNL     1     -11.352  11.691  70.443  1.00  0.00    -0.408 NA 
HETATM    2  H1  UNL     1     -12.047  12.336  70.067  1.00  0.00     0.000 HD 
HETATM    3  H2  UNL     1     -10.563  11.595  69.806  1.00  0.00     0.000 HD 
HETATM    4  CA  UNL     1     -11.926  10.351  70.790  1.00  0.00    -0.363 C  
HETATM    5  C   UNL     1     -13.042  10.558  71.828  1.00  0.00    -0.464 C  
HETATM    6  OXT UNL     1     -13.621   9.669  72.426  1.00  0.00    -0.433 OA 
HETATM    7  O   UNL     1     -13.314  11.879  72.000  1.00  0.00    -0.487 OA 
ENDROOT
BRANCH   4   8
HETATM    8  C   UNL     1     -10.877   9.377  71.358  1.00  0.00    -0.430 C  
BRANCH   8   9
HETATM    9  C   UNL     1      -9.883   8.916  70.318  1.00  0.00    -0.211 A  
HETATM   10  C   UNL     1      -8.847   8.038  70.651  1.00  0.00    -0.143 A  
HETATM   11  C   UNL     1      -7.903   7.661  69.686  1.00  0.00    -0.108 A  
HETATM   12  I   UNL     1      -6.329   6.419  70.342  1.00  0.00    -0.038 I  
HETATM   13  C   UNL     1      -7.963   8.153  68.367  1.00  0.00    -0.123 A  
HETATM   14  C   UNL     1      -8.953   9.105  68.067  1.00  0.00    -0.128 A  
HETATM   15  C   UNL     1      -9.934   9.432  69.020  1.00  0.00    -0.182 A  
HETATM   16  I   UNL     1      -8.987  10.329  66.341  1.00  0.00    -0.196 I  
BRANCH  13  17
HETATM   17  O   UNL     1      -6.943   7.749  67.536  1.00  0.00    -0.073 OA 
BRANCH  17  18
HETATM   18  C   UNL     1      -7.166   6.948  66.441  1.00  0.00    -0.075 A  
HETATM   19  C   UNL     1      -6.539   7.395  65.275  1.00  0.00    -0.044 A  
HETATM   20  C   UNL     1      -6.808   6.776  64.055  1.00  0.00    -0.050 A  
HETATM   21  I   UNL     1      -5.883   7.528  62.340  1.00  0.00    -0.061 I  
HETATM   22  C   UNL     1      -7.703   5.704  63.997  1.00  0.00    -0.095 A  
HETATM   23  C   UNL     1      -8.258   5.204  65.181  1.00  0.00    -0.132 A  
HETATM   24  O   UNL     1      -8.059   5.154  62.794  1.00  0.00    -0.080 OA 
HETATM   25  H   UNL     1      -8.668   4.425  62.755  1.00  0.00     0.000 HD 
HETATM   26  I   UNL     1      -9.646   3.635  65.166  1.00  0.00    -0.074 I  
HETATM   27  C   UNL     1      -7.954   5.798  66.413  1.00  0.00    -0.102 A  
ENDBRANCH  17  18
ENDBRANCH  13  17
ENDBRANCH   8   9
ENDBRANCH   4   8
TORSDOF 4
ENDMDL
MODEL      214
REMARK 921   NORMALIZED FREE ENERGY PREDICTED BY IDOCK:   -3.26 KCAL/MOL
REMARK 922        TOTAL FREE ENERGY PREDICTED BY IDOCK:   -4.85 KCAL/MOL
REMARK 923 INTER-LIGAND FREE ENERGY PREDICTED BY IDOCK:   -5.06 KCAL/MOL
REMARK 924 INTRA-LIGAND FREE ENERGY PREDICTED BY IDOCK:    0.21 KCAL/MOL
REMARK 927      BINDING AFFINITY PREDICTED BY RF-SCORE:    0.00 PKD
ROOT
HETATM    1  N   UNL     1      -9.515  13.014  65.753  1.00  0.00    -0.470 NA 
HETATM    2  H1  UNL     1      -8.971  13.854  65.552  1.00  0.00     0.000 HD 
HETATM    3  H2  UNL     1      -9.744  12.515  64.894  1.00  0.00     0.000 HD 
HETATM    4  CA  UNL     1     -10.749  13.296  66.553  1.00  0.00    -0.285 C  
HETATM    5  C   UNL     1     -10.326  13.957  67.876  1.00  0.00    -0.240 C  
HETATM    6  OXT UNL     1     -11.067  14.190  68.815  1.00  0.00    -0.241 OA 
HETATM    7  O   UNL     1      -9.001  14.261  67.872  1.00  0.00    -0.172 OA 
ENDROOT
BRANCH   4   8
HETATM    8  C   UNL     1     -11.571  12.029  66.857  1.00  0.00    -0.389 C  
BRANCH   8   9
HETATM    9  C   UNL     1     -10.732  10.910  67.426  1.00  0.00    -0.305 A  
HETATM   10  C   UNL     1     -10.920  10.463  68.737  1.00  0.00    -0.287 A  
HETATM   11  C   UNL     1     -10.099   9.458  69.267  1.00  0.00    -0.196 A  
HETATM   12  I   UNL     1     -10.415   8.950  71.289  1.00  0.00    -0.428 I  
HETATM   13  C   UNL     1      -9.064   8.878  68.506  1.00  0.00    -0.137 A  
HETATM   14  C   UNL     1      -8.824   9.397  67.222  1.00  0.00    -0.128 A  
HETATM   15  C   UNL     1      -9.689  10.360  66.673  1.00  0.00    -0.236 A  
HETATM   16  I   UNL     1      -7.086   9.044  66.067  1.00  0.00    -0.087 I  
BRANCH  13  17
HETATM   17  O   UNL     1      -8.296   7.944  69.164  1.00  0.00    -0.129 OA 
BRANCH  17  18
HETATM   18  C   UNL     1      -8.507   6.593  69.022  1.00  0.00    -0.130 A  
HETATM   19  C   UNL     1      -8.600   6.171  67.692  1.00  0.00    -0.106 A  
HETATM   20  C   UNL     1      -8.974   4.860  67.399  1.00  0.00    -0.107 A  
HETATM   21  I   UNL     1      -9.150   4.308  65.393  1.00  0.00    -0.171 I  
HETATM   22  C   UNL     1      -9.253   3.964  68.435  1.00  0.00    -0.155 A  
HETATM   23  C   UNL     1      -9.071   4.368  69.764  1.00  0.00    -0.112 A  
HETATM   24  O   UNL     1      -9.724   2.707  68.165  1.00  0.00    -0.225 OA 
HETATM   25  H   UNL     1      -9.914   2.098  68.870  1.00  0.00     0.000 HD 
HETATM   26  I   UNL     1      -9.519   3.097  71.368  1.00  0.00    -0.199 I  
HETATM   27  C   UNL     1      -8.653   5.672  70.058  1.00  0.00    -0.122 A  
ENDBRANCH  17  18
ENDBRANCH  13  17
ENDBRANCH   8   9
ENDBRANCH   4   8
TORSDOF 4
ENDMDL
MODEL      215
REMARK 921   NORMALIZED FREE ENERGY PREDICTED BY IDOCK:   -3.25 KCAL/MOL
REMARK 922        TOTAL FREE ENERGY PREDICTED BY IDOCK:   -4.83 KCAL/MOL
REMARK 923 INTER-LIGAND FREE ENERGY PREDICTED BY IDOCK:   -4.87 KCAL/MOL
REMARK 924 INTRA-LIGAND FREE ENERGY PREDICTED BY IDOCK:    0.03 KCAL/MOL
REMARK 927      BINDING AFFINITY PREDICTED BY RF-SCORE:    0.00 PKD
ROOT
HETATM    1  N   UNL     1     -12.150  15.179  68.387  1.00  0.00    -0.569 NA 
HETATM    2  H1  UNL     1     -13.168  15.118  68.360  1.00  0.00     0.000 HD 
HETATM    3  H2  UNL     1     -11.798  15.748  67.618  1.00  0.00     0.000 HD 
HETATM    4  CA  UNL     1     -11.485  13.837  68.409  1.00  0.00    -0.316 C  
HETATM    5  C   UNL     1     -11.983  13.071  69.646  1.00  0.00    -0.302 C  
HETATM    6  OXT UNL     1     -11.541  12.006  70.039  1.00  0.00    -0.279 OA 
HETATM    7  O   UNL     1     -12.999  13.735  70.259  1.00  0.00    -0.129 OA 
ENDROOT
BRANCH   4   8
HETATM    8  C   UNL     1      -9.948  13.928  68.450  1.00  0.00    -0.233 C  
BRANCH   8   9
HETATM    9  C   UNL     1      -9.273  12.712  67.863  1.00  0.00    -0.201 A  
HETATM   10  C   UNL     1      -9.563  12.283  66.564  1.00  0.00    -0.242 A  
HETATM   11  C   UNL     1      -8.966  11.122  66.053  1.00  0.00    -0.200 A  
HETATM   12  I   UNL     1      -9.568  10.524  64.122  1.00  0.00    -0.365 I  
HETATM   13  C   UNL     1      -8.070  10.355  66.825  1.00  0.00    -0.120 A  
HETATM   14  C   UNL     1      -7.856  10.743  68.159  1.00  0.00    -0.112 A  
HETATM   15  C   UNL     1      -8.408  11.941  68.646  1.00  0.00    -0.058 A  
HETATM   16  I   UNL     1      -6.949   9.545  69.648  1.00  0.00    -0.100 I  
BRANCH  13  17
HETATM   17  O   UNL     1      -7.600   9.209  66.224  1.00  0.00    -0.091 OA 
BRANCH  17  18
HETATM   18  C   UNL     1      -8.298   8.026  66.261  1.00  0.00    -0.121 A  
HETATM   19  C   UNL     1      -9.085   7.868  67.406  1.00  0.00    -0.146 A  
HETATM   20  C   UNL     1      -9.719   6.652  67.656  1.00  0.00    -0.124 A  
HETATM   21  I   UNL     1     -10.833   6.461  69.412  1.00  0.00    -0.448 I  
HETATM   22  C   UNL     1      -9.571   5.589  66.761  1.00  0.00    -0.146 A  
HETATM   23  C   UNL     1      -8.855   5.781  65.573  1.00  0.00    -0.113 A  
HETATM   24  O   UNL     1     -10.097   4.356  67.044  1.00  0.00    -0.193 OA 
HETATM   25  H   UNL     1      -9.997   3.633  66.435  1.00  0.00     0.000 HD 
HETATM   26  I   UNL     1      -8.549   4.221  64.210  1.00  0.00    -0.134 I  
HETATM   27  C   UNL     1      -8.255   7.017  65.299  1.00  0.00    -0.128 A  
ENDBRANCH  17  18
ENDBRANCH  13  17
ENDBRANCH   8   9
ENDBRANCH   4   8
TORSDOF 4
ENDMDL
MODEL      216
REMARK 921   NORMALIZED FREE ENERGY PREDICTED BY IDOCK:   -3.24 KCAL/MOL
REMARK 922        TOTAL FREE ENERGY PREDICTED BY IDOCK:   -4.82 KCAL/MOL
REMARK 923 INTER-LIGAND FREE ENERGY PREDICTED BY IDOCK:   -4.15 KCAL/MOL
REMARK 924 INTRA-LIGAND FREE ENERGY PREDICTED BY IDOCK:   -0.67 KCAL/MOL
REMARK 927      BINDING AFFINITY PREDICTED BY RF-SCORE:    0.00 PKD
ROOT
HETATM    1  N   UNL     1      -8.747  15.387  69.653  1.00  0.00    -0.359 NA 
HETATM    2  H1  UNL     1      -8.020  16.067  69.876  1.00  0.00     0.000 HD 
HETATM    3  H2  UNL     1      -8.704  14.587  70.283  1.00  0.00     0.000 HD 
HETATM    4  CA  UNL     1      -8.713  14.943  68.222  1.00  0.00    -0.166 C  
HETATM    5  C   UNL     1      -8.884  16.183  67.328  1.00  0.00    -0.186 C  
HETATM    6  OXT UNL     1      -9.039  16.163  66.120  1.00  0.00    -0.304 OA 
HETATM    7  O   UNL     1      -8.835  17.327  68.060  1.00  0.00    -0.227 OA 
ENDROOT
BRANCH   4   8
HETATM    8  C   UNL     1      -9.811  13.917  67.885  1.00  0.00    -0.228 C  
BRANCH   8   9
HETATM    9  C   UNL     1      -9.259  12.539  67.606  1.00  0.00    -0.190 A  
HETATM   10  C   UNL     1      -8.388  11.915  68.505  1.00  0.00    -0.118 A  
HETATM   11  C   UNL     1      -7.844  10.659  68.207  1.00  0.00    -0.113 A  
HETATM   12  I   UNL     1      -6.463   9.875  69.595  1.00  0.00    -0.085 I  
HETATM   13  C   UNL     1      -8.148   9.994  67.002  1.00  0.00    -0.117 A  
HETATM   14  C   UNL     1      -8.950  10.669  66.065  1.00  0.00    -0.172 A  
HETATM   15  C   UNL     1      -9.542  11.900  66.395  1.00  0.00    -0.239 A  
HETATM   16  I   UNL     1      -9.179  10.120  64.034  1.00  0.00    -0.279 I  
BRANCH  13  17
HETATM   17  O   UNL     1      -7.503   8.794  66.807  1.00  0.00    -0.085 OA 
BRANCH  17  18
HETATM   18  C   UNL     1      -8.170   7.592  66.837  1.00  0.00    -0.120 A  
HETATM   19  C   UNL     1      -9.029   7.449  67.931  1.00  0.00    -0.131 A  
HETATM   20  C   UNL     1      -9.646   6.224  68.180  1.00  0.00    -0.115 A  
HETATM   21  I   UNL     1     -10.872   6.057  69.863  1.00  0.00    -0.388 I  
HETATM   22  C   UNL     1      -9.410   5.137  67.333  1.00  0.00    -0.120 A  
HETATM   23  C   UNL     1      -8.620   5.312  66.190  1.00  0.00    -0.120 A  
HETATM   24  O   UNL     1      -9.921   3.900  67.622  1.00  0.00    -0.081 OA 
HETATM   25  H   UNL     1      -9.761   3.161  67.046  1.00  0.00     0.000 HD 
HETATM   26  I   UNL     1      -8.181   3.718  64.904  1.00  0.00    -0.094 I  
HETATM   27  C   UNL     1      -8.035   6.555  65.915  1.00  0.00    -0.115 A  
ENDBRANCH  17  18
ENDBRANCH  13  17
ENDBRANCH   8   9
ENDBRANCH   4   8
TORSDOF 4
ENDMDL
MODEL      217
REMARK 921   NORMALIZED FREE ENERGY PREDICTED BY IDOCK:   -3.22 KCAL/MOL
REMARK 922        TOTAL FREE ENERGY PREDICTED BY IDOCK:   -4.79 KCAL/MOL
REMARK 923 INTER-LIGAND FREE ENERGY PREDICTED BY IDOCK:   -4.68 KCAL/MOL
REMARK 924 INTRA-LIGAND FREE ENERGY PREDICTED BY IDOCK:   -0.11 KCAL/MOL
REMARK 927      BINDING AFFINITY PREDICTED BY RF-SCORE:    0.00 PKD
ROOT
HETATM    1  N   UNL     1      -7.994   8.619  73.670  1.00  0.00    -0.409 NA 
HETATM    2  H1  UNL     1      -7.384   8.800  74.467  1.00  0.00     0.000 HD 
HETATM    3  H2  UNL     1      -8.970   8.783  73.915  1.00  0.00     0.000 HD 
HETATM    4  CA  UNL     1      -7.811   7.250  73.091  1.00  0.00    -0.097 C  
HETATM    5  C   UNL     1      -6.343   7.105  72.651  1.00  0.00    -0.052 C  
HETATM    6  OXT UNL     1      -5.888   6.170  72.017  1.00  0.00    -0.034 OA 
HETATM    7  O   UNL     1      -5.599   8.164  73.067  1.00  0.00    -0.045 OA 
ENDROOT
BRANCH   4   8
HETATM    8  C   UNL     1      -8.732   6.977  71.888  1.00  0.00    -0.127 C  
BRANCH   8   9
HETATM    9  C   UNL     1      -8.855   8.165  70.963  1.00  0.00    -0.163 A  
HETATM   10  C   UNL     1      -7.722   8.839  70.501  1.00  0.00    -0.089 A  
HETATM   11  C   UNL     1      -7.855   9.971  69.685  1.00  0.00    -0.167 A  
HETATM   12  I   UNL     1      -6.073  10.959  69.143  1.00  0.00    -0.063 I  
HETATM   13  C   UNL     1      -9.122  10.464  69.315  1.00  0.00    -0.175 A  
HETATM   14  C   UNL     1     -10.255   9.835  69.859  1.00  0.00    -0.254 A  
HETATM   15  C   UNL     1     -10.117   8.664  70.625  1.00  0.00    -0.237 A  
HETATM   16  I   UNL     1     -12.217  10.629  69.847  1.00  0.00    -0.120 I  
BRANCH  13  17
HETATM   17  O   UNL     1      -9.114  11.614  68.559  1.00  0.00    -0.189 OA 
BRANCH  17  18
HETATM   18  C   UNL     1      -9.310  11.596  67.198  1.00  0.00    -0.174 A  
HETATM   19  C   UNL     1     -10.326  12.451  66.761  1.00  0.00    -0.239 A  
HETATM   20  C   UNL     1     -10.745  12.417  65.432  1.00  0.00    -0.282 A  
HETATM   21  I   UNL     1     -12.307  13.678  64.855  1.00  0.00    -0.409 I  
HETATM   22  C   UNL     1     -10.146  11.530  64.532  1.00  0.00    -0.278 A  
HETATM   23  C   UNL     1      -9.069  10.741  64.955  1.00  0.00    -0.203 A  
HETATM   24  O   UNL     1     -10.616  11.408  63.252  1.00  0.00    -0.517 OA 
HETATM   25  H   UNL     1     -10.210  10.805  62.640  1.00  0.00     0.000 HD 
HETATM   26  I   UNL     1      -8.157   9.353  63.678  1.00  0.00    -0.194 I  
HETATM   27  C   UNL     1      -8.618  10.807  66.280  1.00  0.00    -0.163 A  
ENDBRANCH  17  18
ENDBRANCH  13  17
ENDBRANCH   8   9
ENDBRANCH   4   8
TORSDOF 4
ENDMDL
MODEL      218
REMARK 921   NORMALIZED FREE ENERGY PREDICTED BY IDOCK:   -3.21 KCAL/MOL
REMARK 922        TOTAL FREE ENERGY PREDICTED BY IDOCK:   -4.78 KCAL/MOL
REMARK 923 INTER-LIGAND FREE ENERGY PREDICTED BY IDOCK:   -4.32 KCAL/MOL
REMARK 924 INTRA-LIGAND FREE ENERGY PREDICTED BY IDOCK:   -0.46 KCAL/MOL
REMARK 927      BINDING AFFINITY PREDICTED BY RF-SCORE:    0.00 PKD
ROOT
HETATM    1  N   UNL     1      -7.473   5.183  73.771  1.00  0.00    -0.087 NA 
HETATM    2  H1  UNL     1      -7.969   5.428  74.628  1.00  0.00     0.000 HD 
HETATM    3  H2  UNL     1      -6.505   5.499  73.807  1.00  0.00     0.000 HD 
HETATM    4  CA  UNL     1      -8.155   5.689  72.536  1.00  0.00    -0.103 C  
HETATM    5  C   UNL     1      -9.574   5.096  72.491  1.00  0.00    -0.149 C  
HETATM    6  OXT UNL     1     -10.347   5.191  71.554  1.00  0.00    -0.210 OA 
HETATM    7  O   UNL     1      -9.870   4.442  73.646  1.00  0.00    -0.125 OA 
ENDROOT
BRANCH   4   8
HETATM    8  C   UNL     1      -7.407   5.319  71.242  1.00  0.00    -0.082 C  
BRANCH   8   9
HETATM    9  C   UNL     1      -7.333   6.465  70.260  1.00  0.00    -0.089 A  
HETATM   10  C   UNL     1      -6.748   7.683  70.617  1.00  0.00    -0.042 A  
HETATM   11  C   UNL     1      -6.734   8.753  69.711  1.00  0.00    -0.045 A  
HETATM   12  I   UNL     1      -5.918  10.568  70.408  1.00  0.00    -0.073 I  
HETATM   13  C   UNL     1      -7.310   8.638  68.430  1.00  0.00    -0.086 A  
HETATM   14  C   UNL     1      -7.976   7.441  68.115  1.00  0.00    -0.123 A  
HETATM   15  C   UNL     1      -7.933   6.351  69.002  1.00  0.00    -0.111 A  
HETATM   16  I   UNL     1      -9.296   7.171  66.483  1.00  0.00    -0.116 I  
BRANCH  13  17
HETATM   17  O   UNL     1      -7.279   9.780  67.661  1.00  0.00    -0.087 OA 
BRANCH  17  18
HETATM   18  C   UNL     1      -8.420  10.478  67.345  1.00  0.00    -0.122 A  
HETATM   19  C   UNL     1      -9.312  10.619  68.412  1.00  0.00    -0.163 A  
HETATM   20  C   UNL     1     -10.579  11.161  68.198  1.00  0.00    -0.193 A  
HETATM   21  I   UNL     1     -11.886  11.290  69.821  1.00  0.00    -0.463 I  
HETATM   22  C   UNL     1     -10.957  11.569  66.915  1.00  0.00    -0.296 A  
HETATM   23  C   UNL     1     -10.027  11.508  65.869  1.00  0.00    -0.230 A  
HETATM   24  O   UNL     1     -12.232  12.003  66.666  1.00  0.00    -0.550 OA 
HETATM   25  H   UNL     1     -12.489  12.280  65.794  1.00  0.00     0.000 HD 
HETATM   26  I   UNL     1     -10.540  12.053  63.913  1.00  0.00    -0.590 I  
HETATM   27  C   UNL     1      -8.739  11.005  66.093  1.00  0.00    -0.188 A  
ENDBRANCH  17  18
ENDBRANCH  13  17
ENDBRANCH   8   9
ENDBRANCH   4   8
TORSDOF 4
ENDMDL
MODEL      219
REMARK 921   NORMALIZED FREE ENERGY PREDICTED BY IDOCK:   -3.21 KCAL/MOL
REMARK 922        TOTAL FREE ENERGY PREDICTED BY IDOCK:   -4.78 KCAL/MOL
REMARK 923 INTER-LIGAND FREE ENERGY PREDICTED BY IDOCK:   -5.01 KCAL/MOL
REMARK 924 INTRA-LIGAND FREE ENERGY PREDICTED BY IDOCK:    0.24 KCAL/MOL
REMARK 927      BINDING AFFINITY PREDICTED BY RF-SCORE:    0.00 PKD
ROOT
HETATM    1  N   UNL     1     -11.975  17.287  72.653  1.00  0.00     0.308 NA 
HETATM    2  H1  UNL     1     -12.655  18.046  72.682  1.00  0.00     0.000 HD 
HETATM    3  H2  UNL     1     -11.103  17.596  72.225  1.00  0.00     0.000 HD 
HETATM    4  CA  UNL     1     -12.498  16.058  71.974  1.00  0.00    -0.432 C  
HETATM    5  C   UNL     1     -13.753  15.587  72.728  1.00  0.00    -0.553 C  
HETATM    6  OXT UNL     1     -14.345  14.542  72.525  1.00  0.00    -0.479 OA 
HETATM    7  O   UNL     1     -14.133  16.497  73.664  1.00  0.00    -0.153 OA 
ENDROOT
BRANCH   4   8
HETATM    8  C   UNL     1     -11.470  14.912  71.929  1.00  0.00    -0.251 C  
BRANCH   8   9
HETATM    9  C   UNL     1     -11.704  13.960  70.781  1.00  0.00    -0.142 A  
HETATM   10  C   UNL     1     -12.027  12.619  71.011  1.00  0.00     0.215 A  
HETATM   11  C   UNL     1     -12.190  11.736  69.935  1.00  0.00    -0.223 A  
HETATM   12  I   UNL     1     -12.571   9.719  70.418  1.00  0.00     0.348 I  
HETATM   13  C   UNL     1     -12.028  12.164  68.602  1.00  0.00    -0.237 A  
HETATM   14  C   UNL     1     -11.613  13.490  68.385  1.00  0.00    -0.343 A  
HETATM   15  C   UNL     1     -11.512  14.387  69.463  1.00  0.00    -0.333 A  
HETATM   16  I   UNL     1     -10.862  14.251  66.559  1.00  0.00    -0.325 I  
BRANCH  13  17
HETATM   17  O   UNL     1     -12.160  11.185  67.643  1.00  0.00    -0.537 OA 
BRANCH  17  18
HETATM   18  C   UNL     1     -11.071  10.570  67.073  1.00  0.00    -0.110 A  
HETATM   19  C   UNL     1     -10.795  10.999  65.772  1.00  0.00    -0.167 A  
HETATM   20  C   UNL     1      -9.823  10.349  65.013  1.00  0.00    -0.319 A  
HETATM   21  I   UNL     1      -9.498  11.001  63.056  1.00  0.00    -0.354 I  
HETATM   22  C   UNL     1      -9.120   9.268  65.553  1.00  0.00    -0.221 A  
HETATM   23  C   UNL     1      -9.339   8.900  66.887  1.00  0.00    -0.168 A  
HETATM   24  O   UNL     1      -8.240   8.551  64.787  1.00  0.00    -0.150 OA 
HETATM   25  H   UNL     1      -7.763   7.816  65.154  1.00  0.00     0.000 HD 
HETATM   26  I   UNL     1      -8.362   7.260  67.747  1.00  0.00    -0.116 I  
HETATM   27  C   UNL     1     -10.284   9.582  67.665  1.00  0.00    -0.273 A  
ENDBRANCH  17  18
ENDBRANCH  13  17
ENDBRANCH   8   9
ENDBRANCH   4   8
TORSDOF 4
ENDMDL
MODEL      220
REMARK 921   NORMALIZED FREE ENERGY PREDICTED BY IDOCK:   -3.20 KCAL/MOL
REMARK 922        TOTAL FREE ENERGY PREDICTED BY IDOCK:   -4.77 KCAL/MOL
REMARK 923 INTER-LIGAND FREE ENERGY PREDICTED BY IDOCK:   -4.47 KCAL/MOL
REMARK 924 INTRA-LIGAND FREE ENERGY PREDICTED BY IDOCK:   -0.30 KCAL/MOL
REMARK 927      BINDING AFFINITY PREDICTED BY RF-SCORE:    0.00 PKD
ROOT
HETATM    1  N   UNL     1     -11.662   6.520  70.440  1.00  0.00    -0.408 NA 
HETATM    2  H1  UNL     1     -12.162   5.714  70.065  1.00  0.00     0.000 HD 
HETATM    3  H2  UNL     1     -12.307   7.273  70.674  1.00  0.00     0.000 HD 
HETATM    4  CA  UNL     1     -10.576   7.009  69.531  1.00  0.00    -0.234 C  
HETATM    5  C   UNL     1      -9.585   5.855  69.300  1.00  0.00    -0.141 C  
HETATM    6  OXT UNL     1      -8.516   5.951  68.723  1.00  0.00    -0.111 OA 
HETATM    7  O   UNL     1     -10.054   4.692  69.823  1.00  0.00    -0.234 OA 
ENDROOT
BRANCH   4   8
HETATM    8  C   UNL     1      -9.820   8.225  70.096  1.00  0.00    -0.184 C  
BRANCH   8   9
HETATM    9  C   UNL     1      -9.685   9.348  69.095  1.00  0.00    -0.165 A  
HETATM   10  C   UNL     1      -8.638   9.365  68.169  1.00  0.00    -0.120 A  
HETATM   11  C   UNL     1      -8.497  10.440  67.281  1.00  0.00    -0.122 A  
HETATM   12  I   UNL     1      -6.817  10.398  66.007  1.00  0.00    -0.113 I  
HETATM   13  C   UNL     1      -9.391  11.530  67.298  1.00  0.00    -0.166 A  
HETATM   14  C   UNL     1     -10.384  11.547  68.293  1.00  0.00    -0.197 A  
HETATM   15  C   UNL     1     -10.559  10.438  69.140  1.00  0.00    -0.255 A  
HETATM   16  I   UNL     1     -11.541  13.234  68.835  1.00  0.00    -0.390 I  
BRANCH  13  17
HETATM   17  O   UNL     1      -9.107  12.545  66.414  1.00  0.00    -0.208 OA 
BRANCH  17  18
HETATM   18  C   UNL     1      -8.698  13.788  66.835  1.00  0.00    -0.154 A  
HETATM   19  C   UNL     1      -9.541  14.828  66.431  1.00  0.00    -0.324 A  
HETATM   20  C   UNL     1      -9.167  16.154  66.645  1.00  0.00    -0.246 A  
HETATM   21  I   UNL     1     -10.442  17.662  65.966  1.00  0.00     0.133 I  
HETATM   22  C   UNL     1      -7.951  16.446  67.269  1.00  0.00    -0.168 A  
HETATM   23  C   UNL     1      -7.154  15.400  67.751  1.00  0.00    -0.165 A  
HETATM   24  O   UNL     1      -7.519  17.740  67.392  1.00  0.00    -0.191 OA 
HETATM   25  H   UNL     1      -6.692  17.938  67.816  1.00  0.00     0.000 HD 
HETATM   26  I   UNL     1      -5.296  15.759  68.649  1.00  0.00    -0.113 I  
HETATM   27  C   UNL     1      -7.550  14.067  67.576  1.00  0.00    -0.195 A  
ENDBRANCH  17  18
ENDBRANCH  13  17
ENDBRANCH   8   9
ENDBRANCH   4   8
TORSDOF 4
ENDMDL
MODEL      221
REMARK 921   NORMALIZED FREE ENERGY PREDICTED BY IDOCK:   -3.18 KCAL/MOL
REMARK 922        TOTAL FREE ENERGY PREDICTED BY IDOCK:   -4.74 KCAL/MOL
REMARK 923 INTER-LIGAND FREE ENERGY PREDICTED BY IDOCK:   -4.59 KCAL/MOL
REMARK 924 INTRA-LIGAND FREE ENERGY PREDICTED BY IDOCK:   -0.16 KCAL/MOL
REMARK 927      BINDING AFFINITY PREDICTED BY RF-SCORE:    0.00 PKD
ROOT
HETATM    1  N   UNL     1     -11.505  14.526  67.083  1.00  0.00    -0.354 NA 
HETATM    2  H1  UNL     1     -11.780  15.223  67.774  1.00  0.00     0.000 HD 
HETATM    3  H2  UNL     1     -12.166  13.750  67.064  1.00  0.00     0.000 HD 
HETATM    4  CA  UNL     1     -10.104  14.030  67.278  1.00  0.00    -0.249 C  
HETATM    5  C   UNL     1      -9.150  15.234  67.195  1.00  0.00    -0.210 C  
HETATM    6  OXT UNL     1      -7.934  15.168  67.173  1.00  0.00    -0.193 OA 
HETATM    7  O   UNL     1      -9.840  16.405  67.152  1.00  0.00    -0.240 OA 
ENDROOT
BRANCH   4   8
HETATM    8  C   UNL     1      -9.688  12.978  66.234  1.00  0.00    -0.265 C  
BRANCH   8   9
HETATM    9  C   UNL     1      -9.139  11.718  66.859  1.00  0.00    -0.192 A  
HETATM   10  C   UNL     1      -9.782  10.488  66.687  1.00  0.00    -0.232 A  
HETATM   11  C   UNL     1      -9.288   9.337  67.317  1.00  0.00    -0.131 A  
HETATM   12  I   UNL     1     -10.409   7.569  67.065  1.00  0.00    -0.273 I  
HETATM   13  C   UNL     1      -8.145   9.383  68.140  1.00  0.00    -0.110 A  
HETATM   14  C   UNL     1      -7.560  10.639  68.380  1.00  0.00    -0.100 A  
HETATM   15  C   UNL     1      -8.021  11.778  67.697  1.00  0.00    -0.143 A  
HETATM   16  I   UNL     1      -6.153  11.060  69.903  1.00  0.00    -0.145 I  
BRANCH  13  17
HETATM   17  O   UNL     1      -7.799   8.195  68.743  1.00  0.00    -0.109 OA 
BRANCH  17  18
HETATM   18  C   UNL     1      -8.108   7.925  70.055  1.00  0.00    -0.117 A  
HETATM   19  C   UNL     1      -9.446   8.163  70.382  1.00  0.00    -0.163 A  
HETATM   20  C   UNL     1      -9.865   8.089  71.710  1.00  0.00    -0.183 A  
HETATM   21  I   UNL     1     -11.864   8.513  72.141  1.00  0.00    -0.398 I  
HETATM   22  C   UNL     1      -8.947   7.772  72.716  1.00  0.00    -0.181 A  
HETATM   23  C   UNL     1      -7.629   7.447  72.371  1.00  0.00    -0.084 A  
HETATM   24  O   UNL     1      -9.317   7.799  74.034  1.00  0.00    -0.384 OA 
HETATM   25  H   UNL     1      -8.693   7.584  74.719  1.00  0.00     0.000 HD 
HETATM   26  I   UNL     1      -6.188   7.013  73.828  1.00  0.00    -0.066 I  
HETATM   27  C   UNL     1      -7.219   7.478  71.032  1.00  0.00    -0.066 A  
ENDBRANCH  17  18
ENDBRANCH  13  17
ENDBRANCH   8   9
ENDBRANCH   4   8
TORSDOF 4
ENDMDL
MODEL      222
REMARK 921   NORMALIZED FREE ENERGY PREDICTED BY IDOCK:   -3.15 KCAL/MOL
REMARK 922        TOTAL FREE ENERGY PREDICTED BY IDOCK:   -4.70 KCAL/MOL
REMARK 923 INTER-LIGAND FREE ENERGY PREDICTED BY IDOCK:   -4.95 KCAL/MOL
REMARK 924 INTRA-LIGAND FREE ENERGY PREDICTED BY IDOCK:    0.25 KCAL/MOL
REMARK 927      BINDING AFFINITY PREDICTED BY RF-SCORE:    0.00 PKD
ROOT
HETATM    1  N   UNL     1     -12.229  13.572  67.502  1.00  0.00    -0.311 NA 
HETATM    2  H1  UNL     1     -13.210  13.321  67.622  1.00  0.00     0.000 HD 
HETATM    3  H2  UNL     1     -11.807  13.830  68.394  1.00  0.00     0.000 HD 
HETATM    4  CA  UNL     1     -12.022  14.650  66.482  1.00  0.00    -0.268 C  
HETATM    5  C   UNL     1     -12.589  14.159  65.139  1.00  0.00    -0.408 C  
HETATM    6  OXT UNL     1     -12.463  14.730  64.071  1.00  0.00    -0.803 OA 
HETATM    7  O   UNL     1     -13.266  12.989  65.290  1.00  0.00    -0.636 OA 
ENDROOT
BRANCH   4   8
HETATM    8  C   UNL     1     -10.541  15.031  66.301  1.00  0.00    -0.309 C  
BRANCH   8   9
HETATM    9  C   UNL     1      -9.617  13.840  66.380  1.00  0.00    -0.285 A  
HETATM   10  C   UNL     1      -9.785  12.739  65.535  1.00  0.00    -0.089 A  
HETATM   11  C   UNL     1      -8.950  11.619  65.656  1.00  0.00    -0.015 A  
HETATM   12  I   UNL     1      -9.376   9.984  64.395  1.00  0.00    -0.209 I  
HETATM   13  C   UNL     1      -7.930  11.565  66.627  1.00  0.00    -0.127 A  
HETATM   14  C   UNL     1      -7.828  12.637  67.531  1.00  0.00    -0.175 A  
HETATM   15  C   UNL     1      -8.626  13.783  67.366  1.00  0.00    -0.208 A  
HETATM   16  I   UNL     1      -6.722  12.612  69.335  1.00  0.00     0.213 I  
BRANCH  13  17
HETATM   17  O   UNL     1      -7.220  10.387  66.678  1.00  0.00    -0.102 OA 
BRANCH  17  18
HETATM   18  C   UNL     1      -7.656   9.302  67.399  1.00  0.00    -0.088 A  
HETATM   19  C   UNL     1      -8.730   9.581  68.250  1.00  0.00    -0.120 A  
HETATM   20  C   UNL     1      -9.170   8.620  69.159  1.00  0.00    -0.152 A  
HETATM   21  I   UNL     1     -10.741   9.120  70.441  1.00  0.00    -0.355 I  
HETATM   22  C   UNL     1      -8.541   7.374  69.219  1.00  0.00    -0.137 A  
HETATM   23  C   UNL     1      -7.525   7.069  68.305  1.00  0.00    -0.099 A  
HETATM   24  O   UNL     1      -8.889   6.459  70.177  1.00  0.00    -0.147 OA 
HETATM   25  H   UNL     1      -8.461   5.612  70.218  1.00  0.00     0.000 HD 
HETATM   26  I   UNL     1      -6.501   5.242  68.369  1.00  0.00    -0.043 I  
HETATM   27  C   UNL     1      -7.112   8.018  67.361  1.00  0.00    -0.083 A  
ENDBRANCH  17  18
ENDBRANCH  13  17
ENDBRANCH   8   9
ENDBRANCH   4   8
TORSDOF 4
ENDMDL
MODEL      223
REMARK 921   NORMALIZED FREE ENERGY PREDICTED BY IDOCK:   -3.14 KCAL/MOL
REMARK 922        TOTAL FREE ENERGY PREDICTED BY IDOCK:   -4.69 KCAL/MOL
REMARK 923 INTER-LIGAND FREE ENERGY PREDICTED BY IDOCK:   -5.01 KCAL/MOL
REMARK 924 INTRA-LIGAND FREE ENERGY PREDICTED BY IDOCK:    0.32 KCAL/MOL
REMARK 927      BINDING AFFINITY PREDICTED BY RF-SCORE:    0.00 PKD
ROOT
HETATM    1  N   UNL     1     -13.238   8.423  71.078  1.00  0.00    -0.503 NA 
HETATM    2  H1  UNL     1     -13.467   9.386  71.324  1.00  0.00     0.000 HD 
HETATM    3  H2  UNL     1     -14.084   7.874  70.930  1.00  0.00     0.000 HD 
HETATM    4  CA  UNL     1     -12.340   7.762  72.079  1.00  0.00    -0.294 C  
HETATM    5  C   UNL     1     -11.043   8.584  72.180  1.00  0.00    -0.366 C  
HETATM    6  OXT UNL     1     -10.047   8.253  72.797  1.00  0.00    -0.294 OA 
HETATM    7  O   UNL     1     -11.146   9.750  71.489  1.00  0.00    -0.343 OA 
ENDROOT
BRANCH   4   8
HETATM    8  C   UNL     1     -11.994   6.309  71.708  1.00  0.00    -0.313 C  
BRANCH   8   9
HETATM    9  C   UNL     1     -10.936   6.214  70.634  1.00  0.00    -0.376 A  
HETATM   10  C   UNL     1      -9.808   5.406  70.802  1.00  0.00    -0.252 A  
HETATM   11  C   UNL     1      -8.811   5.369  69.818  1.00  0.00    -0.110 A  
HETATM   12  I   UNL     1      -7.111   4.195  70.240  1.00  0.00    -0.042 I  
HETATM   13  C   UNL     1      -8.909   6.142  68.643  1.00  0.00    -0.114 A  
HETATM   14  C   UNL     1     -10.001   7.020  68.525  1.00  0.00    -0.155 A  
HETATM   15  C   UNL     1     -11.028   7.007  69.485  1.00  0.00    -0.251 A  
HETATM   16  I   UNL     1     -10.155   8.596  67.122  1.00  0.00    -0.371 I  
BRANCH  13  17
HETATM   17  O   UNL     1      -7.836   6.058  67.785  1.00  0.00    -0.102 OA 
BRANCH  17  18
HETATM   18  C   UNL     1      -7.993   5.823  66.440  1.00  0.00    -0.102 A  
HETATM   19  C   UNL     1      -7.348   6.757  65.623  1.00  0.00    -0.079 A  
HETATM   20  C   UNL     1      -7.553   6.739  64.244  1.00  0.00    -0.105 A  
HETATM   21  I   UNL     1      -6.607   8.196  63.086  1.00  0.00    -0.086 I  
HETATM   22  C   UNL     1      -8.402   5.785  63.675  1.00  0.00    -0.016 A  
HETATM   23  C   UNL     1      -8.973   4.798  64.488  1.00  0.00    -0.128 A  
HETATM   24  O   UNL     1      -8.699   5.820  62.339  1.00  0.00    -0.271 OA 
HETATM   25  H   UNL     1      -9.276   5.171  61.952  1.00  0.00     0.000 HD 
HETATM   26  I   UNL     1     -10.295   3.368  63.715  1.00  0.00    -0.215 I  
HETATM   27  C   UNL     1      -8.732   4.788  65.868  1.00  0.00    -0.124 A  
ENDBRANCH  17  18
ENDBRANCH  13  17
ENDBRANCH   8   9
ENDBRANCH   4   8
TORSDOF 4
ENDMDL
MODEL      224
REMARK 921   NORMALIZED FREE ENERGY PREDICTED BY IDOCK:   -3.11 KCAL/MOL
REMARK 922        TOTAL FREE ENERGY PREDICTED BY IDOCK:   -4.66 KCAL/MOL
REMARK 923 INTER-LIGAND FREE ENERGY PREDICTED BY IDOCK:   -4.45 KCAL/MOL
REMARK 924 INTRA-LIGAND FREE ENERGY PREDICTED BY IDOCK:   -0.21 KCAL/MOL
REMARK 927      BINDING AFFINITY PREDICTED BY RF-SCORE:    0.00 PKD
ROOT
HETATM    1  N   UNL     1     -10.276   3.205  72.237  1.00  0.00    -0.142 NA 
HETATM    2  H1  UNL     1     -11.108   3.051  72.806  1.00  0.00     0.000 HD 
HETATM    3  H2  UNL     1     -10.079   2.394  71.652  1.00  0.00     0.000 HD 
HETATM    4  CA  UNL     1      -9.074   3.584  73.048  1.00  0.00    -0.098 C  
HETATM    5  C   UNL     1      -9.403   4.869  73.828  1.00  0.00    -0.128 C  
HETATM    6  OXT UNL     1      -8.605   5.522  74.475  1.00  0.00    -0.110 OA 
HETATM    7  O   UNL     1     -10.718   5.192  73.708  1.00  0.00    -0.263 OA 
ENDROOT
BRANCH   4   8
HETATM    8  C   UNL     1      -7.818   3.816  72.189  1.00  0.00    -0.068 C  
BRANCH   8   9
HETATM    9  C   UNL     1      -8.021   4.871  71.128  1.00  0.00    -0.092 A  
HETATM   10  C   UNL     1      -8.675   4.571  69.929  1.00  0.00    -0.108 A  
HETATM   11  C   UNL     1      -8.810   5.548  68.933  1.00  0.00    -0.107 A  
HETATM   12  I   UNL     1      -9.721   4.939  67.131  1.00  0.00    -0.237 I  
HETATM   13  C   UNL     1      -8.291   6.847  69.103  1.00  0.00    -0.125 A  
HETATM   14  C   UNL     1      -7.556   7.112  70.271  1.00  0.00    -0.090 A  
HETATM   15  C   UNL     1      -7.477   6.149  71.293  1.00  0.00    -0.093 A  
HETATM   16  I   UNL     1      -6.300   8.789  70.571  1.00  0.00    -0.054 I  
BRANCH  13  17
HETATM   17  O   UNL     1      -8.441   7.692  68.027  1.00  0.00    -0.123 OA 
BRANCH  17  18
HETATM   18  C   UNL     1      -9.238   8.811  68.081  1.00  0.00    -0.140 A  
HETATM   19  C   UNL     1      -9.995   8.910  69.252  1.00  0.00    -0.192 A  
HETATM   20  C   UNL     1     -10.966   9.903  69.375  1.00  0.00    -0.230 A  
HETATM   21  I   UNL     1     -12.104   9.961  71.125  1.00  0.00    -0.505 I  
HETATM   22  C   UNL     1     -11.181  10.804  68.329  1.00  0.00    -0.297 A  
HETATM   23  C   UNL     1     -10.358  10.756  67.196  1.00  0.00    -0.224 A  
HETATM   24  O   UNL     1     -12.201  11.716  68.388  1.00  0.00    -0.498 OA 
HETATM   25  H   UNL     1     -12.347  12.329  67.677  1.00  0.00     0.000 HD 
HETATM   26  I   UNL     1     -10.655  12.040  65.568  1.00  0.00    -0.357 I  
HETATM   27  C   UNL     1      -9.353   9.786  67.091  1.00  0.00    -0.169 A  
ENDBRANCH  17  18
ENDBRANCH  13  17
ENDBRANCH   8   9
ENDBRANCH   4   8
TORSDOF 4
ENDMDL
MODEL      225
REMARK 921   NORMALIZED FREE ENERGY PREDICTED BY IDOCK:   -3.08 KCAL/MOL
REMARK 922        TOTAL FREE ENERGY PREDICTED BY IDOCK:   -4.62 KCAL/MOL
REMARK 923 INTER-LIGAND FREE ENERGY PREDICTED BY IDOCK:   -4.01 KCAL/MOL
REMARK 924 INTRA-LIGAND FREE ENERGY PREDICTED BY IDOCK:   -0.61 KCAL/MOL
REMARK 927      BINDING AFFINITY PREDICTED BY RF-SCORE:    0.00 PKD
ROOT
HETATM    1  N   UNL     1     -11.629  15.131  68.144  1.00  0.00    -0.343 NA 
HETATM    2  H1  UNL     1     -12.646  15.174  68.078  1.00  0.00     0.000 HD 
HETATM    3  H2  UNL     1     -11.193  15.585  67.343  1.00  0.00     0.000 HD 
HETATM    4  CA  UNL     1     -11.114  13.734  68.313  1.00  0.00    -0.255 C  
HETATM    5  C   UNL     1     -11.732  13.142  69.591  1.00  0.00    -0.303 C  
HETATM    6  OXT UNL     1     -11.421  12.078  70.096  1.00  0.00    -0.192 OA 
HETATM    7  O   UNL     1     -12.690  13.963  70.098  1.00  0.00    -0.275 OA 
ENDROOT
BRANCH   4   8
HETATM    8  C   UNL     1      -9.579  13.668  68.412  1.00  0.00    -0.203 C  
BRANCH   8   9
HETATM    9  C   UNL     1      -8.972  12.667  67.458  1.00  0.00    -0.187 A  
HETATM   10  C   UNL     1      -9.618  12.323  66.267  1.00  0.00    -0.248 A  
HETATM   11  C   UNL     1      -9.068  11.354  65.417  1.00  0.00    -0.103 A  
HETATM   12  I   UNL     1     -10.193  10.850  63.706  1.00  0.00    -0.159 I  
HETATM   13  C   UNL     1      -7.862  10.697  65.736  1.00  0.00    -0.141 A  
HETATM   14  C   UNL     1      -7.269  10.982  66.978  1.00  0.00    -0.123 A  
HETATM   15  C   UNL     1      -7.791  11.998  67.797  1.00  0.00    -0.145 A  
HETATM   16  I   UNL     1      -5.748   9.833  67.897  1.00  0.00    -0.038 I  
BRANCH  13  17
HETATM   17  O   UNL     1      -7.461   9.727  64.845  1.00  0.00    -0.116 OA 
BRANCH  17  18
HETATM   18  C   UNL     1      -7.728   8.394  65.048  1.00  0.00    -0.104 A  
HETATM   19  C   UNL     1      -7.070   7.543  64.155  1.00  0.00    -0.064 A  
HETATM   20  C   UNL     1      -7.370   6.181  64.136  1.00  0.00    -0.070 A  
HETATM   21  I   UNL     1      -6.395   4.973  62.740  1.00  0.00    -0.026 I  
HETATM   22  C   UNL     1      -8.328   5.664  65.013  1.00  0.00    -0.146 A  
HETATM   23  C   UNL     1      -8.918   6.506  65.965  1.00  0.00    -0.122 A  
HETATM   24  O   UNL     1      -8.712   4.352  64.936  1.00  0.00    -0.124 OA 
HETATM   25  H   UNL     1      -9.364   4.000  65.532  1.00  0.00     0.000 HD 
HETATM   26  I   UNL     1     -10.397   5.813  67.276  1.00  0.00    -0.359 I  
HETATM   27  C   UNL     1      -8.584   7.865  66.014  1.00  0.00    -0.166 A  
ENDBRANCH  17  18
ENDBRANCH  13  17
ENDBRANCH   8   9
ENDBRANCH   4   8
TORSDOF 4
ENDMDL
MODEL      226
REMARK 921   NORMALIZED FREE ENERGY PREDICTED BY IDOCK:   -3.06 KCAL/MOL
REMARK 922        TOTAL FREE ENERGY PREDICTED BY IDOCK:   -4.59 KCAL/MOL
REMARK 923 INTER-LIGAND FREE ENERGY PREDICTED BY IDOCK:   -4.34 KCAL/MOL
REMARK 924 INTRA-LIGAND FREE ENERGY PREDICTED BY IDOCK:   -0.25 KCAL/MOL
REMARK 927      BINDING AFFINITY PREDICTED BY RF-SCORE:    0.00 PKD
ROOT
HETATM    1  N   UNL     1      -8.237   6.029  65.234  1.00  0.00    -0.134 NA 
HETATM    2  H1  UNL     1      -8.791   5.362  64.696  1.00  0.00     0.000 HD 
HETATM    3  H2  UNL     1      -8.740   6.332  66.067  1.00  0.00     0.000 HD 
HETATM    4  CA  UNL     1      -7.788   7.205  64.422  1.00  0.00    -0.115 C  
HETATM    5  C   UNL     1      -6.952   6.685  63.240  1.00  0.00    -0.052 C  
HETATM    6  OXT UNL     1      -6.321   7.381  62.464  1.00  0.00    -0.060 OA 
HETATM    7  O   UNL     1      -7.005   5.329  63.160  1.00  0.00    -0.036 OA 
ENDROOT
BRANCH   4   8
HETATM    8  C   UNL     1      -6.952   8.212  65.233  1.00  0.00    -0.063 C  
BRANCH   8   9
HETATM    9  C   UNL     1      -7.548   8.510  66.588  1.00  0.00    -0.082 A  
HETATM   10  C   UNL     1      -8.739   9.233  66.709  1.00  0.00    -0.138 A  
HETATM   11  C   UNL     1      -9.251   9.546  67.975  1.00  0.00    -0.129 A  
HETATM   12  I   UNL     1     -10.995  10.731  68.021  1.00  0.00    -0.390 I  
HETATM   13  C   UNL     1      -8.587   9.154  69.154  1.00  0.00    -0.133 A  
HETATM   14  C   UNL     1      -7.345   8.508  69.023  1.00  0.00    -0.081 A  
HETATM   15  C   UNL     1      -6.866   8.142  67.753  1.00  0.00    -0.073 A  
HETATM   16  I   UNL     1      -5.943   8.228  70.584  1.00  0.00    -0.034 I  
BRANCH  13  17
HETATM   17  O   UNL     1      -9.166   9.574  70.330  1.00  0.00    -0.242 OA 
BRANCH  17  18
HETATM   18  C   UNL     1     -10.118   8.828  70.984  1.00  0.00    -0.237 A  
HETATM   19  C   UNL     1      -9.665   7.572  71.400  1.00  0.00    -0.180 A  
HETATM   20  C   UNL     1     -10.563   6.646  71.929  1.00  0.00    -0.211 A  
HETATM   21  I   UNL     1      -9.836   4.767  72.479  1.00  0.00    -0.230 I  
HETATM   22  C   UNL     1     -11.917   6.973  72.048  1.00  0.00    -0.298 A  
HETATM   23  C   UNL     1     -12.347   8.263  71.713  1.00  0.00    -0.328 A  
HETATM   24  O   UNL     1     -12.829   6.040  72.465  1.00  0.00    -0.507 OA 
HETATM   25  H   UNL     1     -13.749   6.262  72.545  1.00  0.00     0.000 HD 
HETATM   26  I   UNL     1     -14.367   8.807  71.815  1.00  0.00    -0.184 I  
HETATM   27  C   UNL     1     -11.438   9.209  71.222  1.00  0.00    -0.405 A  
ENDBRANCH  17  18
ENDBRANCH  13  17
ENDBRANCH   8   9
ENDBRANCH   4   8
TORSDOF 4
ENDMDL
MODEL      227
REMARK 921   NORMALIZED FREE ENERGY PREDICTED BY IDOCK:   -3.04 KCAL/MOL
REMARK 922        TOTAL FREE ENERGY PREDICTED BY IDOCK:   -4.57 KCAL/MOL
REMARK 923 INTER-LIGAND FREE ENERGY PREDICTED BY IDOCK:   -4.51 KCAL/MOL
REMARK 924 INTRA-LIGAND FREE ENERGY PREDICTED BY IDOCK:   -0.06 KCAL/MOL
REMARK 927      BINDING AFFINITY PREDICTED BY RF-SCORE:    0.00 PKD
ROOT
HETATM    1  N   UNL     1      -9.721  13.013  65.687  1.00  0.00    -0.457 NA 
HETATM    2  H1  UNL     1      -9.429  13.975  65.518  1.00  0.00     0.000 HD 
HETATM    3  H2  UNL     1      -9.594  12.442  64.852  1.00  0.00     0.000 HD 
HETATM    4  CA  UNL     1     -11.125  12.909  66.198  1.00  0.00    -0.286 C  
HETATM    5  C   UNL     1     -11.222  13.708  67.509  1.00  0.00    -0.294 C  
HETATM    6  OXT UNL     1     -12.184  13.720  68.256  1.00  0.00    -0.335 OA 
HETATM    7  O   UNL     1     -10.085  14.418  67.736  1.00  0.00    -0.223 OA 
ENDROOT
BRANCH   4   8
HETATM    8  C   UNL     1     -11.566  11.456  66.453  1.00  0.00     0.080 C  
BRANCH   8   9
HETATM    9  C   UNL     1     -10.848  10.823  67.621  1.00  0.00    -0.332 A  
HETATM   10  C   UNL     1     -11.534  10.479  68.790  1.00  0.00    -0.291 A  
HETATM   11  C   UNL     1     -10.843   9.940  69.883  1.00  0.00    -0.278 A  
HETATM   12  I   UNL     1     -11.975   9.565  71.623  1.00  0.00    -0.320 I  
HETATM   13  C   UNL     1      -9.450   9.735  69.844  1.00  0.00    -0.231 A  
HETATM   14  C   UNL     1      -8.756  10.168  68.700  1.00  0.00    -0.128 A  
HETATM   15  C   UNL     1      -9.460  10.650  67.583  1.00  0.00    -0.167 A  
HETATM   16  I   UNL     1      -6.657  10.405  68.562  1.00  0.00    -0.054 I  
BRANCH  13  17
HETATM   17  O   UNL     1      -8.887   9.253  71.003  1.00  0.00    -0.218 OA 
BRANCH  17  18
HETATM   18  C   UNL     1      -8.470   7.949  71.126  1.00  0.00    -0.120 A  
HETATM   19  C   UNL     1      -8.989   7.094  70.149  1.00  0.00    -0.145 A  
HETATM   20  C   UNL     1      -8.783   5.718  70.243  1.00  0.00    -0.137 A  
HETATM   21  I   UNL     1      -9.633   4.490  68.784  1.00  0.00    -0.137 I  
HETATM   22  C   UNL     1      -8.054   5.191  71.313  1.00  0.00    -0.113 A  
HETATM   23  C   UNL     1      -7.462   6.060  72.239  1.00  0.00    -0.095 A  
HETATM   24  O   UNL     1      -7.934   3.838  71.479  1.00  0.00    -0.063 OA 
HETATM   25  H   UNL     1      -7.438   3.479  72.207  1.00  0.00     0.000 HD 
HETATM   26  I   UNL     1      -6.400   5.341  73.895  1.00  0.00    -0.076 I  
HETATM   27  C   UNL     1      -7.631   7.446  72.120  1.00  0.00    -0.086 A  
ENDBRANCH  17  18
ENDBRANCH  13  17
ENDBRANCH   8   9
ENDBRANCH   4   8
TORSDOF 4
ENDMDL
MODEL      228
REMARK 921   NORMALIZED FREE ENERGY PREDICTED BY IDOCK:   -3.03 KCAL/MOL
REMARK 922        TOTAL FREE ENERGY PREDICTED BY IDOCK:   -4.56 KCAL/MOL
REMARK 923 INTER-LIGAND FREE ENERGY PREDICTED BY IDOCK:   -4.21 KCAL/MOL
REMARK 924 INTRA-LIGAND FREE ENERGY PREDICTED BY IDOCK:   -0.35 KCAL/MOL
REMARK 927      BINDING AFFINITY PREDICTED BY RF-SCORE:    0.00 PKD
ROOT
HETATM    1  N   UNL     1     -10.356  14.090  68.337  1.00  0.00    -0.245 NA 
HETATM    2  H1  UNL     1      -9.847  14.916  68.649  1.00  0.00     0.000 HD 
HETATM    3  H2  UNL     1     -10.167  13.294  68.946  1.00  0.00     0.000 HD 
HETATM    4  CA  UNL     1     -10.084  13.742  66.905  1.00  0.00    -0.260 C  
HETATM    5  C   UNL     1     -10.483  14.945  66.032  1.00  0.00    -0.316 C  
HETATM    6  OXT UNL     1     -10.521  14.949  64.815  1.00  0.00    -0.398 OA 
HETATM    7  O   UNL     1     -10.791  16.026  66.797  1.00  0.00    -0.294 OA 
ENDROOT
BRANCH   4   8
HETATM    8  C   UNL     1     -10.852  12.493  66.433  1.00  0.00    -0.290 C  
BRANCH   8   9
HETATM    9  C   UNL     1     -10.006  11.243  66.455  1.00  0.00    -0.247 A  
HETATM   10  C   UNL     1      -9.434  10.780  67.644  1.00  0.00    -0.166 A  
HETATM   11  C   UNL     1      -8.609   9.647  67.638  1.00  0.00    -0.126 A  
HETATM   12  I   UNL     1      -7.723   9.115  69.476  1.00  0.00    -0.104 I  
HETATM   13  C   UNL     1      -8.328   8.949  66.446  1.00  0.00    -0.116 A  
HETATM   14  C   UNL     1      -8.832   9.475  65.244  1.00  0.00    -0.184 A  
HETATM   15  C   UNL     1      -9.709  10.574  65.263  1.00  0.00    -0.328 A  
HETATM   16  I   UNL     1      -8.199   8.913  63.304  1.00  0.00    -0.103 I  
BRANCH  13  17
HETATM   17  O   UNL     1      -7.459   7.889  66.570  1.00  0.00    -0.085 OA 
BRANCH  17  18
HETATM   18  C   UNL     1      -7.889   6.584  66.535  1.00  0.00    -0.104 A  
HETATM   19  C   UNL     1      -7.505   5.831  67.649  1.00  0.00    -0.078 A  
HETATM   20  C   UNL     1      -7.730   4.455  67.675  1.00  0.00    -0.084 A  
HETATM   21  I   UNL     1      -7.081   3.379  69.342  1.00  0.00    -0.041 I  
HETATM   22  C   UNL     1      -8.344   3.826  66.587  1.00  0.00    -0.104 A  
HETATM   23  C   UNL     1      -8.806   4.599  65.514  1.00  0.00    -0.134 A  
HETATM   24  O   UNL     1      -8.475   2.464  66.549  1.00  0.00    -0.089 OA 
HETATM   25  H   UNL     1      -8.892   2.036  65.810  1.00  0.00     0.000 HD 
HETATM   26  I   UNL     1      -9.687   3.721  63.829  1.00  0.00    -0.164 I  
HETATM   27  C   UNL     1      -8.620   5.987  65.508  1.00  0.00    -0.145 A  
ENDBRANCH  17  18
ENDBRANCH  13  17
ENDBRANCH   8   9
ENDBRANCH   4   8
TORSDOF 4
ENDMDL
MODEL      229
REMARK 921   NORMALIZED FREE ENERGY PREDICTED BY IDOCK:   -3.01 KCAL/MOL
REMARK 922        TOTAL FREE ENERGY PREDICTED BY IDOCK:   -4.54 KCAL/MOL
REMARK 923 INTER-LIGAND FREE ENERGY PREDICTED BY IDOCK:   -4.12 KCAL/MOL
REMARK 924 INTRA-LIGAND FREE ENERGY PREDICTED BY IDOCK:   -0.42 KCAL/MOL
REMARK 927      BINDING AFFINITY PREDICTED BY RF-SCORE:    0.00 PKD
ROOT
HETATM    1  N   UNL     1      -6.027   4.046  70.375  1.00  0.00    -0.017 NA 
HETATM    2  H1  UNL     1      -5.406   3.257  70.193  1.00  0.00     0.000 HD 
HETATM    3  H2  UNL     1      -5.494   4.882  70.610  1.00  0.00     0.000 HD 
HETATM    4  CA  UNL     1      -7.052   3.751  71.427  1.00  0.00    -0.032 C  
HETATM    5  C   UNL     1      -7.885   2.544  70.965  1.00  0.00    -0.046 C  
HETATM    6  OXT UNL     1      -8.888   2.128  71.517  1.00  0.00    -0.065 OA 
HETATM    7  O   UNL     1      -7.355   1.981  69.846  1.00  0.00    -0.036 OA 
ENDROOT
BRANCH   4   8
HETATM    8  C   UNL     1      -7.989   4.941  71.703  1.00  0.00    -0.111 C  
BRANCH   8   9
HETATM    9  C   UNL     1      -8.038   5.926  70.558  1.00  0.00    -0.111 A  
HETATM   10  C   UNL     1      -7.389   7.162  70.642  1.00  0.00    -0.075 A  
HETATM   11  C   UNL     1      -7.487   8.085  69.593  1.00  0.00    -0.091 A  
HETATM   12  I   UNL     1      -6.553   9.952  69.888  1.00  0.00    -0.128 I  
HETATM   13  C   UNL     1      -8.240   7.804  68.434  1.00  0.00    -0.124 A  
HETATM   14  C   UNL     1      -8.962   6.598  68.399  1.00  0.00    -0.123 A  
HETATM   15  C   UNL     1      -8.811   5.650  69.426  1.00  0.00    -0.114 A  
HETATM   16  I   UNL     1     -10.503   6.138  67.023  1.00  0.00    -0.398 I  
BRANCH  13  17
HETATM   17  O   UNL     1      -8.300   8.817  67.505  1.00  0.00    -0.109 OA 
BRANCH  17  18
HETATM   18  C   UNL     1      -9.365   9.684  67.438  1.00  0.00    -0.134 A  
HETATM   19  C   UNL     1      -9.508  10.310  66.196  1.00  0.00    -0.229 A  
HETATM   20  C   UNL     1     -10.442  11.333  66.032  1.00  0.00    -0.257 A  
HETATM   21  I   UNL     1     -10.567  12.266  64.168  1.00  0.00    -0.534 I  
HETATM   22  C   UNL     1     -11.239  11.732  67.109  1.00  0.00    -0.316 A  
HETATM   23  C   UNL     1     -11.152  11.041  68.324  1.00  0.00    -0.257 A  
HETATM   24  O   UNL     1     -12.083  12.804  66.995  1.00  0.00    -0.432 OA 
HETATM   25  H   UNL     1     -12.625  13.075  67.728  1.00  0.00     0.000 HD 
HETATM   26  I   UNL     1     -12.277  11.616  69.995  1.00  0.00    -0.188 I  
HETATM   27  C   UNL     1     -10.246   9.984  68.477  1.00  0.00    -0.196 A  
ENDBRANCH  17  18
ENDBRANCH  13  17
ENDBRANCH   8   9
ENDBRANCH   4   8
TORSDOF 4
ENDMDL
MODEL      230
REMARK 921   NORMALIZED FREE ENERGY PREDICTED BY IDOCK:   -3.01 KCAL/MOL
REMARK 922        TOTAL FREE ENERGY PREDICTED BY IDOCK:   -4.53 KCAL/MOL
REMARK 923 INTER-LIGAND FREE ENERGY PREDICTED BY IDOCK:   -3.82 KCAL/MOL
REMARK 924 INTRA-LIGAND FREE ENERGY PREDICTED BY IDOCK:   -0.72 KCAL/MOL
REMARK 927      BINDING AFFINITY PREDICTED BY RF-SCORE:    0.00 PKD
ROOT
HETATM    1  N   UNL     1     -10.846  15.504  66.505  1.00  0.00    -0.308 NA 
HETATM    2  H1  UNL     1     -11.839  15.599  66.293  1.00  0.00     0.000 HD 
HETATM    3  H2  UNL     1     -10.302  15.382  65.651  1.00  0.00     0.000 HD 
HETATM    4  CA  UNL     1     -10.559  14.407  67.484  1.00  0.00    -0.265 C  
HETATM    5  C   UNL     1     -11.330  14.705  68.782  1.00  0.00    -0.281 C  
HETATM    6  OXT UNL     1     -11.212  14.089  69.826  1.00  0.00    -0.215 OA 
HETATM    7  O   UNL     1     -12.178  15.755  68.620  1.00  0.00    -0.170 OA 
ENDROOT
BRANCH   4   8
HETATM    8  C   UNL     1      -9.060  14.263  67.803  1.00  0.00    -0.195 C  
BRANCH   8   9
HETATM    9  C   UNL     1      -8.589  12.828  67.772  1.00  0.00    -0.184 A  
HETATM   10  C   UNL     1      -7.693  12.343  68.729  1.00  0.00    -0.007 A  
HETATM   11  C   UNL     1      -7.226  11.023  68.655  1.00  0.00    -0.091 A  
HETATM   12  I   UNL     1      -5.796  10.447  70.094  1.00  0.00    -0.113 I  
HETATM   13  C   UNL     1      -7.635  10.155  67.623  1.00  0.00    -0.090 A  
HETATM   14  C   UNL     1      -8.463  10.680  66.615  1.00  0.00    -0.137 A  
HETATM   15  C   UNL     1      -8.978  11.984  66.727  1.00  0.00    -0.198 A  
HETATM   16  I   UNL     1      -8.845   9.762  64.747  1.00  0.00    -0.293 I  
BRANCH  13  17
HETATM   17  O   UNL     1      -7.058   8.906  67.634  1.00  0.00    -0.074 OA 
BRANCH  17  18
HETATM   18  C   UNL     1      -7.648   7.835  68.263  1.00  0.00    -0.109 A  
HETATM   19  C   UNL     1      -6.942   6.636  68.122  1.00  0.00    -0.077 A  
HETATM   20  C   UNL     1      -7.501   5.439  68.567  1.00  0.00    -0.076 A  
HETATM   21  I   UNL     1      -6.421   3.675  68.274  1.00  0.00    -0.038 I  
HETATM   22  C   UNL     1      -8.767   5.436  69.160  1.00  0.00    -0.101 A  
HETATM   23  C   UNL     1      -9.429   6.650  69.379  1.00  0.00    -0.146 A  
HETATM   24  O   UNL     1      -9.375   4.259  69.505  1.00  0.00    -0.128 OA 
HETATM   25  H   UNL     1     -10.236   4.256  69.907  1.00  0.00     0.000 HD 
HETATM   26  I   UNL     1     -11.349   6.718  70.213  1.00  0.00    -0.374 I  
HETATM   27  C   UNL     1      -8.849   7.859  68.972  1.00  0.00    -0.145 A  
ENDBRANCH  17  18
ENDBRANCH  13  17
ENDBRANCH   8   9
ENDBRANCH   4   8
TORSDOF 4
ENDMDL
MODEL      231
REMARK 921   NORMALIZED FREE ENERGY PREDICTED BY IDOCK:   -2.98 KCAL/MOL
REMARK 922        TOTAL FREE ENERGY PREDICTED BY IDOCK:   -4.50 KCAL/MOL
REMARK 923 INTER-LIGAND FREE ENERGY PREDICTED BY IDOCK:   -4.23 KCAL/MOL
REMARK 924 INTRA-LIGAND FREE ENERGY PREDICTED BY IDOCK:   -0.28 KCAL/MOL
REMARK 927      BINDING AFFINITY PREDICTED BY RF-SCORE:    0.00 PKD
ROOT
HETATM    1  N   UNL     1      -9.883   5.123  66.642  1.00  0.00    -0.168 NA 
HETATM    2  H1  UNL     1     -10.757   4.638  66.840  1.00  0.00     0.000 HD 
HETATM    3  H2  UNL     1      -9.796   5.325  65.646  1.00  0.00     0.000 HD 
HETATM    4  CA  UNL     1      -8.678   4.387  67.145  1.00  0.00    -0.105 C  
HETATM    5  C   UNL     1      -8.825   4.205  68.665  1.00  0.00    -0.104 C  
HETATM    6  OXT UNL     1      -7.963   3.771  69.408  1.00  0.00    -0.055 OA 
HETATM    7  O   UNL     1     -10.058   4.590  69.089  1.00  0.00    -0.154 OA 
ENDROOT
BRANCH   4   8
HETATM    8  C   UNL     1      -7.357   5.120  66.844  1.00  0.00    -0.086 C  
BRANCH   8   9
HETATM    9  C   UNL     1      -7.437   6.604  67.111  1.00  0.00    -0.088 A  
HETATM   10  C   UNL     1      -7.123   7.128  68.369  1.00  0.00    -0.085 A  
HETATM   11  C   UNL     1      -7.252   8.502  68.615  1.00  0.00    -0.080 A  
HETATM   12  I   UNL     1      -6.851   9.150  70.581  1.00  0.00    -0.108 I  
HETATM   13  C   UNL     1      -7.703   9.388  67.616  1.00  0.00    -0.088 A  
HETATM   14  C   UNL     1      -8.102   8.840  66.385  1.00  0.00    -0.103 A  
HETATM   15  C   UNL     1      -7.913   7.471  66.123  1.00  0.00    -0.111 A  
HETATM   16  I   UNL     1      -9.227   9.851  64.905  1.00  0.00    -0.302 I  
BRANCH  13  17
HETATM   17  O   UNL     1      -7.838  10.702  68.005  1.00  0.00    -0.102 OA 
BRANCH  17  18
HETATM   18  C   UNL     1      -9.063  11.258  68.286  1.00  0.00    -0.173 A  
HETATM   19  C   UNL     1      -9.256  12.520  67.717  1.00  0.00    -0.198 A  
HETATM   20  C   UNL     1     -10.382  13.272  68.050  1.00  0.00    -0.241 A  
HETATM   21  I   UNL     1     -10.583  15.174  67.211  1.00  0.00    -0.299 I  
HETATM   22  C   UNL     1     -11.322  12.763  68.950  1.00  0.00    -0.296 A  
HETATM   23  C   UNL     1     -11.169  11.463  69.446  1.00  0.00    -0.268 A  
HETATM   24  O   UNL     1     -12.377  13.530  69.369  1.00  0.00    -0.262 OA 
HETATM   25  H   UNL     1     -13.016  13.184  69.981  1.00  0.00     0.000 HD 
HETATM   26  I   UNL     1     -12.509  10.654  70.838  1.00  0.00    -0.527 I  
HETATM   27  C   UNL     1     -10.060  10.689  69.078  1.00  0.00    -0.226 A  
ENDBRANCH  17  18
ENDBRANCH  13  17
ENDBRANCH   8   9
ENDBRANCH   4   8
TORSDOF 4
ENDMDL
MODEL      232
REMARK 921   NORMALIZED FREE ENERGY PREDICTED BY IDOCK:   -2.98 KCAL/MOL
REMARK 922        TOTAL FREE ENERGY PREDICTED BY IDOCK:   -4.49 KCAL/MOL
REMARK 923 INTER-LIGAND FREE ENERGY PREDICTED BY IDOCK:   -5.57 KCAL/MOL
REMARK 924 INTRA-LIGAND FREE ENERGY PREDICTED BY IDOCK:    1.08 KCAL/MOL
REMARK 927      BINDING AFFINITY PREDICTED BY RF-SCORE:    0.00 PKD
ROOT
HETATM    1  N   UNL     1     -11.231  13.159  69.911  1.00  0.00    -0.487 NA 
HETATM    2  H1  UNL     1     -11.258  14.136  69.618  1.00  0.00     0.000 HD 
HETATM    3  H2  UNL     1     -10.929  12.557  69.146  1.00  0.00     0.000 HD 
HETATM    4  CA  UNL     1     -12.532  12.685  70.484  1.00  0.00    -0.193 C  
HETATM    5  C   UNL     1     -12.878  13.571  71.693  1.00  0.00    -0.329 C  
HETATM    6  OXT UNL     1     -13.796  13.374  72.469  1.00  0.00    -0.668 OA 
HETATM    7  O   UNL     1     -12.024  14.624  71.791  1.00  0.00    -0.345 OA 
ENDROOT
BRANCH   4   8
HETATM    8  C   UNL     1     -12.491  11.211  70.927  1.00  0.00    -0.509 C  
BRANCH   8   9
HETATM    9  C   UNL     1     -11.342  10.447  70.315  1.00  0.00    -0.406 A  
HETATM   10  C   UNL     1     -11.112  10.472  68.936  1.00  0.00    -0.312 A  
HETATM   11  C   UNL     1     -10.073   9.716  68.378  1.00  0.00    -0.176 A  
HETATM   12  I   UNL     1      -9.899   9.757  66.277  1.00  0.00    -0.306 I  
HETATM   13  C   UNL     1      -9.240   8.909  69.178  1.00  0.00    -0.144 A  
HETATM   14  C   UNL     1      -9.536   8.818  70.550  1.00  0.00    -0.191 A  
HETATM   15  C   UNL     1     -10.539   9.625  71.113  1.00  0.00    -0.327 A  
HETATM   16  I   UNL     1      -8.762   7.359  71.872  1.00  0.00    -0.151 I  
BRANCH  13  17
HETATM   17  O   UNL     1      -8.295   8.173  68.499  1.00  0.00    -0.124 OA 
BRANCH  17  18
HETATM   18  C   UNL     1      -8.459   6.833  68.241  1.00  0.00    -0.125 A  
HETATM   19  C   UNL     1      -7.941   5.997  69.235  1.00  0.00    -0.103 A  
HETATM   20  C   UNL     1      -7.890   4.619  69.032  1.00  0.00    -0.071 A  
HETATM   21  I   UNL     1      -7.053   3.430  70.531  1.00  0.00    -0.033 I  
HETATM   22  C   UNL     1      -8.361   4.070  67.836  1.00  0.00    -0.093 A  
HETATM   23  C   UNL     1      -8.959   4.903  66.882  1.00  0.00    -0.109 A  
HETATM   24  O   UNL     1      -8.221   2.732  67.576  1.00  0.00    -0.078 OA 
HETATM   25  H   UNL     1      -8.540   2.359  66.763  1.00  0.00     0.000 HD 
HETATM   26  I   UNL     1      -9.639   4.159  65.046  1.00  0.00    -0.176 I  
HETATM   27  C   UNL     1      -9.051   6.283  67.104  1.00  0.00    -0.119 A  
ENDBRANCH  17  18
ENDBRANCH  13  17
ENDBRANCH   8   9
ENDBRANCH   4   8
TORSDOF 4
ENDMDL
MODEL      233
REMARK 921   NORMALIZED FREE ENERGY PREDICTED BY IDOCK:   -2.97 KCAL/MOL
REMARK 922        TOTAL FREE ENERGY PREDICTED BY IDOCK:   -4.49 KCAL/MOL
REMARK 923 INTER-LIGAND FREE ENERGY PREDICTED BY IDOCK:   -3.72 KCAL/MOL
REMARK 924 INTRA-LIGAND FREE ENERGY PREDICTED BY IDOCK:   -0.76 KCAL/MOL
REMARK 927      BINDING AFFINITY PREDICTED BY RF-SCORE:    0.00 PKD
ROOT
HETATM    1  N   UNL     1      -7.081  11.554  65.492  1.00  0.00     0.156 NA 
HETATM    2  H1  UNL     1      -6.765  11.255  64.569  1.00  0.00     0.000 HD 
HETATM    3  H2  UNL     1      -6.289  11.733  66.108  1.00  0.00     0.000 HD 
HETATM    4  CA  UNL     1      -8.042  10.592  66.121  1.00  0.00    -0.154 C  
HETATM    5  C   UNL     1      -9.257  10.445  65.189  1.00  0.00    -0.208 C  
HETATM    6  OXT UNL     1     -10.283   9.847  65.461  1.00  0.00    -0.273 OA 
HETATM    7  O   UNL     1      -9.044  11.069  64.001  1.00  0.00    -0.179 OA 
ENDROOT
BRANCH   4   8
HETATM    8  C   UNL     1      -8.519  11.044  67.514  1.00  0.00    -0.127 C  
BRANCH   8   9
HETATM    9  C   UNL     1      -8.557   9.914  68.515  1.00  0.00    -0.117 A  
HETATM   10  C   UNL     1      -9.658   9.734  69.358  1.00  0.00    -0.218 A  
HETATM   11  C   UNL     1      -9.656   8.713  70.317  1.00  0.00    -0.170 A  
HETATM   12  I   UNL     1     -11.329   8.615  71.597  1.00  0.00    -0.458 I  
HETATM   13  C   UNL     1      -8.553   7.847  70.466  1.00  0.00    -0.131 A  
HETATM   14  C   UNL     1      -7.415   8.094  69.677  1.00  0.00    -0.086 A  
HETATM   15  C   UNL     1      -7.447   9.079  68.675  1.00  0.00    -0.084 A  
HETATM   16  I   UNL     1      -5.496   7.266  70.010  1.00  0.00    -0.024 I  
BRANCH  13  17
HETATM   17  O   UNL     1      -8.655   6.925  71.482  1.00  0.00    -0.122 OA 
BRANCH  17  18
HETATM   18  C   UNL     1      -9.056   5.630  71.255  1.00  0.00    -0.143 A  
HETATM   19  C   UNL     1      -9.526   4.974  72.398  1.00  0.00    -0.166 A  
HETATM   20  C   UNL     1      -9.814   3.611  72.353  1.00  0.00    -0.160 A  
HETATM   21  I   UNL     1     -10.457   2.678  74.107  1.00  0.00    -0.221 I  
HETATM   22  C   UNL     1      -9.636   2.897  71.164  1.00  0.00    -0.156 A  
HETATM   23  C   UNL     1      -9.251   3.577  70.002  1.00  0.00    -0.156 A  
HETATM   24  O   UNL     1      -9.811   1.539  71.130  1.00  0.00    -0.132 OA 
HETATM   25  H   UNL     1      -9.690   1.054  70.322  1.00  0.00     0.000 HD 
HETATM   26  I   UNL     1      -8.915   2.566  68.199  1.00  0.00    -0.254 I  
HETATM   27  C   UNL     1      -9.005   4.956  70.035  1.00  0.00    -0.143 A  
ENDBRANCH  17  18
ENDBRANCH  13  17
ENDBRANCH   8   9
ENDBRANCH   4   8
TORSDOF 4
ENDMDL
MODEL      234
REMARK 921   NORMALIZED FREE ENERGY PREDICTED BY IDOCK:   -2.97 KCAL/MOL
REMARK 922        TOTAL FREE ENERGY PREDICTED BY IDOCK:   -4.48 KCAL/MOL
REMARK 923 INTER-LIGAND FREE ENERGY PREDICTED BY IDOCK:   -3.98 KCAL/MOL
REMARK 924 INTRA-LIGAND FREE ENERGY PREDICTED BY IDOCK:   -0.50 KCAL/MOL
REMARK 927      BINDING AFFINITY PREDICTED BY RF-SCORE:    0.00 PKD
ROOT
HETATM    1  N   UNL     1      -5.822   5.318  64.256  1.00  0.00    -0.020 NA 
HETATM    2  H1  UNL     1      -6.193   4.998  63.362  1.00  0.00     0.000 HD 
HETATM    3  H2  UNL     1      -5.919   4.597  64.970  1.00  0.00     0.000 HD 
HETATM    4  CA  UNL     1      -6.433   6.608  64.713  1.00  0.00    -0.042 C  
HETATM    5  C   UNL     1      -6.165   7.676  63.639  1.00  0.00    -0.054 C  
HETATM    6  OXT UNL     1      -6.404   8.865  63.754  1.00  0.00    -0.086 OA 
HETATM    7  O   UNL     1      -5.623   7.124  62.522  1.00  0.00    -0.036 OA 
ENDROOT
BRANCH   4   8
HETATM    8  C   UNL     1      -5.875   7.092  66.064  1.00  0.00    -0.036 C  
BRANCH   8   9
HETATM    9  C   UNL     1      -6.887   7.868  66.873  1.00  0.00    -0.072 A  
HETATM   10  C   UNL     1      -6.532   9.048  67.532  1.00  0.00    -0.064 A  
HETATM   11  C   UNL     1      -7.470   9.728  68.321  1.00  0.00    -0.080 A  
HETATM   12  I   UNL     1      -6.779  11.435  69.348  1.00  0.00    -0.033 I  
HETATM   13  C   UNL     1      -8.785   9.246  68.478  1.00  0.00    -0.128 A  
HETATM   14  C   UNL     1      -9.106   8.012  67.886  1.00  0.00    -0.132 A  
HETATM   15  C   UNL     1      -8.181   7.366  67.046  1.00  0.00    -0.121 A  
HETATM   16  I   UNL     1     -10.819   6.852  68.332  1.00  0.00    -0.132 I  
BRANCH  13  17
HETATM   17  O   UNL     1      -9.589   9.977  69.323  1.00  0.00    -0.191 OA 
BRANCH  17  18
HETATM   18  C   UNL     1     -10.399  10.990  68.868  1.00  0.00    -0.205 A  
HETATM   19  C   UNL     1     -10.509  11.044  67.475  1.00  0.00    -0.244 A  
HETATM   20  C   UNL     1     -11.164  12.113  66.866  1.00  0.00    -0.320 A  
HETATM   21  I   UNL     1     -11.245  12.165  64.780  1.00  0.00    -0.376 I  
HETATM   22  C   UNL     1     -11.715  13.133  67.648  1.00  0.00    -0.369 A  
HETATM   23  C   UNL     1     -11.679  13.027  69.045  1.00  0.00    -0.329 A  
HETATM   24  O   UNL     1     -12.267  14.242  67.065  1.00  0.00    -0.526 OA 
HETATM   25  H   UNL     1     -12.641  14.935  67.597  1.00  0.00     0.000 HD 
HETATM   26  I   UNL     1     -12.437  14.540  70.280  1.00  0.00    -0.276 I  
HETATM   27  C   UNL     1     -11.060  11.930  69.657  1.00  0.00    -0.106 A  
ENDBRANCH  17  18
ENDBRANCH  13  17
ENDBRANCH   8   9
ENDBRANCH   4   8
TORSDOF 4
ENDMDL
MODEL      235
REMARK 921   NORMALIZED FREE ENERGY PREDICTED BY IDOCK:   -2.90 KCAL/MOL
REMARK 922        TOTAL FREE ENERGY PREDICTED BY IDOCK:   -4.40 KCAL/MOL
REMARK 923 INTER-LIGAND FREE ENERGY PREDICTED BY IDOCK:   -4.69 KCAL/MOL
REMARK 924 INTRA-LIGAND FREE ENERGY PREDICTED BY IDOCK:    0.30 KCAL/MOL
REMARK 927      BINDING AFFINITY PREDICTED BY RF-SCORE:    0.00 PKD
ROOT
HETATM    1  N   UNL     1      -9.292   9.102  63.877  1.00  0.00    -0.299 NA 
HETATM    2  H1  UNL     1      -9.740   8.379  63.313  1.00  0.00     0.000 HD 
HETATM    3  H2  UNL     1      -9.820   9.973  63.836  1.00  0.00     0.000 HD 
HETATM    4  CA  UNL     1      -7.858   9.328  63.506  1.00  0.00    -0.129 C  
HETATM    5  C   UNL     1      -7.099   8.002  63.684  1.00  0.00    -0.078 C  
HETATM    6  OXT UNL     1      -5.891   7.866  63.602  1.00  0.00    -0.056 OA 
HETATM    7  O   UNL     1      -7.954   6.978  63.945  1.00  0.00    -0.123 OA 
ENDROOT
BRANCH   4   8
HETATM    8  C   UNL     1      -7.183  10.420  64.356  1.00  0.00     0.002 C  
BRANCH   8   9
HETATM    9  C   UNL     1      -7.579  10.358  65.812  1.00  0.00    -0.147 A  
HETATM   10  C   UNL     1      -6.803   9.659  66.741  1.00  0.00    -0.084 A  
HETATM   11  C   UNL     1      -7.212   9.568  68.079  1.00  0.00    -0.081 A  
HETATM   12  I   UNL     1      -6.009   8.397  69.356  1.00  0.00    -0.038 I  
HETATM   13  C   UNL     1      -8.409  10.165  68.523  1.00  0.00    -0.116 A  
HETATM   14  C   UNL     1      -9.227  10.785  67.564  1.00  0.00    -0.143 A  
HETATM   15  C   UNL     1      -8.783  10.928  66.237  1.00  0.00    -0.175 A  
HETATM   16  I   UNL     1     -11.248  11.342  67.859  1.00  0.00    -0.373 I  
BRANCH  13  17
HETATM   17  O   UNL     1      -8.723   9.952  69.846  1.00  0.00    -0.205 OA 
BRANCH  17  18
HETATM   18  C   UNL     1      -9.576   8.950  70.243  1.00  0.00    -0.186 A  
HETATM   19  C   UNL     1     -10.795   9.411  70.748  1.00  0.00    -0.372 A  
HETATM   20  C   UNL     1     -11.691   8.519  71.337  1.00  0.00    -0.294 A  
HETATM   21  I   UNL     1     -13.469   9.280  72.125  1.00  0.00    -0.478 I  
HETATM   22  C   UNL     1     -11.373   7.161  71.419  1.00  0.00    -0.259 A  
HETATM   23  C   UNL     1     -10.191   6.692  70.832  1.00  0.00    -0.196 A  
HETATM   24  O   UNL     1     -12.190   6.289  72.088  1.00  0.00    -0.433 OA 
HETATM   25  H   UNL     1     -11.974   5.365  72.145  1.00  0.00     0.000 HD 
HETATM   26  I   UNL     1      -9.623   4.680  70.961  1.00  0.00    -0.276 I  
HETATM   27  C   UNL     1      -9.311   7.581  70.201  1.00  0.00    -0.157 A  
ENDBRANCH  17  18
ENDBRANCH  13  17
ENDBRANCH   8   9
ENDBRANCH   4   8
TORSDOF 4
ENDMDL
MODEL      236
REMARK 921   NORMALIZED FREE ENERGY PREDICTED BY IDOCK:   -2.89 KCAL/MOL
REMARK 922        TOTAL FREE ENERGY PREDICTED BY IDOCK:   -4.38 KCAL/MOL
REMARK 923 INTER-LIGAND FREE ENERGY PREDICTED BY IDOCK:   -4.54 KCAL/MOL
REMARK 924 INTRA-LIGAND FREE ENERGY PREDICTED BY IDOCK:    0.16 KCAL/MOL
REMARK 927      BINDING AFFINITY PREDICTED BY RF-SCORE:    0.00 PKD
ROOT
HETATM    1  N   UNL     1     -10.396   2.935  64.603  1.00  0.00    -0.372 NA 
HETATM    2  H1  UNL     1     -11.141   2.919  63.906  1.00  0.00     0.000 HD 
HETATM    3  H2  UNL     1     -10.761   2.721  65.530  1.00  0.00     0.000 HD 
HETATM    4  CA  UNL     1      -9.633   4.225  64.612  1.00  0.00    -0.157 C  
HETATM    5  C   UNL     1      -9.027   4.437  63.215  1.00  0.00    -0.132 C  
HETATM    6  OXT UNL     1      -8.235   5.314  62.917  1.00  0.00    -0.096 OA 
HETATM    7  O   UNL     1      -9.492   3.513  62.332  1.00  0.00    -0.088 OA 
ENDROOT
BRANCH   4   8
HETATM    8  C   UNL     1      -8.509   4.250  65.665  1.00  0.00    -0.114 C  
BRANCH   8   9
HETATM    9  C   UNL     1      -8.618   5.422  66.611  1.00  0.00    -0.115 A  
HETATM   10  C   UNL     1      -9.574   5.438  67.631  1.00  0.00    -0.142 A  
HETATM   11  C   UNL     1      -9.696   6.556  68.468  1.00  0.00    -0.129 A  
HETATM   12  I   UNL     1     -11.246   6.499  69.897  1.00  0.00    -0.391 I  
HETATM   13  C   UNL     1      -8.874   7.689  68.305  1.00  0.00    -0.125 A  
HETATM   14  C   UNL     1      -7.981   7.700  67.220  1.00  0.00    -0.118 A  
HETATM   15  C   UNL     1      -7.818   6.554  66.423  1.00  0.00    -0.104 A  
HETATM   16  I   UNL     1      -6.982   9.412  66.478  1.00  0.00    -0.086 I  
BRANCH  13  17
HETATM   17  O   UNL     1      -9.136   8.739  69.155  1.00  0.00    -0.140 OA 
BRANCH  17  18
HETATM   18  C   UNL     1     -10.027   9.735  68.834  1.00  0.00    -0.176 A  
HETATM   19  C   UNL     1     -10.041  10.067  67.476  1.00  0.00    -0.243 A  
HETATM   20  C   UNL     1     -10.775  11.166  67.032  1.00  0.00    -0.268 A  
HETATM   21  I   UNL     1     -10.708  11.644  65.001  1.00  0.00    -0.313 I  
HETATM   22  C   UNL     1     -11.501  11.937  67.944  1.00  0.00    -0.316 A  
HETATM   23  C   UNL     1     -11.555  11.546  69.289  1.00  0.00    -0.322 A  
HETATM   24  O   UNL     1     -12.139  13.080  67.543  1.00  0.00    -0.333 OA 
HETATM   25  H   UNL     1     -12.634  13.604  68.164  1.00  0.00     0.000 HD 
HETATM   26  I   UNL     1     -12.581  12.680  70.721  1.00  0.00     0.080 I  
HETATM   27  C   UNL     1     -10.854  10.416  69.728  1.00  0.00    -0.342 A  
ENDBRANCH  17  18
ENDBRANCH  13  17
ENDBRANCH   8   9
ENDBRANCH   4   8
TORSDOF 4
ENDMDL
MODEL      237
REMARK 921   NORMALIZED FREE ENERGY PREDICTED BY IDOCK:   -2.86 KCAL/MOL
REMARK 922        TOTAL FREE ENERGY PREDICTED BY IDOCK:   -4.35 KCAL/MOL
REMARK 923 INTER-LIGAND FREE ENERGY PREDICTED BY IDOCK:   -4.46 KCAL/MOL
REMARK 924 INTRA-LIGAND FREE ENERGY PREDICTED BY IDOCK:    0.10 KCAL/MOL
REMARK 927      BINDING AFFINITY PREDICTED BY RF-SCORE:    0.00 PKD
ROOT
HETATM    1  N   UNL     1     -13.084   7.712  71.153  1.00  0.00    -0.559 NA 
HETATM    2  H1  UNL     1     -13.457   8.617  71.439  1.00  0.00     0.000 HD 
HETATM    3  H2  UNL     1     -13.834   7.076  70.886  1.00  0.00     0.000 HD 
HETATM    4  CA  UNL     1     -12.199   7.091  72.191  1.00  0.00    -0.219 C  
HETATM    5  C   UNL     1     -11.035   8.056  72.474  1.00  0.00    -0.364 C  
HETATM    6  OXT UNL     1     -10.063   7.803  73.162  1.00  0.00    -0.287 OA 
HETATM    7  O   UNL     1     -11.227   9.251  71.855  1.00  0.00    -0.370 OA 
ENDROOT
BRANCH   4   8
HETATM    8  C   UNL     1     -11.635   5.725  71.759  1.00  0.00    -0.137 C  
BRANCH   8   9
HETATM    9  C   UNL     1     -10.606   5.837  70.660  1.00  0.00    -0.346 A  
HETATM   10  C   UNL     1      -9.381   5.168  70.747  1.00  0.00    -0.210 A  
HETATM   11  C   UNL     1      -8.416   5.324  69.743  1.00  0.00    -0.098 A  
HETATM   12  I   UNL     1      -6.572   4.348  70.046  1.00  0.00    -0.034 I  
HETATM   13  C   UNL     1      -8.644   6.155  68.628  1.00  0.00    -0.113 A  
HETATM   14  C   UNL     1      -9.840   6.894  68.595  1.00  0.00    -0.145 A  
HETATM   15  C   UNL     1     -10.829   6.687  69.572  1.00  0.00    -0.339 A  
HETATM   16  I   UNL     1     -10.230   8.529  67.309  1.00  0.00    -0.344 I  
BRANCH  13  17
HETATM   17  O   UNL     1      -7.595   6.265  67.744  1.00  0.00    -0.097 OA 
BRANCH  17  18
HETATM   18  C   UNL     1      -7.723   5.946  66.414  1.00  0.00    -0.099 A  
HETATM   19  C   UNL     1      -8.151   4.635  66.184  1.00  0.00    -0.103 A  
HETATM   20  C   UNL     1      -8.170   4.123  64.888  1.00  0.00    -0.098 A  
HETATM   21  I   UNL     1      -8.765   2.139  64.618  1.00  0.00    -0.116 I  
HETATM   22  C   UNL     1      -7.765   4.921  63.814  1.00  0.00    -0.076 A  
HETATM   23  C   UNL     1      -7.423   6.260  64.040  1.00  0.00    -0.083 A  
HETATM   24  O   UNL     1      -7.675   4.401  62.550  1.00  0.00    -0.060 OA 
HETATM   25  H   UNL     1      -7.399   4.944  61.820  1.00  0.00     0.000 HD 
HETATM   26  I   UNL     1      -6.756   7.500  62.489  1.00  0.00    -0.074 I  
HETATM   27  C   UNL     1      -7.446   6.789  65.337  1.00  0.00    -0.084 A  
ENDBRANCH  17  18
ENDBRANCH  13  17
ENDBRANCH   8   9
ENDBRANCH   4   8
TORSDOF 4
ENDMDL
MODEL      238
REMARK 921   NORMALIZED FREE ENERGY PREDICTED BY IDOCK:   -2.86 KCAL/MOL
REMARK 922        TOTAL FREE ENERGY PREDICTED BY IDOCK:   -4.35 KCAL/MOL
REMARK 923 INTER-LIGAND FREE ENERGY PREDICTED BY IDOCK:   -4.42 KCAL/MOL
REMARK 924 INTRA-LIGAND FREE ENERGY PREDICTED BY IDOCK:    0.07 KCAL/MOL
REMARK 927      BINDING AFFINITY PREDICTED BY RF-SCORE:    0.00 PKD
ROOT
HETATM    1  N   UNL     1      -9.147   9.088  63.844  1.00  0.00    -0.376 NA 
HETATM    2  H1  UNL     1      -9.650   8.363  63.333  1.00  0.00     0.000 HD 
HETATM    3  H2  UNL     1      -9.598   9.995  63.729  1.00  0.00     0.000 HD 
HETATM    4  CA  UNL     1      -7.696   9.162  63.478  1.00  0.00    -0.121 C  
HETATM    5  C   UNL     1      -7.054   7.795  63.770  1.00  0.00    -0.073 C  
HETATM    6  OXT UNL     1      -5.862   7.551  63.716  1.00  0.00    -0.047 OA 
HETATM    7  O   UNL     1      -7.996   6.870  64.097  1.00  0.00    -0.120 OA 
ENDROOT
BRANCH   4   8
HETATM    8  C   UNL     1      -6.936  10.257  64.249  1.00  0.00    -0.052 C  
BRANCH   8   9
HETATM    9  C   UNL     1      -7.324  10.322  65.707  1.00  0.00    -0.140 A  
HETATM   10  C   UNL     1      -6.545   9.703  66.689  1.00  0.00    -0.071 A  
HETATM   11  C   UNL     1      -6.947   9.729  68.032  1.00  0.00    -0.077 A  
HETATM   12  I   UNL     1      -5.741   8.668  69.398  1.00  0.00    -0.034 I  
HETATM   13  C   UNL     1      -8.139  10.367  68.430  1.00  0.00    -0.112 A  
HETATM   14  C   UNL     1      -8.961  10.906  67.425  1.00  0.00    -0.136 A  
HETATM   15  C   UNL     1      -8.524  10.931  66.089  1.00  0.00    -0.171 A  
HETATM   16  I   UNL     1     -10.977  11.494  67.682  1.00  0.00    -0.367 I  
BRANCH  13  17
HETATM   17  O   UNL     1      -8.446  10.270  69.768  1.00  0.00    -0.159 OA 
BRANCH  17  18
HETATM   18  C   UNL     1      -9.483   9.493  70.226  1.00  0.00    -0.259 A  
HETATM   19  C   UNL     1      -9.373   8.142  69.881  1.00  0.00    -0.159 A  
HETATM   20  C   UNL     1     -10.428   7.267  70.136  1.00  0.00    -0.218 A  
HETATM   21  I   UNL     1     -10.226   5.275  69.544  1.00  0.00    -0.203 I  
HETATM   22  C   UNL     1     -11.597   7.738  70.741  1.00  0.00    -0.255 A  
HETATM   23  C   UNL     1     -11.665   9.072  71.165  1.00  0.00    -0.302 A  
HETATM   24  O   UNL     1     -12.682   6.919  70.902  1.00  0.00    -0.487 OA 
HETATM   25  H   UNL     1     -13.477   7.239  71.313  1.00  0.00     0.000 HD 
HETATM   26  I   UNL     1     -13.401   9.861  72.032  1.00  0.00    -0.223 I  
HETATM   27  C   UNL     1     -10.588   9.941  70.949  1.00  0.00    -0.254 A  
ENDBRANCH  17  18
ENDBRANCH  13  17
ENDBRANCH   8   9
ENDBRANCH   4   8
TORSDOF 4
ENDMDL
MODEL      239
REMARK 921   NORMALIZED FREE ENERGY PREDICTED BY IDOCK:   -2.86 KCAL/MOL
REMARK 922        TOTAL FREE ENERGY PREDICTED BY IDOCK:   -4.35 KCAL/MOL
REMARK 923 INTER-LIGAND FREE ENERGY PREDICTED BY IDOCK:   -4.33 KCAL/MOL
REMARK 924 INTRA-LIGAND FREE ENERGY PREDICTED BY IDOCK:   -0.02 KCAL/MOL
REMARK 927      BINDING AFFINITY PREDICTED BY RF-SCORE:    0.00 PKD
ROOT
HETATM    1  N   UNL     1      -7.830   6.727  65.088  1.00  0.00    -0.112 NA 
HETATM    2  H1  UNL     1      -8.191   5.847  64.719  1.00  0.00     0.000 HD 
HETATM    3  H2  UNL     1      -8.524   7.188  65.675  1.00  0.00     0.000 HD 
HETATM    4  CA  UNL     1      -7.337   7.651  64.016  1.00  0.00    -0.092 C  
HETATM    5  C   UNL     1      -6.225   6.931  63.233  1.00  0.00    -0.043 C  
HETATM    6  OXT UNL     1      -5.516   7.445  62.385  1.00  0.00    -0.044 OA 
HETATM    7  O   UNL     1      -6.129   5.627  63.603  1.00  0.00    -0.023 OA 
ENDROOT
BRANCH   4   8
HETATM    8  C   UNL     1      -6.791   8.979  64.571  1.00  0.00    -0.081 C  
BRANCH   8   9
HETATM    9  C   UNL     1      -7.304   9.289  65.958  1.00  0.00    -0.095 A  
HETATM   10  C   UNL     1      -8.586   9.811  66.152  1.00  0.00    -0.138 A  
HETATM   11  C   UNL     1      -9.028  10.142  67.440  1.00  0.00    -0.134 A  
HETATM   12  I   UNL     1     -10.939  11.020  67.587  1.00  0.00    -0.352 I  
HETATM   13  C   UNL     1      -8.200   9.967  68.568  1.00  0.00    -0.106 A  
HETATM   14  C   UNL     1      -6.882   9.528  68.352  1.00  0.00    -0.062 A  
HETATM   15  C   UNL     1      -6.465   9.140  67.067  1.00  0.00    -0.064 A  
HETATM   16  I   UNL     1      -5.317   9.619  69.774  1.00  0.00    -0.034 I  
BRANCH  13  17
HETATM   17  O   UNL     1      -8.734  10.384  69.766  1.00  0.00    -0.114 OA 
BRANCH  17  18
HETATM   18  C   UNL     1      -9.392   9.523  70.612  1.00  0.00    -0.199 A  
HETATM   19  C   UNL     1     -10.768   9.755  70.698  1.00  0.00    -0.394 A  
HETATM   20  C   UNL     1     -11.536   9.067  71.637  1.00  0.00    -0.361 A  
HETATM   21  I   UNL     1     -13.575   9.501  71.755  1.00  0.00    -0.328 I  
HETATM   22  C   UNL     1     -10.931   8.142  72.492  1.00  0.00    -0.369 A  
HETATM   23  C   UNL     1      -9.570   7.849  72.341  1.00  0.00    -0.210 A  
HETATM   24  O   UNL     1     -11.648   7.537  73.490  1.00  0.00    -0.568 OA 
HETATM   25  H   UNL     1     -11.237   6.908  74.072  1.00  0.00     0.000 HD 
HETATM   26  I   UNL     1      -8.585   6.512  73.619  1.00  0.00    -0.153 I  
HETATM   27  C   UNL     1      -8.807   8.507  71.367  1.00  0.00    -0.253 A  
ENDBRANCH  17  18
ENDBRANCH  13  17
ENDBRANCH   8   9
ENDBRANCH   4   8
TORSDOF 4
ENDMDL
MODEL      240
REMARK 921   NORMALIZED FREE ENERGY PREDICTED BY IDOCK:   -2.86 KCAL/MOL
REMARK 922        TOTAL FREE ENERGY PREDICTED BY IDOCK:   -4.35 KCAL/MOL
REMARK 923 INTER-LIGAND FREE ENERGY PREDICTED BY IDOCK:   -4.38 KCAL/MOL
REMARK 924 INTRA-LIGAND FREE ENERGY PREDICTED BY IDOCK:    0.03 KCAL/MOL
REMARK 927      BINDING AFFINITY PREDICTED BY RF-SCORE:    0.00 PKD
ROOT
HETATM    1  N   UNL     1     -12.308  16.408  69.413  1.00  0.00    -0.237 NA 
HETATM    2  H1  UNL     1     -13.324  16.384  69.329  1.00  0.00     0.000 HD 
HETATM    3  H2  UNL     1     -11.915  17.167  68.856  1.00  0.00     0.000 HD 
HETATM    4  CA  UNL     1     -11.662  15.101  69.067  1.00  0.00    -0.335 C  
HETATM    5  C   UNL     1     -12.225  14.021  70.007  1.00  0.00    -0.352 C  
HETATM    6  OXT UNL     1     -11.815  12.877  70.090  1.00  0.00    -0.311 OA 
HETATM    7  O   UNL     1     -13.258  14.505  70.747  1.00  0.00    -0.364 OA 
ENDROOT
BRANCH   4   8
HETATM    8  C   UNL     1     -10.128  15.137  69.193  1.00  0.00    -0.245 C  
BRANCH   8   9
HETATM    9  C   UNL     1      -9.447  14.072  68.367  1.00  0.00    -0.213 A  
HETATM   10  C   UNL     1     -10.078  13.511  67.253  1.00  0.00    -0.235 A  
HETATM   11  C   UNL     1      -9.454  12.486  66.527  1.00  0.00    -0.240 A  
HETATM   12  I   UNL     1     -10.555  11.652  64.934  1.00  0.00    -0.361 I  
HETATM   13  C   UNL     1      -8.188  11.990  66.899  1.00  0.00    -0.146 A  
HETATM   14  C   UNL     1      -7.604  12.495  68.073  1.00  0.00    -0.127 A  
HETATM   15  C   UNL     1      -8.205  13.565  68.760  1.00  0.00     0.044 A  
HETATM   16  I   UNL     1      -5.969  11.625  69.096  1.00  0.00    -0.091 I  
BRANCH  13  17
HETATM   17  O   UNL     1      -7.714  10.946  66.137  1.00  0.00    -0.154 OA 
BRANCH  17  18
HETATM   18  C   UNL     1      -7.941   9.633  66.475  1.00  0.00    -0.112 A  
HETATM   19  C   UNL     1      -8.708   9.470  67.632  1.00  0.00    -0.122 A  
HETATM   20  C   UNL     1      -8.881   8.202  68.184  1.00  0.00    -0.132 A  
HETATM   21  I   UNL     1      -9.990   8.033  69.946  1.00  0.00    -0.200 I  
HETATM   22  C   UNL     1      -8.291   7.089  67.578  1.00  0.00    -0.119 A  
HETATM   23  C   UNL     1      -7.599   7.246  66.371  1.00  0.00    -0.092 A  
HETATM   24  O   UNL     1      -8.361   5.853  68.164  1.00  0.00    -0.114 OA 
HETATM   25  H   UNL     1      -7.959   5.096  67.753  1.00  0.00     0.000 HD 
HETATM   26  I   UNL     1      -6.645   5.634  65.434  1.00  0.00    -0.042 I  
HETATM   27  C   UNL     1      -7.462   8.515  65.792  1.00  0.00    -0.081 A  
ENDBRANCH  17  18
ENDBRANCH  13  17
ENDBRANCH   8   9
ENDBRANCH   4   8
TORSDOF 4
ENDMDL
MODEL      241
REMARK 921   NORMALIZED FREE ENERGY PREDICTED BY IDOCK:   -2.80 KCAL/MOL
REMARK 922        TOTAL FREE ENERGY PREDICTED BY IDOCK:   -4.27 KCAL/MOL
REMARK 923 INTER-LIGAND FREE ENERGY PREDICTED BY IDOCK:   -4.17 KCAL/MOL
REMARK 924 INTRA-LIGAND FREE ENERGY PREDICTED BY IDOCK:   -0.10 KCAL/MOL
REMARK 927      BINDING AFFINITY PREDICTED BY RF-SCORE:    0.00 PKD
ROOT
HETATM    1  N   UNL     1      -9.298   2.248  67.540  1.00  0.00    -0.344 NA 
HETATM    2  H1  UNL     1     -10.241   1.932  67.314  1.00  0.00     0.000 HD 
HETATM    3  H2  UNL     1      -9.210   2.446  68.536  1.00  0.00     0.000 HD 
HETATM    4  CA  UNL     1      -8.863   3.424  66.720  1.00  0.00    -0.137 C  
HETATM    5  C   UNL     1      -8.924   3.026  65.235  1.00  0.00    -0.142 C  
HETATM    6  OXT UNL     1      -8.507   3.698  64.309  1.00  0.00    -0.090 OA 
HETATM    7  O   UNL     1      -9.515   1.812  65.076  1.00  0.00    -0.098 OA 
ENDROOT
BRANCH   4   8
HETATM    8  C   UNL     1      -7.439   3.901  67.061  1.00  0.00    -0.072 C  
BRANCH   8   9
HETATM    9  C   UNL     1      -7.405   5.319  67.579  1.00  0.00    -0.079 A  
HETATM   10  C   UNL     1      -6.980   5.601  68.881  1.00  0.00    -0.067 A  
HETATM   11  C   UNL     1      -7.004   6.917  69.364  1.00  0.00    -0.066 A  
HETATM   12  I   UNL     1      -6.440   7.194  71.377  1.00  0.00    -0.040 I  
HETATM   13  C   UNL     1      -7.457   7.985  68.564  1.00  0.00    -0.102 A  
HETATM   14  C   UNL     1      -7.967   7.679  67.290  1.00  0.00    -0.118 A  
HETATM   15  C   UNL     1      -7.884   6.368  66.788  1.00  0.00    -0.104 A  
HETATM   16  I   UNL     1      -9.114   8.989  66.087  1.00  0.00    -0.308 I  
BRANCH  13  17
HETATM   17  O   UNL     1      -7.482   9.217  69.177  1.00  0.00    -0.070 OA 
BRANCH  17  18
HETATM   18  C   UNL     1      -8.650   9.919  69.357  1.00  0.00    -0.174 A  
HETATM   19  C   UNL     1      -9.539   9.319  70.253  1.00  0.00    -0.276 A  
HETATM   20  C   UNL     1     -10.826   9.832  70.411  1.00  0.00    -0.311 A  
HETATM   21  I   UNL     1     -12.126   8.855  71.721  1.00  0.00    -0.476 I  
HETATM   22  C   UNL     1     -11.228  10.950  69.675  1.00  0.00    -0.282 A  
HETATM   23  C   UNL     1     -10.304  11.600  68.847  1.00  0.00    -0.153 A  
HETATM   24  O   UNL     1     -12.519  11.402  69.737  1.00  0.00    -0.209 OA 
HETATM   25  H   UNL     1     -12.793  12.162  69.237  1.00  0.00     0.000 HD 
HETATM   26  I   UNL     1     -10.849  13.249  67.676  1.00  0.00    -0.312 I  
HETATM   27  C   UNL     1      -8.997  11.111  68.722  1.00  0.00    -0.136 A  
ENDBRANCH  17  18
ENDBRANCH  13  17
ENDBRANCH   8   9
ENDBRANCH   4   8
TORSDOF 4
ENDMDL
MODEL      242
REMARK 921   NORMALIZED FREE ENERGY PREDICTED BY IDOCK:   -2.79 KCAL/MOL
REMARK 922        TOTAL FREE ENERGY PREDICTED BY IDOCK:   -4.27 KCAL/MOL
REMARK 923 INTER-LIGAND FREE ENERGY PREDICTED BY IDOCK:   -4.28 KCAL/MOL
REMARK 924 INTRA-LIGAND FREE ENERGY PREDICTED BY IDOCK:    0.01 KCAL/MOL
REMARK 927      BINDING AFFINITY PREDICTED BY RF-SCORE:    0.00 PKD
ROOT
HETATM    1  N   UNL     1      -7.224   4.318  66.188  1.00  0.00    -0.074 NA 
HETATM    2  H1  UNL     1      -7.560   4.297  65.225  1.00  0.00     0.000 HD 
HETATM    3  H2  UNL     1      -6.264   4.656  66.232  1.00  0.00     0.000 HD 
HETATM    4  CA  UNL     1      -7.359   2.997  66.883  1.00  0.00    -0.070 C  
HETATM    5  C   UNL     1      -8.843   2.594  66.869  1.00  0.00    -0.133 C  
HETATM    6  OXT UNL     1      -9.320   1.646  67.467  1.00  0.00    -0.133 OA 
HETATM    7  O   UNL     1      -9.574   3.436  66.091  1.00  0.00    -0.147 OA 
ENDROOT
BRANCH   4   8
HETATM    8  C   UNL     1      -6.852   3.029  68.337  1.00  0.00    -0.048 C  
BRANCH   8   9
HETATM    9  C   UNL     1      -7.252   4.288  69.069  1.00  0.00    -0.051 A  
HETATM   10  C   UNL     1      -8.528   4.425  69.623  1.00  0.00    -0.089 A  
HETATM   11  C   UNL     1      -8.900   5.620  70.255  1.00  0.00    -0.139 A  
HETATM   12  I   UNL     1     -10.887   5.739  70.954  1.00  0.00    -0.166 I  
HETATM   13  C   UNL     1      -8.013   6.711  70.344  1.00  0.00    -0.115 A  
HETATM   14  C   UNL     1      -6.766   6.596  69.704  1.00  0.00    -0.050 A  
HETATM   15  C   UNL     1      -6.375   5.376  69.127  1.00  0.00    -0.034 A  
HETATM   16  I   UNL     1      -5.454   8.204  69.289  1.00  0.00    -0.031 I  
BRANCH  13  17
HETATM   17  O   UNL     1      -8.522   7.843  70.938  1.00  0.00    -0.121 OA 
BRANCH  17  18
HETATM   18  C   UNL     1      -9.297   8.746  70.248  1.00  0.00    -0.174 A  
HETATM   19  C   UNL     1     -10.375   9.245  70.983  1.00  0.00    -0.388 A  
HETATM   20  C   UNL     1     -11.337  10.041  70.362  1.00  0.00    -0.320 A  
HETATM   21  I   UNL     1     -12.954  10.708  71.501  1.00  0.00    -0.388 I  
HETATM   22  C   UNL     1     -11.221  10.345  69.002  1.00  0.00    -0.234 A  
HETATM   23  C   UNL     1     -10.092   9.916  68.293  1.00  0.00    -0.161 A  
HETATM   24  O   UNL     1     -12.209  11.035  68.352  1.00  0.00    -0.770 OA 
HETATM   25  H   UNL     1     -12.131  11.241  67.428  1.00  0.00     0.000 HD 
HETATM   26  I   UNL     1      -9.876  10.288  66.243  1.00  0.00    -0.305 I  
HETATM   27  C   UNL     1      -9.103   9.153  68.928  1.00  0.00    -0.139 A  
ENDBRANCH  17  18
ENDBRANCH  13  17
ENDBRANCH   8   9
ENDBRANCH   4   8
TORSDOF 4
ENDMDL
MODEL      243
REMARK 921   NORMALIZED FREE ENERGY PREDICTED BY IDOCK:   -2.78 KCAL/MOL
REMARK 922        TOTAL FREE ENERGY PREDICTED BY IDOCK:   -4.26 KCAL/MOL
REMARK 923 INTER-LIGAND FREE ENERGY PREDICTED BY IDOCK:   -4.45 KCAL/MOL
REMARK 924 INTRA-LIGAND FREE ENERGY PREDICTED BY IDOCK:    0.19 KCAL/MOL
REMARK 927      BINDING AFFINITY PREDICTED BY RF-SCORE:    0.00 PKD
ROOT
HETATM    1  N   UNL     1     -13.173   7.682  71.041  1.00  0.00    -0.577 NA 
HETATM    2  H1  UNL     1     -13.665   8.555  71.233  1.00  0.00     0.000 HD 
HETATM    3  H2  UNL     1     -13.832   6.923  70.870  1.00  0.00     0.000 HD 
HETATM    4  CA  UNL     1     -12.199   7.312  72.118  1.00  0.00    -0.223 C  
HETATM    5  C   UNL     1     -11.176   8.452  72.255  1.00  0.00    -0.376 C  
HETATM    6  OXT UNL     1     -10.169   8.415  72.940  1.00  0.00    -0.264 OA 
HETATM    7  O   UNL     1     -11.538   9.530  71.510  1.00  0.00    -0.357 OA 
ENDROOT
BRANCH   4   8
HETATM    8  C   UNL     1     -11.457   5.994  71.829  1.00  0.00    -0.314 C  
BRANCH   8   9
HETATM    9  C   UNL     1     -10.366   6.149  70.796  1.00  0.00    -0.266 A  
HETATM   10  C   UNL     1      -9.023   5.948  71.129  1.00  0.00    -0.145 A  
HETATM   11  C   UNL     1      -8.019   6.146  70.172  1.00  0.00    -0.107 A  
HETATM   12  I   UNL     1      -6.029   5.913  70.829  1.00  0.00    -0.032 I  
HETATM   13  C   UNL     1      -8.326   6.558  68.859  1.00  0.00    -0.122 A  
HETATM   14  C   UNL     1      -9.670   6.847  68.561  1.00  0.00    -0.138 A  
HETATM   15  C   UNL     1     -10.678   6.587  69.505  1.00  0.00    -0.322 A  
HETATM   16  I   UNL     1     -10.341   7.901  66.853  1.00  0.00    -0.093 I  
BRANCH  13  17
HETATM   17  O   UNL     1      -7.245   6.772  68.036  1.00  0.00    -0.086 OA 
BRANCH  17  18
HETATM   18  C   UNL     1      -6.941   8.017  67.536  1.00  0.00    -0.075 A  
HETATM   19  C   UNL     1      -6.545   8.007  66.195  1.00  0.00    -0.047 A  
HETATM   20  C   UNL     1      -6.053   9.170  65.604  1.00  0.00    -0.055 A  
HETATM   21  I   UNL     1      -5.424   9.077  63.615  1.00  0.00    -0.063 I  
HETATM   22  C   UNL     1      -5.958  10.348  66.350  1.00  0.00    -0.075 A  
HETATM   23  C   UNL     1      -6.439  10.373  67.665  1.00  0.00    -0.058 A  
HETATM   24  O   UNL     1      -5.378  11.469  65.818  1.00  0.00    -0.484 OA 
HETATM   25  H   UNL     1      -5.313  12.270  66.325  1.00  0.00     0.000 HD 
HETATM   26  I   UNL     1      -6.282  12.087  68.859  1.00  0.00    -0.094 I  
HETATM   27  C   UNL     1      -6.975   9.216  68.246  1.00  0.00    -0.076 A  
ENDBRANCH  17  18
ENDBRANCH  13  17
ENDBRANCH   8   9
ENDBRANCH   4   8
TORSDOF 4
ENDMDL
MODEL      244
REMARK 921   NORMALIZED FREE ENERGY PREDICTED BY IDOCK:   -2.75 KCAL/MOL
REMARK 922        TOTAL FREE ENERGY PREDICTED BY IDOCK:   -4.22 KCAL/MOL
REMARK 923 INTER-LIGAND FREE ENERGY PREDICTED BY IDOCK:   -3.63 KCAL/MOL
REMARK 924 INTRA-LIGAND FREE ENERGY PREDICTED BY IDOCK:   -0.59 KCAL/MOL
REMARK 927      BINDING AFFINITY PREDICTED BY RF-SCORE:    0.00 PKD
ROOT
HETATM    1  N   UNL     1      -6.882  11.175  65.906  1.00  0.00    -0.365 NA 
HETATM    2  H1  UNL     1      -6.546  10.793  65.022  1.00  0.00     0.000 HD 
HETATM    3  H2  UNL     1      -6.126  11.235  66.587  1.00  0.00     0.000 HD 
HETATM    4  CA  UNL     1      -8.046  10.415  66.466  1.00  0.00    -0.122 C  
HETATM    5  C   UNL     1      -9.185  10.448  65.432  1.00  0.00    -0.193 C  
HETATM    6  OXT UNL     1     -10.319  10.046  65.622  1.00  0.00    -0.233 OA 
HETATM    7  O   UNL     1      -8.766  10.985  64.256  1.00  0.00    -0.066 OA 
ENDROOT
BRANCH   4   8
HETATM    8  C   UNL     1      -8.553  10.990  67.801  1.00  0.00    -0.130 C  
BRANCH   8   9
HETATM    9  C   UNL     1      -8.697   9.938  68.875  1.00  0.00    -0.140 A  
HETATM   10  C   UNL     1      -9.940   9.659  69.449  1.00  0.00    -0.207 A  
HETATM   11  C   UNL     1     -10.048   8.717  70.481  1.00  0.00    -0.195 A  
HETATM   12  I   UNL     1     -11.960   8.466  71.335  1.00  0.00    -0.352 I  
HETATM   13  C   UNL     1      -8.918   8.033  70.972  1.00  0.00    -0.144 A  
HETATM   14  C   UNL     1      -7.660   8.387  70.452  1.00  0.00    -0.072 A  
HETATM   15  C   UNL     1      -7.565   9.286  69.376  1.00  0.00    -0.080 A  
HETATM   16  I   UNL     1      -5.795   7.871  71.309  1.00  0.00    -0.035 I  
BRANCH  13  17
HETATM   17  O   UNL     1      -9.152   7.177  72.025  1.00  0.00    -0.131 OA 
BRANCH  17  18
HETATM   18  C   UNL     1      -9.305   5.823  71.845  1.00  0.00    -0.151 A  
HETATM   19  C   UNL     1      -9.067   5.395  70.535  1.00  0.00    -0.171 A  
HETATM   20  C   UNL     1      -9.341   4.078  70.169  1.00  0.00    -0.170 A  
HETATM   21  I   UNL     1      -9.019   3.517  68.184  1.00  0.00    -0.234 I  
HETATM   22  C   UNL     1      -9.851   3.182  71.113  1.00  0.00    -0.061 A  
HETATM   23  C   UNL     1     -10.002   3.592  72.444  1.00  0.00    -0.166 A  
HETATM   24  O   UNL     1     -10.226   1.917  70.746  1.00  0.00     0.195 OA 
HETATM   25  H   UNL     1     -10.573   1.307  71.388  1.00  0.00     0.000 HD 
HETATM   26  I   UNL     1     -10.808   2.321  73.900  1.00  0.00    -0.229 I  
HETATM   27  C   UNL     1      -9.685   4.903  72.822  1.00  0.00    -0.173 A  
ENDBRANCH  17  18
ENDBRANCH  13  17
ENDBRANCH   8   9
ENDBRANCH   4   8
TORSDOF 4
ENDMDL
MODEL      245
REMARK 921   NORMALIZED FREE ENERGY PREDICTED BY IDOCK:   -2.74 KCAL/MOL
REMARK 922        TOTAL FREE ENERGY PREDICTED BY IDOCK:   -4.21 KCAL/MOL
REMARK 923 INTER-LIGAND FREE ENERGY PREDICTED BY IDOCK:   -5.47 KCAL/MOL
REMARK 924 INTRA-LIGAND FREE ENERGY PREDICTED BY IDOCK:    1.26 KCAL/MOL
REMARK 927      BINDING AFFINITY PREDICTED BY RF-SCORE:    0.00 PKD
ROOT
HETATM    1  N   UNL     1     -13.745   7.859  71.967  1.00  0.00    -0.508 NA 
HETATM    2  H1  UNL     1     -14.624   8.368  71.869  1.00  0.00     0.000 HD 
HETATM    3  H2  UNL     1     -13.842   7.088  72.627  1.00  0.00     0.000 HD 
HETATM    4  CA  UNL     1     -12.596   8.745  72.344  1.00  0.00    -0.363 C  
HETATM    5  C   UNL     1     -12.442   9.823  71.258  1.00  0.00    -0.367 C  
HETATM    6  OXT UNL     1     -11.523  10.619  71.183  1.00  0.00    -0.196 OA 
HETATM    7  O   UNL     1     -13.477   9.785  70.378  1.00  0.00     0.028 OA 
ENDROOT
BRANCH   4   8
HETATM    8  C   UNL     1     -11.269   7.977  72.492  1.00  0.00    -0.452 C  
BRANCH   8   9
HETATM    9  C   UNL     1     -10.433   8.005  71.234  1.00  0.00    -0.238 A  
HETATM   10  C   UNL     1      -9.375   8.908  71.092  1.00  0.00    -0.326 A  
HETATM   11  C   UNL     1      -8.641   8.956  69.899  1.00  0.00    -0.137 A  
HETATM   12  I   UNL     1      -7.141  10.433  69.772  1.00  0.00    -0.089 I  
HETATM   13  C   UNL     1      -8.948   8.111  68.813  1.00  0.00    -0.144 A  
HETATM   14  C   UNL     1     -10.070   7.273  68.932  1.00  0.00    -0.180 A  
HETATM   15  C   UNL     1     -10.764   7.184  70.152  1.00  0.00    -0.260 A  
HETATM   16  I   UNL     1     -11.016   6.264  67.330  1.00  0.00    -0.071 I  
BRANCH  13  17
HETATM   17  O   UNL     1      -8.189   8.300  67.681  1.00  0.00    -0.124 OA 
BRANCH  17  18
HETATM   18  C   UNL     1      -8.590   9.130  66.661  1.00  0.00    -0.127 A  
HETATM   19  C   UNL     1      -9.536  10.084  67.047  1.00  0.00    -0.212 A  
HETATM   20  C   UNL     1     -10.153  10.885  66.087  1.00  0.00    -0.239 A  
HETATM   21  I   UNL     1     -11.600  12.251  66.721  1.00  0.00    -0.266 I  
HETATM   22  C   UNL     1      -9.823  10.738  64.737  1.00  0.00    -0.300 A  
HETATM   23  C   UNL     1      -8.811   9.843  64.367  1.00  0.00    -0.217 A  
HETATM   24  O   UNL     1     -10.495  11.439  63.771  1.00  0.00    -0.331 OA 
HETATM   25  H   UNL     1     -10.271  11.339  62.853  1.00  0.00     0.000 HD 
HETATM   26  I   UNL     1      -8.300   9.532  62.360  1.00  0.00    -0.230 I  
HETATM   27  C   UNL     1      -8.159   9.069  65.337  1.00  0.00    -0.120 A  
ENDBRANCH  17  18
ENDBRANCH  13  17
ENDBRANCH   8   9
ENDBRANCH   4   8
TORSDOF 4
ENDMDL
MODEL      246
REMARK 921   NORMALIZED FREE ENERGY PREDICTED BY IDOCK:   -2.69 KCAL/MOL
REMARK 922        TOTAL FREE ENERGY PREDICTED BY IDOCK:   -4.13 KCAL/MOL
REMARK 923 INTER-LIGAND FREE ENERGY PREDICTED BY IDOCK:   -4.81 KCAL/MOL
REMARK 924 INTRA-LIGAND FREE ENERGY PREDICTED BY IDOCK:    0.67 KCAL/MOL
REMARK 927      BINDING AFFINITY PREDICTED BY RF-SCORE:    0.00 PKD
ROOT
HETATM    1  N   UNL     1     -10.218  13.256  67.128  1.00  0.00    -0.244 NA 
HETATM    2  H1  UNL     1      -9.654  13.915  66.592  1.00  0.00     0.000 HD 
HETATM    3  H2  UNL     1     -10.712  12.613  66.510  1.00  0.00     0.000 HD 
HETATM    4  CA  UNL     1     -11.170  13.930  68.069  1.00  0.00    -0.271 C  
HETATM    5  C   UNL     1     -10.353  14.805  69.035  1.00  0.00    -0.243 C  
HETATM    6  OXT UNL     1     -10.800  15.381  70.011  1.00  0.00    -0.264 OA 
HETATM    7  O   UNL     1      -9.048  14.865  68.660  1.00  0.00    -0.174 OA 
ENDROOT
BRANCH   4   8
HETATM    8  C   UNL     1     -12.021  12.935  68.878  1.00  0.00    -0.291 C  
BRANCH   8   9
HETATM    9  C   UNL     1     -11.246  11.711  69.304  1.00  0.00    -0.328 A  
HETATM   10  C   UNL     1     -11.784  10.798  70.216  1.00  0.00    -0.442 A  
HETATM   11  C   UNL     1     -11.030   9.695  70.640  1.00  0.00    -0.320 A  
HETATM   12  I   UNL     1     -11.914   8.454  72.098  1.00  0.00    -0.422 I  
HETATM   13  C   UNL     1      -9.719   9.477  70.172  1.00  0.00    -0.246 A  
HETATM   14  C   UNL     1      -9.155  10.448  69.327  1.00  0.00    -0.175 A  
HETATM   15  C   UNL     1      -9.935  11.519  68.856  1.00  0.00    -0.117 A  
HETATM   16  I   UNL     1      -7.098  10.611  68.857  1.00  0.00    -0.107 I  
BRANCH  13  17
HETATM   17  O   UNL     1      -9.070   8.389  70.710  1.00  0.00    -0.142 OA 
BRANCH  17  18
HETATM   18  C   UNL     1      -9.093   7.153  70.110  1.00  0.00    -0.152 A  
HETATM   19  C   UNL     1      -8.671   6.112  70.941  1.00  0.00    -0.136 A  
HETATM   20  C   UNL     1      -8.488   4.831  70.420  1.00  0.00    -0.090 A  
HETATM   21  I   UNL     1      -7.800   3.332  71.701  1.00  0.00    -0.060 I  
HETATM   22  C   UNL     1      -8.730   4.586  69.066  1.00  0.00    -0.085 A  
HETATM   23  C   UNL     1      -9.238   5.612  68.259  1.00  0.00    -0.110 A  
HETATM   24  O   UNL     1      -8.454   3.363  68.515  1.00  0.00    -0.078 OA 
HETATM   25  H   UNL     1      -8.619   3.196  67.594  1.00  0.00     0.000 HD 
HETATM   26  I   UNL     1      -9.576   5.332  66.211  1.00  0.00    -0.175 I  
HETATM   27  C   UNL     1      -9.465   6.888  68.792  1.00  0.00    -0.135 A  
ENDBRANCH  17  18
ENDBRANCH  13  17
ENDBRANCH   8   9
ENDBRANCH   4   8
TORSDOF 4
ENDMDL
MODEL      247
REMARK 921   NORMALIZED FREE ENERGY PREDICTED BY IDOCK:   -2.67 KCAL/MOL
REMARK 922        TOTAL FREE ENERGY PREDICTED BY IDOCK:   -4.11 KCAL/MOL
REMARK 923 INTER-LIGAND FREE ENERGY PREDICTED BY IDOCK:   -3.79 KCAL/MOL
REMARK 924 INTRA-LIGAND FREE ENERGY PREDICTED BY IDOCK:   -0.32 KCAL/MOL
REMARK 927      BINDING AFFINITY PREDICTED BY RF-SCORE:    0.00 PKD
ROOT
HETATM    1  N   UNL     1      -7.273   3.018  64.985  1.00  0.00    -0.065 NA 
HETATM    2  H1  UNL     1      -7.876   2.903  64.171  1.00  0.00     0.000 HD 
HETATM    3  H2  UNL     1      -7.679   2.570  65.806  1.00  0.00     0.000 HD 
HETATM    4  CA  UNL     1      -6.941   4.452  65.269  1.00  0.00    -0.058 C  
HETATM    5  C   UNL     1      -6.242   5.039  64.030  1.00  0.00    -0.022 C  
HETATM    6  OXT UNL     1      -5.718   6.137  63.973  1.00  0.00    -0.021 OA 
HETATM    7  O   UNL     1      -6.284   4.171  62.985  1.00  0.00    -0.017 OA 
ENDROOT
BRANCH   4   8
HETATM    8  C   UNL     1      -6.030   4.626  66.498  1.00  0.00    -0.027 C  
BRANCH   8   9
HETATM    9  C   UNL     1      -6.628   5.536  67.545  1.00  0.00    -0.053 A  
HETATM   10  C   UNL     1      -7.957   5.390  67.953  1.00  0.00    -0.096 A  
HETATM   11  C   UNL     1      -8.512   6.275  68.888  1.00  0.00    -0.120 A  
HETATM   12  I   UNL     1     -10.555   6.014  69.338  1.00  0.00    -0.430 I  
HETATM   13  C   UNL     1      -7.758   7.332  69.436  1.00  0.00    -0.107 A  
HETATM   14  C   UNL     1      -6.452   7.526  68.952  1.00  0.00    -0.044 A  
HETATM   15  C   UNL     1      -5.881   6.600  68.061  1.00  0.00    -0.016 A  
HETATM   16  I   UNL     1      -5.286   9.267  69.247  1.00  0.00    -0.035 I  
BRANCH  13  17
HETATM   17  O   UNL     1      -8.438   8.162  70.298  1.00  0.00    -0.122 OA 
BRANCH  17  18
HETATM   18  C   UNL     1      -9.248   9.177  69.850  1.00  0.00    -0.183 A  
HETATM   19  C   UNL     1     -10.365   9.409  70.657  1.00  0.00    -0.349 A  
HETATM   20  C   UNL     1     -11.358  10.295  70.241  1.00  0.00    -0.323 A  
HETATM   21  I   UNL     1     -13.029  10.554  71.465  1.00  0.00    -0.442 I  
HETATM   22  C   UNL     1     -11.235  10.957  69.016  1.00  0.00    -0.266 A  
HETATM   23  C   UNL     1     -10.072  10.788  68.254  1.00  0.00    -0.171 A  
HETATM   24  O   UNL     1     -12.248  11.747  68.542  1.00  0.00    -0.430 OA 
HETATM   25  H   UNL     1     -12.165  12.197  67.709  1.00  0.00     0.000 HD 
HETATM   26  I   UNL     1      -9.841  11.706  66.385  1.00  0.00    -0.266 I  
HETATM   27  C   UNL     1      -9.054   9.932  68.693  1.00  0.00    -0.132 A  
ENDBRANCH  17  18
ENDBRANCH  13  17
ENDBRANCH   8   9
ENDBRANCH   4   8
TORSDOF 4
ENDMDL
MODEL      248
REMARK 921   NORMALIZED FREE ENERGY PREDICTED BY IDOCK:   -2.66 KCAL/MOL
REMARK 922        TOTAL FREE ENERGY PREDICTED BY IDOCK:   -4.10 KCAL/MOL
REMARK 923 INTER-LIGAND FREE ENERGY PREDICTED BY IDOCK:   -3.84 KCAL/MOL
REMARK 924 INTRA-LIGAND FREE ENERGY PREDICTED BY IDOCK:   -0.26 KCAL/MOL
REMARK 927      BINDING AFFINITY PREDICTED BY RF-SCORE:    0.00 PKD
ROOT
HETATM    1  N   UNL     1      -8.554   6.910  63.048  1.00  0.00    -0.286 NA 
HETATM    2  H1  UNL     1      -9.011   6.032  62.802  1.00  0.00     0.000 HD 
HETATM    3  H2  UNL     1      -9.118   7.708  62.758  1.00  0.00     0.000 HD 
HETATM    4  CA  UNL     1      -7.160   7.015  62.506  1.00  0.00    -0.062 C  
HETATM    5  C   UNL     1      -6.338   5.839  63.061  1.00  0.00    -0.024 C  
HETATM    6  OXT UNL     1      -5.135   5.700  62.931  1.00  0.00    -0.012 OA 
HETATM    7  O   UNL     1      -7.129   4.954  63.723  1.00  0.00    -0.047 OA 
ENDROOT
BRANCH   4   8
HETATM    8  C   UNL     1      -6.470   8.340  62.876  1.00  0.00    -0.086 C  
BRANCH   8   9
HETATM    9  C   UNL     1      -7.220   9.117  63.932  1.00  0.00    -0.096 A  
HETATM   10  C   UNL     1      -7.068   8.820  65.290  1.00  0.00    -0.083 A  
HETATM   11  C   UNL     1      -7.811   9.516  66.254  1.00  0.00    -0.100 A  
HETATM   12  I   UNL     1      -7.570   8.901  68.256  1.00  0.00    -0.092 I  
HETATM   13  C   UNL     1      -8.730  10.520  65.889  1.00  0.00    -0.167 A  
HETATM   14  C   UNL     1      -8.943  10.747  64.518  1.00  0.00    -0.166 A  
HETATM   15  C   UNL     1      -8.151  10.091  63.559  1.00  0.00    -0.159 A  
HETATM   16  I   UNL     1     -10.559  11.840  63.698  1.00  0.00    -0.539 I  
BRANCH  13  17
HETATM   17  O   UNL     1      -9.435  11.085  66.927  1.00  0.00    -0.174 OA 
BRANCH  17  18
HETATM   18  C   UNL     1      -9.036  12.253  67.532  1.00  0.00    -0.180 A  
HETATM   19  C   UNL     1     -10.092  13.100  67.881  1.00  0.00    -0.232 A  
HETATM   20  C   UNL     1      -9.831  14.386  68.352  1.00  0.00    -0.234 A  
HETATM   21  I   UNL     1     -11.453  15.622  68.802  1.00  0.00    -0.341 I  
HETATM   22  C   UNL     1      -8.512  14.829  68.480  1.00  0.00    -0.159 A  
HETATM   23  C   UNL     1      -7.458  13.946  68.214  1.00  0.00    -0.118 A  
HETATM   24  O   UNL     1      -8.239  16.122  68.839  1.00  0.00    -0.203 OA 
HETATM   25  H   UNL     1      -7.342  16.424  68.926  1.00  0.00     0.000 HD 
HETATM   26  I   UNL     1      -5.457  14.556  68.334  1.00  0.00    -0.128 I  
HETATM   27  C   UNL     1      -7.720  12.639  67.782  1.00  0.00    -0.145 A  
ENDBRANCH  17  18
ENDBRANCH  13  17
ENDBRANCH   8   9
ENDBRANCH   4   8
TORSDOF 4
ENDMDL
MODEL      249
REMARK 921   NORMALIZED FREE ENERGY PREDICTED BY IDOCK:   -2.65 KCAL/MOL
REMARK 922        TOTAL FREE ENERGY PREDICTED BY IDOCK:   -4.09 KCAL/MOL
REMARK 923 INTER-LIGAND FREE ENERGY PREDICTED BY IDOCK:   -3.64 KCAL/MOL
REMARK 924 INTRA-LIGAND FREE ENERGY PREDICTED BY IDOCK:   -0.45 KCAL/MOL
REMARK 927      BINDING AFFINITY PREDICTED BY RF-SCORE:    0.00 PKD
ROOT
HETATM    1  N   UNL     1     -10.777   4.303  64.214  1.00  0.00    -0.505 NA 
HETATM    2  H1  UNL     1     -10.402   4.029  63.306  1.00  0.00     0.000 HD 
HETATM    3  H2  UNL     1     -11.187   5.235  64.171  1.00  0.00     0.000 HD 
HETATM    4  CA  UNL     1      -9.765   4.214  65.315  1.00  0.00    -0.199 C  
HETATM    5  C   UNL     1      -9.260   2.763  65.391  1.00  0.00    -0.124 C  
HETATM    6  OXT UNL     1      -8.536   2.315  66.261  1.00  0.00    -0.091 OA 
HETATM    7  O   UNL     1      -9.724   2.027  64.346  1.00  0.00    -0.129 OA 
ENDROOT
BRANCH   4   8
HETATM    8  C   UNL     1     -10.331   4.629  66.686  1.00  0.00    -0.205 C  
BRANCH   8   9
HETATM    9  C   UNL     1      -9.582   5.787  67.302  1.00  0.00    -0.122 A  
HETATM   10  C   UNL     1      -8.697   6.559  66.545  1.00  0.00    -0.135 A  
HETATM   11  C   UNL     1      -7.971   7.597  67.144  1.00  0.00    -0.117 A  
HETATM   12  I   UNL     1      -6.591   8.615  65.918  1.00  0.00    -0.057 I  
HETATM   13  C   UNL     1      -8.105   7.889  68.517  1.00  0.00    -0.123 A  
HETATM   14  C   UNL     1      -8.927   7.050  69.288  1.00  0.00    -0.138 A  
HETATM   15  C   UNL     1      -9.699   6.050  68.671  1.00  0.00    -0.149 A  
HETATM   16  I   UNL     1      -8.949   6.970  71.403  1.00  0.00    -0.142 I  
BRANCH  13  17
HETATM   17  O   UNL     1      -7.294   8.895  68.991  1.00  0.00    -0.071 OA 
BRANCH  17  18
HETATM   18  C   UNL     1      -7.652  10.220  68.915  1.00  0.00    -0.094 A  
HETATM   19  C   UNL     1      -9.033  10.435  68.941  1.00  0.00    -0.170 A  
HETATM   20  C   UNL     1      -9.547  11.710  68.708  1.00  0.00    -0.072 A  
HETATM   21  I   UNL     1     -11.621  11.955  68.703  1.00  0.00    -0.373 I  
HETATM   22  C   UNL     1      -8.681  12.777  68.452  1.00  0.00    -0.119 A  
HETATM   23  C   UNL     1      -7.296  12.573  68.516  1.00  0.00    -0.115 A  
HETATM   24  O   UNL     1      -9.170  14.011  68.117  1.00  0.00    -0.184 OA 
HETATM   25  H   UNL     1      -8.581  14.737  67.943  1.00  0.00     0.000 HD 
HETATM   26  I   UNL     1      -5.939  14.111  68.094  1.00  0.00    -0.134 I  
HETATM   27  C   UNL     1      -6.779  11.300  68.794  1.00  0.00    -0.070 A  
ENDBRANCH  17  18
ENDBRANCH  13  17
ENDBRANCH   8   9
ENDBRANCH   4   8
TORSDOF 4
ENDMDL
MODEL      250
REMARK 921   NORMALIZED FREE ENERGY PREDICTED BY IDOCK:   -2.65 KCAL/MOL
REMARK 922        TOTAL FREE ENERGY PREDICTED BY IDOCK:   -4.09 KCAL/MOL
REMARK 923 INTER-LIGAND FREE ENERGY PREDICTED BY IDOCK:   -3.49 KCAL/MOL
REMARK 924 INTRA-LIGAND FREE ENERGY PREDICTED BY IDOCK:   -0.60 KCAL/MOL
REMARK 927      BINDING AFFINITY PREDICTED BY RF-SCORE:    0.00 PKD
ROOT
HETATM    1  N   UNL     1     -10.615  17.642  69.059  1.00  0.00    -0.377 NA 
HETATM    2  H1  UNL     1     -11.604  17.892  69.080  1.00  0.00     0.000 HD 
HETATM    3  H2  UNL     1     -10.189  17.917  68.175  1.00  0.00     0.000 HD 
HETATM    4  CA  UNL     1     -10.372  16.191  69.342  1.00  0.00    -0.277 C  
HETATM    5  C   UNL     1     -10.950  15.867  70.730  1.00  0.00    -0.241 C  
HETATM    6  OXT UNL     1     -10.803  14.814  71.325  1.00  0.00     0.047 OA 
HETATM    7  O   UNL     1     -11.663  16.914  71.222  1.00  0.00     0.181 OA 
ENDROOT
BRANCH   4   8
HETATM    8  C   UNL     1      -8.880  15.814  69.310  1.00  0.00    -0.262 C  
BRANCH   8   9
HETATM    9  C   UNL     1      -8.648  14.373  68.924  1.00  0.00    -0.064 A  
HETATM   10  C   UNL     1      -7.412  13.757  69.143  1.00  0.00     0.062 A  
HETATM   11  C   UNL     1      -7.196  12.435  68.732  1.00  0.00    -0.094 A  
HETATM   12  I   UNL     1      -5.257  11.659  69.024  1.00  0.00    -0.046 I  
HETATM   13  C   UNL     1      -8.205  11.694  68.084  1.00  0.00    -0.151 A  
HETATM   14  C   UNL     1      -9.412  12.350  67.786  1.00  0.00    -0.199 A  
HETATM   15  C   UNL     1      -9.645  13.655  68.256  1.00  0.00    -0.215 A  
HETATM   16  I   UNL     1     -10.888  11.643  66.445  1.00  0.00    -0.311 I  
BRANCH  13  17
HETATM   17  O   UNL     1      -7.846  10.428  67.682  1.00  0.00    -0.104 OA 
BRANCH  17  18
HETATM   18  C   UNL     1      -8.130   9.313  68.434  1.00  0.00    -0.106 A  
HETATM   19  C   UNL     1      -8.084   8.116  67.714  1.00  0.00    -0.127 A  
HETATM   20  C   UNL     1      -8.506   6.926  68.306  1.00  0.00    -0.125 A  
HETATM   21  I   UNL     1      -8.467   5.183  67.157  1.00  0.00    -0.102 I  
HETATM   22  C   UNL     1      -8.973   6.928  69.623  1.00  0.00    -0.144 A  
HETATM   23  C   UNL     1      -8.933   8.114  70.368  1.00  0.00    -0.146 A  
HETATM   24  O   UNL     1      -9.492   5.792  70.184  1.00  0.00    -0.154 OA 
HETATM   25  H   UNL     1      -9.810   5.793  71.079  1.00  0.00     0.000 HD 
HETATM   26  I   UNL     1      -9.664   8.204  72.329  1.00  0.00    -0.382 I  
HETATM   27  C   UNL     1      -8.467   9.301  69.788  1.00  0.00    -0.152 A  
ENDBRANCH  17  18
ENDBRANCH  13  17
ENDBRANCH   8   9
ENDBRANCH   4   8
TORSDOF 4
ENDMDL
MODEL      251
REMARK 921   NORMALIZED FREE ENERGY PREDICTED BY IDOCK:   -2.63 KCAL/MOL
REMARK 922        TOTAL FREE ENERGY PREDICTED BY IDOCK:   -4.06 KCAL/MOL
REMARK 923 INTER-LIGAND FREE ENERGY PREDICTED BY IDOCK:   -3.99 KCAL/MOL
REMARK 924 INTRA-LIGAND FREE ENERGY PREDICTED BY IDOCK:   -0.08 KCAL/MOL
REMARK 927      BINDING AFFINITY PREDICTED BY RF-SCORE:    0.00 PKD
ROOT
HETATM    1  N   UNL     1      -9.724  16.327  66.932  1.00  0.00    -0.232 NA 
HETATM    2  H1  UNL     1      -9.380  17.287  66.953  1.00  0.00     0.000 HD 
HETATM    3  H2  UNL     1      -9.946  16.041  65.979  1.00  0.00     0.000 HD 
HETATM    4  CA  UNL     1     -10.892  16.104  67.844  1.00  0.00    -0.332 C  
HETATM    5  C   UNL     1     -10.459  16.459  69.277  1.00  0.00    -0.303 C  
HETATM    6  OXT UNL     1     -11.121  16.261  70.280  1.00  0.00    -0.357 OA 
HETATM    7  O   UNL     1      -9.228  17.034  69.290  1.00  0.00    -0.128 OA 
ENDROOT
BRANCH   4   8
HETATM    8  C   UNL     1     -11.411  14.655  67.812  1.00  0.00    -0.359 C  
BRANCH   8   9
HETATM    9  C   UNL     1     -10.421  13.691  67.203  1.00  0.00    -0.264 A  
HETATM   10  C   UNL     1     -10.656  13.109  65.954  1.00  0.00    -0.290 A  
HETATM   11  C   UNL     1      -9.752  12.176  65.427  1.00  0.00    -0.162 A  
HETATM   12  I   UNL     1     -10.275  11.292  63.586  1.00  0.00    -0.472 I  
HETATM   13  C   UNL     1      -8.593  11.795  66.134  1.00  0.00    -0.001 A  
HETATM   14  C   UNL     1      -8.413  12.317  67.427  1.00  0.00    -0.176 A  
HETATM   15  C   UNL     1      -9.289  13.297  67.925  1.00  0.00    -0.214 A  
HETATM   16  I   UNL     1      -7.044  11.579  68.861  1.00  0.00    -0.067 I  
BRANCH  13  17
HETATM   17  O   UNL     1      -7.820  10.830  65.530  1.00  0.00    -0.133 OA 
BRANCH  17  18
HETATM   18  C   UNL     1      -7.851   9.515  65.928  1.00  0.00    -0.100 A  
HETATM   19  C   UNL     1      -9.071   9.120  66.484  1.00  0.00    -0.194 A  
HETATM   20  C   UNL     1      -9.196   7.864  67.078  1.00  0.00    -0.148 A  
HETATM   21  I   UNL     1     -11.028   7.357  67.943  1.00  0.00     0.304 I  
HETATM   22  C   UNL     1      -8.101   6.997  67.115  1.00  0.00    -0.118 A  
HETATM   23  C   UNL     1      -6.908   7.363  66.477  1.00  0.00    -0.062 A  
HETATM   24  O   UNL     1      -8.173   5.806  67.787  1.00  0.00    -0.102 OA 
HETATM   25  H   UNL     1      -7.428   5.215  67.812  1.00  0.00     0.000 HD 
HETATM   26  I   UNL     1      -5.211   6.137  66.536  1.00  0.00    -0.010 I  
HETATM   27  C   UNL     1      -6.797   8.606  65.841  1.00  0.00    -0.068 A  
ENDBRANCH  17  18
ENDBRANCH  13  17
ENDBRANCH   8   9
ENDBRANCH   4   8
TORSDOF 4
ENDMDL
MODEL      252
REMARK 921   NORMALIZED FREE ENERGY PREDICTED BY IDOCK:   -2.62 KCAL/MOL
REMARK 922        TOTAL FREE ENERGY PREDICTED BY IDOCK:   -4.05 KCAL/MOL
REMARK 923 INTER-LIGAND FREE ENERGY PREDICTED BY IDOCK:   -4.52 KCAL/MOL
REMARK 924 INTRA-LIGAND FREE ENERGY PREDICTED BY IDOCK:    0.47 KCAL/MOL
REMARK 927      BINDING AFFINITY PREDICTED BY RF-SCORE:    0.00 PKD
ROOT
HETATM    1  N   UNL     1     -13.655   8.162  72.061  1.00  0.00    -0.470 NA 
HETATM    2  H1  UNL     1     -14.589   8.541  71.907  1.00  0.00     0.000 HD 
HETATM    3  H2  UNL     1     -13.655   7.494  72.830  1.00  0.00     0.000 HD 
HETATM    4  CA  UNL     1     -12.620   9.225  72.276  1.00  0.00    -0.332 C  
HETATM    5  C   UNL     1     -12.601  10.138  71.038  1.00  0.00    -0.381 C  
HETATM    6  OXT UNL     1     -11.785  11.016  70.825  1.00  0.00    -0.313 OA 
HETATM    7  O   UNL     1     -13.627   9.844  70.196  1.00  0.00     0.283 OA 
ENDROOT
BRANCH   4   8
HETATM    8  C   UNL     1     -11.210   8.652  72.509  1.00  0.00    -0.244 C  
BRANCH   8   9
HETATM    9  C   UNL     1     -10.412   8.524  71.234  1.00  0.00    -0.289 A  
HETATM   10  C   UNL     1      -9.288   9.322  71.003  1.00  0.00    -0.298 A  
HETATM   11  C   UNL     1      -8.589   9.227  69.792  1.00  0.00    -0.159 A  
HETATM   12  I   UNL     1      -6.977  10.560  69.525  1.00  0.00    -0.130 I  
HETATM   13  C   UNL     1      -8.996   8.338  68.776  1.00  0.00    -0.144 A  
HETATM   14  C   UNL     1     -10.179   7.607  68.981  1.00  0.00    -0.206 A  
HETATM   15  C   UNL     1     -10.841   7.660  70.220  1.00  0.00    -0.253 A  
HETATM   16  I   UNL     1     -11.251   6.573  67.477  1.00  0.00     0.495 I  
BRANCH  13  17
HETATM   17  O   UNL     1      -8.257   8.384  67.616  1.00  0.00    -0.123 OA 
BRANCH  17  18
HETATM   18  C   UNL     1      -8.677   9.082  66.509  1.00  0.00    -0.129 A  
HETATM   19  C   UNL     1      -8.073   8.671  65.317  1.00  0.00    -0.136 A  
HETATM   20  C   UNL     1      -8.280   9.394  64.143  1.00  0.00    -0.158 A  
HETATM   21  I   UNL     1      -7.304   8.763  62.409  1.00  0.00    -0.108 I  
HETATM   22  C   UNL     1      -9.095  10.530  64.155  1.00  0.00    -0.231 A  
HETATM   23  C   UNL     1      -9.768  10.884  65.332  1.00  0.00    -0.238 A  
HETATM   24  O   UNL     1      -9.223  11.312  63.038  1.00  0.00    -0.353 OA 
HETATM   25  H   UNL     1      -9.777  12.084  63.047  1.00  0.00     0.000 HD 
HETATM   26  I   UNL     1     -10.963  12.601  65.438  1.00  0.00    -0.365 I  
HETATM   27  C   UNL     1      -9.596  10.132  66.501  1.00  0.00    -0.236 A  
ENDBRANCH  17  18
ENDBRANCH  13  17
ENDBRANCH   8   9
ENDBRANCH   4   8
TORSDOF 4
ENDMDL
MODEL      253
REMARK 921   NORMALIZED FREE ENERGY PREDICTED BY IDOCK:   -2.61 KCAL/MOL
REMARK 922        TOTAL FREE ENERGY PREDICTED BY IDOCK:   -4.04 KCAL/MOL
REMARK 923 INTER-LIGAND FREE ENERGY PREDICTED BY IDOCK:   -3.58 KCAL/MOL
REMARK 924 INTRA-LIGAND FREE ENERGY PREDICTED BY IDOCK:   -0.45 KCAL/MOL
REMARK 927      BINDING AFFINITY PREDICTED BY RF-SCORE:    0.00 PKD
ROOT
HETATM    1  N   UNL     1      -9.126   5.271  63.096  1.00  0.00    -0.340 NA 
HETATM    2  H1  UNL     1      -9.975   5.456  62.562  1.00  0.00     0.000 HD 
HETATM    3  H2  UNL     1      -8.391   5.933  62.851  1.00  0.00     0.000 HD 
HETATM    4  CA  UNL     1      -8.643   3.859  62.955  1.00  0.00    -0.094 C  
HETATM    5  C   UNL     1      -9.761   2.917  63.434  1.00  0.00    -0.101 C  
HETATM    6  OXT UNL     1      -9.651   1.713  63.582  1.00  0.00    -0.104 OA 
HETATM    7  O   UNL     1     -10.912   3.601  63.672  1.00  0.00    -0.230 OA 
ENDROOT
BRANCH   4   8
HETATM    8  C   UNL     1      -7.361   3.580  63.761  1.00  0.00    -0.055 C  
BRANCH   8   9
HETATM    9  C   UNL     1      -7.401   4.174  65.149  1.00  0.00    -0.072 A  
HETATM   10  C   UNL     1      -6.626   5.290  65.478  1.00  0.00    -0.041 A  
HETATM   11  C   UNL     1      -6.635   5.797  66.784  1.00  0.00    -0.056 A  
HETATM   12  I   UNL     1      -5.342   7.416  67.177  1.00  0.00    -0.032 I  
HETATM   13  C   UNL     1      -7.410   5.201  67.799  1.00  0.00    -0.075 A  
HETATM   14  C   UNL     1      -8.114   4.026  67.481  1.00  0.00    -0.091 A  
HETATM   15  C   UNL     1      -8.151   3.558  66.156  1.00  0.00    -0.093 A  
HETATM   16  I   UNL     1      -8.965   2.694  68.888  1.00  0.00    -0.220 I  
BRANCH  13  17
HETATM   17  O   UNL     1      -7.285   5.762  69.049  1.00  0.00    -0.073 OA 
BRANCH  17  18
HETATM   18  C   UNL     1      -8.300   6.482  69.633  1.00  0.00    -0.131 A  
HETATM   19  C   UNL     1      -8.892   5.842  70.726  1.00  0.00    -0.140 A  
HETATM   20  C   UNL     1     -10.038   6.379  71.313  1.00  0.00    -0.187 A  
HETATM   21  I   UNL     1     -10.908   5.345  72.906  1.00  0.00    -0.380 I  
HETATM   22  C   UNL     1     -10.593   7.559  70.812  1.00  0.00    -0.220 A  
HETATM   23  C   UNL     1      -9.945   8.242  69.775  1.00  0.00    -0.191 A  
HETATM   24  O   UNL     1     -11.776   8.041  71.307  1.00  0.00    -0.275 OA 
HETATM   25  H   UNL     1     -12.154   8.844  70.966  1.00  0.00     0.000 HD 
HETATM   26  I   UNL     1     -10.746   9.987  68.939  1.00  0.00    -0.244 I  
HETATM   27  C   UNL     1      -8.769   7.727  69.214  1.00  0.00    -0.139 A  
ENDBRANCH  17  18
ENDBRANCH  13  17
ENDBRANCH   8   9
ENDBRANCH   4   8
TORSDOF 4
ENDMDL
MODEL      254
REMARK 921   NORMALIZED FREE ENERGY PREDICTED BY IDOCK:   -2.50 KCAL/MOL
REMARK 922        TOTAL FREE ENERGY PREDICTED BY IDOCK:   -3.91 KCAL/MOL
REMARK 923 INTER-LIGAND FREE ENERGY PREDICTED BY IDOCK:   -3.15 KCAL/MOL
REMARK 924 INTRA-LIGAND FREE ENERGY PREDICTED BY IDOCK:   -0.76 KCAL/MOL
REMARK 927      BINDING AFFINITY PREDICTED BY RF-SCORE:    0.00 PKD
ROOT
HETATM    1  N   UNL     1      -7.352  15.268  70.196  1.00  0.00    -0.070 NA 
HETATM    2  H1  UNL     1      -6.551  15.852  70.434  1.00  0.00     0.000 HD 
HETATM    3  H2  UNL     1      -7.419  14.468  70.824  1.00  0.00     0.000 HD 
HETATM    4  CA  UNL     1      -7.346  14.825  68.764  1.00  0.00    -0.129 C  
HETATM    5  C   UNL     1      -7.346  16.079  67.872  1.00  0.00    -0.131 C  
HETATM    6  OXT UNL     1      -7.481  16.080  66.661  1.00  0.00    -0.218 OA 
HETATM    7  O   UNL     1      -7.170  17.207  68.609  1.00  0.00    -0.206 OA 
ENDROOT
BRANCH   4   8
HETATM    8  C   UNL     1      -8.555  13.943  68.403  1.00  0.00    -0.169 C  
BRANCH   8   9
HETATM    9  C   UNL     1      -8.155  12.568  67.923  1.00  0.00    -0.163 A  
HETATM   10  C   UNL     1      -7.162  11.836  68.580  1.00  0.00    -0.112 A  
HETATM   11  C   UNL     1      -6.766  10.584  68.091  1.00  0.00    -0.064 A  
HETATM   12  I   UNL     1      -5.185   9.630  69.110  1.00  0.00    -0.035 I  
HETATM   13  C   UNL     1      -7.344  10.032  66.930  1.00  0.00    -0.092 A  
HETATM   14  C   UNL     1      -8.275  10.815  66.226  1.00  0.00    -0.162 A  
HETATM   15  C   UNL     1      -8.713  12.042  66.754  1.00  0.00    -0.192 A  
HETATM   16  I   UNL     1      -8.938  10.442  64.251  1.00  0.00    -0.289 I  
BRANCH  13  17
HETATM   17  O   UNL     1      -6.825   8.823  66.526  1.00  0.00    -0.070 OA 
BRANCH  17  18
HETATM   18  C   UNL     1      -7.537   7.652  66.627  1.00  0.00    -0.097 A  
HETATM   19  C   UNL     1      -7.724   6.996  65.407  1.00  0.00    -0.111 A  
HETATM   20  C   UNL     1      -8.563   5.884  65.332  1.00  0.00    -0.137 A  
HETATM   21  I   UNL     1      -8.847   4.984  63.469  1.00  0.00     0.227 I  
HETATM   22  C   UNL     1      -9.216   5.422  66.478  1.00  0.00    -0.138 A  
HETATM   23  C   UNL     1      -8.954   6.029  67.713  1.00  0.00    -0.111 A  
HETATM   24  O   UNL     1     -10.125   4.400  66.403  1.00  0.00    -0.232 OA 
HETATM   25  H   UNL     1     -10.569   4.086  67.182  1.00  0.00     0.000 HD 
HETATM   26  I   UNL     1      -9.933   5.423  69.463  1.00  0.00    -0.337 I  
HETATM   27  C   UNL     1      -8.076   7.117  67.797  1.00  0.00    -0.115 A  
ENDBRANCH  17  18
ENDBRANCH  13  17
ENDBRANCH   8   9
ENDBRANCH   4   8
TORSDOF 4
ENDMDL
MODEL      255
REMARK 921   NORMALIZED FREE ENERGY PREDICTED BY IDOCK:   -2.48 KCAL/MOL
REMARK 922        TOTAL FREE ENERGY PREDICTED BY IDOCK:   -3.88 KCAL/MOL
REMARK 923 INTER-LIGAND FREE ENERGY PREDICTED BY IDOCK:   -4.46 KCAL/MOL
REMARK 924 INTRA-LIGAND FREE ENERGY PREDICTED BY IDOCK:    0.57 KCAL/MOL
REMARK 927      BINDING AFFINITY PREDICTED BY RF-SCORE:    0.00 PKD
ROOT
HETATM    1  N   UNL     1      -7.659   2.607  69.011  1.00  0.00    -0.047 NA 
HETATM    2  H1  UNL     1      -8.314   2.137  68.386  1.00  0.00     0.000 HD 
HETATM    3  H2  UNL     1      -6.708   2.270  68.862  1.00  0.00     0.000 HD 
HETATM    4  CA  UNL     1      -8.046   2.493  70.455  1.00  0.00    -0.041 C  
HETATM    5  C   UNL     1      -9.445   3.107  70.629  1.00  0.00    -0.163 C  
HETATM    6  OXT UNL     1     -10.000   3.302  71.695  1.00  0.00    -0.165 OA 
HETATM    7  O   UNL     1     -10.003   3.408  69.426  1.00  0.00     0.093 OA 
ENDROOT
BRANCH   4   8
HETATM    8  C   UNL     1      -7.057   3.200  71.399  1.00  0.00    -0.032 C  
BRANCH   8   9
HETATM    9  C   UNL     1      -7.173   4.705  71.348  1.00  0.00    -0.056 A  
HETATM   10  C   UNL     1      -7.416   5.450  72.506  1.00  0.00    -0.096 A  
HETATM   11  C   UNL     1      -7.572   6.841  72.433  1.00  0.00    -0.093 A  
HETATM   12  I   UNL     1      -8.041   7.833  74.233  1.00  0.00    -0.273 I  
HETATM   13  C   UNL     1      -7.497   7.525  71.203  1.00  0.00    -0.079 A  
HETATM   14  C   UNL     1      -7.344   6.758  70.035  1.00  0.00    -0.085 A  
HETATM   15  C   UNL     1      -7.126   5.372  70.119  1.00  0.00    -0.065 A  
HETATM   16  I   UNL     1      -7.658   7.461  68.063  1.00  0.00    -0.120 I  
BRANCH  13  17
HETATM   17  O   UNL     1      -7.725   8.881  71.263  1.00  0.00    -0.123 OA 
BRANCH  17  18
HETATM   18  C   UNL     1      -8.823   9.464  70.677  1.00  0.00    -0.220 A  
HETATM   19  C   UNL     1     -10.025   9.201  71.339  1.00  0.00    -0.373 A  
HETATM   20  C   UNL     1     -11.237   9.590  70.770  1.00  0.00    -0.317 A  
HETATM   21  I   UNL     1     -13.001   9.116  71.781  1.00  0.00    -0.546 I  
HETATM   22  C   UNL     1     -11.251  10.249  69.538  1.00  0.00    -0.261 A  
HETATM   23  C   UNL     1     -10.039  10.589  68.923  1.00  0.00    -0.202 A  
HETATM   24  O   UNL     1     -12.434  10.543  68.914  1.00  0.00    -0.776 OA 
HETATM   25  H   UNL     1     -12.444  10.991  68.076  1.00  0.00     0.000 HD 
HETATM   26  I   UNL     1      -9.983  11.530  67.052  1.00  0.00    -0.249 I  
HETATM   27  C   UNL     1      -8.820  10.237  69.516  1.00  0.00    -0.166 A  
ENDBRANCH  17  18
ENDBRANCH  13  17
ENDBRANCH   8   9
ENDBRANCH   4   8
TORSDOF 4
ENDMDL
MODEL      256
REMARK 921   NORMALIZED FREE ENERGY PREDICTED BY IDOCK:   -2.47 KCAL/MOL
REMARK 922        TOTAL FREE ENERGY PREDICTED BY IDOCK:   -3.87 KCAL/MOL
REMARK 923 INTER-LIGAND FREE ENERGY PREDICTED BY IDOCK:   -3.62 KCAL/MOL
REMARK 924 INTRA-LIGAND FREE ENERGY PREDICTED BY IDOCK:   -0.25 KCAL/MOL
REMARK 927      BINDING AFFINITY PREDICTED BY RF-SCORE:    0.00 PKD
ROOT
HETATM    1  N   UNL     1      -7.527   5.235  64.850  1.00  0.00    -0.068 NA 
HETATM    2  H1  UNL     1      -7.943   4.989  63.952  1.00  0.00     0.000 HD 
HETATM    3  H2  UNL     1      -6.600   5.639  64.723  1.00  0.00     0.000 HD 
HETATM    4  CA  UNL     1      -7.482   4.083  65.807  1.00  0.00    -0.081 C  
HETATM    5  C   UNL     1      -8.920   3.586  66.032  1.00  0.00    -0.140 C  
HETATM    6  OXT UNL     1      -9.256   2.754  66.856  1.00  0.00    -0.159 OA 
HETATM    7  O   UNL     1      -9.789   4.194  65.182  1.00  0.00    -0.183 OA 
ENDROOT
BRANCH   4   8
HETATM    8  C   UNL     1      -6.853   4.453  67.163  1.00  0.00    -0.052 C  
BRANCH   8   9
HETATM    9  C   UNL     1      -7.128   5.882  67.566  1.00  0.00    -0.074 A  
HETATM   10  C   UNL     1      -8.344   6.245  68.152  1.00  0.00    -0.115 A  
HETATM   11  C   UNL     1      -8.604   7.584  68.473  1.00  0.00    -0.129 A  
HETATM   12  I   UNL     1     -10.515   8.014  69.253  1.00  0.00    -0.104 I  
HETATM   13  C   UNL     1      -7.661   8.598  68.211  1.00  0.00    -0.097 A  
HETATM   14  C   UNL     1      -6.480   8.238  67.538  1.00  0.00    -0.058 A  
HETATM   15  C   UNL     1      -6.198   6.886  67.275  1.00  0.00    -0.037 A  
HETATM   16  I   UNL     1      -5.133   9.591  66.626  1.00  0.00    -0.041 I  
BRANCH  13  17
HETATM   17  O   UNL     1      -8.063   9.878  68.522  1.00  0.00    -0.098 OA 
BRANCH  17  18
HETATM   18  C   UNL     1      -8.708  10.682  67.612  1.00  0.00    -0.121 A  
HETATM   19  C   UNL     1      -9.435  11.725  68.194  1.00  0.00    -0.193 A  
HETATM   20  C   UNL     1     -10.268  12.520  67.408  1.00  0.00    -0.213 A  
HETATM   21  I   UNL     1     -11.371  14.025  68.347  1.00  0.00    -0.395 I  
HETATM   22  C   UNL     1     -10.375  12.278  66.036  1.00  0.00    -0.245 A  
HETATM   23  C   UNL     1      -9.577  11.290  65.445  1.00  0.00    -0.228 A  
HETATM   24  O   UNL     1     -11.268  12.978  65.269  1.00  0.00    -0.285 OA 
HETATM   25  H   UNL     1     -11.341  12.813  64.336  1.00  0.00     0.000 HD 
HETATM   26  I   UNL     1      -9.722  10.836  63.405  1.00  0.00    -0.349 I  
HETATM   27  C   UNL     1      -8.706  10.520  66.227  1.00  0.00    -0.159 A  
ENDBRANCH  17  18
ENDBRANCH  13  17
ENDBRANCH   8   9
ENDBRANCH   4   8
TORSDOF 4
ENDMDL
MODEL      257
REMARK 921   NORMALIZED FREE ENERGY PREDICTED BY IDOCK:   -2.46 KCAL/MOL
REMARK 922        TOTAL FREE ENERGY PREDICTED BY IDOCK:   -3.85 KCAL/MOL
REMARK 923 INTER-LIGAND FREE ENERGY PREDICTED BY IDOCK:   -3.18 KCAL/MOL
REMARK 924 INTRA-LIGAND FREE ENERGY PREDICTED BY IDOCK:   -0.67 KCAL/MOL
REMARK 927      BINDING AFFINITY PREDICTED BY RF-SCORE:    0.00 PKD
ROOT
HETATM    1  N   UNL     1     -11.972  11.808  65.748  1.00  0.00    -0.304 NA 
HETATM    2  H1  UNL     1     -12.347  12.114  64.850  1.00  0.00     0.000 HD 
HETATM    3  H2  UNL     1     -12.548  11.071  66.152  1.00  0.00     0.000 HD 
HETATM    4  CA  UNL     1     -11.789  12.936  66.718  1.00  0.00    -0.385 C  
HETATM    5  C   UNL     1     -10.831  13.963  66.089  1.00  0.00    -0.290 C  
HETATM    6  OXT UNL     1     -10.362  14.930  66.662  1.00  0.00    -0.273 OA 
HETATM    7  O   UNL     1     -10.570  13.659  64.790  1.00  0.00    -0.377 OA 
ENDROOT
BRANCH   4   8
HETATM    8  C   UNL     1     -11.223  12.476  68.074  1.00  0.00    -0.316 C  
BRANCH   8   9
HETATM    9  C   UNL     1     -10.459  11.176  67.980  1.00  0.00    -0.217 A  
HETATM   10  C   UNL     1     -11.065   9.959  68.305  1.00  0.00    -0.207 A  
HETATM   11  C   UNL     1     -10.328   8.768  68.262  1.00  0.00    -0.207 A  
HETATM   12  I   UNL     1     -11.328   7.016  68.878  1.00  0.00     0.486 I  
HETATM   13  C   UNL     1      -8.966   8.759  67.900  1.00  0.00    -0.140 A  
HETATM   14  C   UNL     1      -8.343   9.997  67.664  1.00  0.00    -0.114 A  
HETATM   15  C   UNL     1      -9.101  11.181  67.648  1.00  0.00    -0.147 A  
HETATM   16  I   UNL     1      -6.253  10.312  67.561  1.00  0.00    -0.059 I  
BRANCH  13  17
HETATM   17  O   UNL     1      -8.345   7.532  67.953  1.00  0.00    -0.122 OA 
BRANCH  17  18
HETATM   18  C   UNL     1      -8.040   6.818  66.819  1.00  0.00    -0.109 A  
HETATM   19  C   UNL     1      -7.331   5.639  67.066  1.00  0.00    -0.080 A  
HETATM   20  C   UNL     1      -6.814   4.898  66.004  1.00  0.00    -0.058 A  
HETATM   21  I   UNL     1      -5.714   3.178  66.441  1.00  0.00    -0.024 I  
HETATM   22  C   UNL     1      -7.007   5.332  64.689  1.00  0.00    -0.049 A  
HETATM   23  C   UNL     1      -7.794   6.465  64.445  1.00  0.00    -0.115 A  
HETATM   24  O   UNL     1      -6.417   4.677  63.641  1.00  0.00    -0.029 OA 
HETATM   25  H   UNL     1      -6.548   4.972  62.747  1.00  0.00     0.000 HD 
HETATM   26  I   UNL     1      -8.084   7.202  62.506  1.00  0.00     0.086 I  
HETATM   27  C   UNL     1      -8.351   7.184  65.510  1.00  0.00    -0.132 A  
ENDBRANCH  17  18
ENDBRANCH  13  17
ENDBRANCH   8   9
ENDBRANCH   4   8
TORSDOF 4
ENDMDL
MODEL      258
REMARK 921   NORMALIZED FREE ENERGY PREDICTED BY IDOCK:   -2.44 KCAL/MOL
REMARK 922        TOTAL FREE ENERGY PREDICTED BY IDOCK:   -3.84 KCAL/MOL
REMARK 923 INTER-LIGAND FREE ENERGY PREDICTED BY IDOCK:   -3.19 KCAL/MOL
REMARK 924 INTRA-LIGAND FREE ENERGY PREDICTED BY IDOCK:   -0.65 KCAL/MOL
REMARK 927      BINDING AFFINITY PREDICTED BY RF-SCORE:    0.00 PKD
ROOT
HETATM    1  N   UNL     1      -9.664  14.420  67.764  1.00  0.00    -0.217 NA 
HETATM    2  H1  UNL     1     -10.334  14.841  68.408  1.00  0.00     0.000 HD 
HETATM    3  H2  UNL     1     -10.110  13.705  67.191  1.00  0.00     0.000 HD 
HETATM    4  CA  UNL     1      -8.452  13.874  68.455  1.00  0.00    -0.127 C  
HETATM    5  C   UNL     1      -7.772  15.024  69.218  1.00  0.00    -0.194 C  
HETATM    6  OXT UNL     1      -6.690  14.957  69.772  1.00  0.00    -0.159 OA 
HETATM    7  O   UNL     1      -8.540  16.145  69.203  1.00  0.00    -0.244 OA 
ENDROOT
BRANCH   4   8
HETATM    8  C   UNL     1      -7.441  13.239  67.483  1.00  0.00    -0.163 C  
BRANCH   8   9
HETATM    9  C   UNL     1      -7.245  11.761  67.724  1.00  0.00    -0.097 A  
HETATM   10  C   UNL     1      -7.827  10.809  66.881  1.00  0.00    -0.130 A  
HETATM   11  C   UNL     1      -7.678   9.441  67.149  1.00  0.00    -0.091 A  
HETATM   12  I   UNL     1      -8.693   8.113  65.864  1.00  0.00    -0.129 I  
HETATM   13  C   UNL     1      -6.952   8.987  68.268  1.00  0.00    -0.076 A  
HETATM   14  C   UNL     1      -6.449   9.951  69.159  1.00  0.00    -0.048 A  
HETATM   15  C   UNL     1      -6.548  11.319  68.853  1.00  0.00    -0.068 A  
HETATM   16  I   UNL     1      -5.740   9.555  71.113  1.00  0.00    -0.045 I  
BRANCH  13  17
HETATM   17  O   UNL     1      -6.930   7.622  68.447  1.00  0.00    -0.067 OA 
BRANCH  17  18
HETATM   18  C   UNL     1      -7.708   6.997  69.393  1.00  0.00    -0.108 A  
HETATM   19  C   UNL     1      -7.153   5.815  69.891  1.00  0.00    -0.068 A  
HETATM   20  C   UNL     1      -7.900   4.992  70.733  1.00  0.00    -0.083 A  
HETATM   21  I   UNL     1      -7.035   3.210  71.396  1.00  0.00    -0.033 I  
HETATM   22  C   UNL     1      -9.205   5.350  71.083  1.00  0.00    -0.145 A  
HETATM   23  C   UNL     1      -9.722   6.579  70.654  1.00  0.00    -0.179 A  
HETATM   24  O   UNL     1      -9.989   4.504  71.821  1.00  0.00    -0.180 OA 
HETATM   25  H   UNL     1     -10.877   4.747  72.059  1.00  0.00     0.000 HD 
HETATM   26  I   UNL     1     -11.686   7.158  71.097  1.00  0.00    -0.395 I  
HETATM   27  C   UNL     1      -8.956   7.427  69.844  1.00  0.00    -0.141 A  
ENDBRANCH  17  18
ENDBRANCH  13  17
ENDBRANCH   8   9
ENDBRANCH   4   8
TORSDOF 4
ENDMDL
MODEL      259
REMARK 921   NORMALIZED FREE ENERGY PREDICTED BY IDOCK:   -2.44 KCAL/MOL
REMARK 922        TOTAL FREE ENERGY PREDICTED BY IDOCK:   -3.83 KCAL/MOL
REMARK 923 INTER-LIGAND FREE ENERGY PREDICTED BY IDOCK:   -4.43 KCAL/MOL
REMARK 924 INTRA-LIGAND FREE ENERGY PREDICTED BY IDOCK:    0.60 KCAL/MOL
REMARK 927      BINDING AFFINITY PREDICTED BY RF-SCORE:    0.00 PKD
ROOT
HETATM    1  N   UNL     1      -8.776   6.098  71.380  1.00  0.00    -0.135 NA 
HETATM    2  H1  UNL     1      -9.226   5.185  71.321  1.00  0.00     0.000 HD 
HETATM    3  H2  UNL     1      -7.762   6.009  71.328  1.00  0.00     0.000 HD 
HETATM    4  CA  UNL     1      -9.183   6.874  72.596  1.00  0.00    -0.135 C  
HETATM    5  C   UNL     1     -10.709   7.060  72.561  1.00  0.00    -0.242 C  
HETATM    6  OXT UNL     1     -11.350   7.761  73.324  1.00  0.00    -0.321 OA 
HETATM    7  O   UNL     1     -11.270   6.332  71.559  1.00  0.00    -0.268 OA 
ENDROOT
BRANCH   4   8
HETATM    8  C   UNL     1      -8.503   8.253  72.684  1.00  0.00    -0.248 C  
BRANCH   8   9
HETATM    9  C   UNL     1      -8.456   8.969  71.355  1.00  0.00    -0.149 A  
HETATM   10  C   UNL     1      -9.629   9.386  70.719  1.00  0.00    -0.322 A  
HETATM   11  C   UNL     1      -9.571  10.003  69.462  1.00  0.00    -0.230 A  
HETATM   12  I   UNL     1     -11.416  10.487  68.562  1.00  0.00     0.032 I  
HETATM   13  C   UNL     1      -8.343  10.215  68.803  1.00  0.00    -0.122 A  
HETATM   14  C   UNL     1      -7.179   9.710  69.409  1.00  0.00    -0.071 A  
HETATM   15  C   UNL     1      -7.236   9.148  70.696  1.00  0.00    -0.106 A  
HETATM   16  I   UNL     1      -5.306   9.479  68.451  1.00  0.00    -0.035 I  
BRANCH  13  17
HETATM   17  O   UNL     1      -8.430  10.778  67.551  1.00  0.00    -0.118 OA 
BRANCH  17  18
HETATM   18  C   UNL     1      -8.851  12.073  67.359  1.00  0.00    -0.178 A  
HETATM   19  C   UNL     1      -9.697  12.236  66.258  1.00  0.00    -0.254 A  
HETATM   20  C   UNL     1     -10.070  13.515  65.847  1.00  0.00    -0.303 A  
HETATM   21  I   UNL     1     -11.287  13.695  64.160  1.00  0.00    -0.062 I  
HETATM   22  C   UNL     1      -9.603  14.637  66.539  1.00  0.00    -0.289 A  
HETATM   23  C   UNL     1      -8.830  14.462  67.694  1.00  0.00    -0.193 A  
HETATM   24  O   UNL     1      -9.871  15.901  66.086  1.00  0.00    -0.271 OA 
HETATM   25  H   UNL     1      -9.554  16.663  66.556  1.00  0.00     0.000 HD 
HETATM   26  I   UNL     1      -8.052  16.095  68.751  1.00  0.00    -0.237 I  
HETATM   27  C   UNL     1      -8.491  13.176  68.133  1.00  0.00    -0.173 A  
ENDBRANCH  17  18
ENDBRANCH  13  17
ENDBRANCH   8   9
ENDBRANCH   4   8
TORSDOF 4
ENDMDL
MODEL      260
REMARK 921   NORMALIZED FREE ENERGY PREDICTED BY IDOCK:   -2.42 KCAL/MOL
REMARK 922        TOTAL FREE ENERGY PREDICTED BY IDOCK:   -3.80 KCAL/MOL
REMARK 923 INTER-LIGAND FREE ENERGY PREDICTED BY IDOCK:   -3.42 KCAL/MOL
REMARK 924 INTRA-LIGAND FREE ENERGY PREDICTED BY IDOCK:   -0.38 KCAL/MOL
REMARK 927      BINDING AFFINITY PREDICTED BY RF-SCORE:    0.00 PKD
ROOT
HETATM    1  N   UNL     1     -11.122  11.602  69.721  1.00  0.00    -0.478 NA 
HETATM    2  H1  UNL     1     -11.886  12.205  69.417  1.00  0.00     0.000 HD 
HETATM    3  H2  UNL     1     -10.363  11.604  69.040  1.00  0.00     0.000 HD 
HETATM    4  CA  UNL     1     -11.567  10.202  70.020  1.00  0.00    -0.253 C  
HETATM    5  C   UNL     1     -12.638  10.262  71.123  1.00  0.00    -0.400 C  
HETATM    6  OXT UNL     1     -13.110   9.298  71.698  1.00  0.00    -0.340 OA 
HETATM    7  O   UNL     1     -13.005  11.545  71.382  1.00  0.00    -0.412 OA 
ENDROOT
BRANCH   4   8
HETATM    8  C   UNL     1     -10.414   9.291  70.479  1.00  0.00    -0.312 C  
BRANCH   8   9
HETATM    9  C   UNL     1      -9.674   8.657  69.325  1.00  0.00    -0.173 A  
HETATM   10  C   UNL     1      -8.532   9.256  68.785  1.00  0.00    -0.129 A  
HETATM   11  C   UNL     1      -7.887   8.682  67.681  1.00  0.00    -0.103 A  
HETATM   12  I   UNL     1      -6.240   9.740  66.895  1.00  0.00    -0.067 I  
HETATM   13  C   UNL     1      -8.367   7.500  67.082  1.00  0.00    -0.121 A  
HETATM   14  C   UNL     1      -9.566   6.956  67.574  1.00  0.00    -0.128 A  
HETATM   15  C   UNL     1     -10.174   7.500  68.719  1.00  0.00    -0.206 A  
HETATM   16  I   UNL     1     -10.735   5.490  66.593  1.00  0.00     0.119 I  
BRANCH  13  17
HETATM   17  O   UNL     1      -7.675   7.074  65.971  1.00  0.00    -0.092 OA 
BRANCH  17  18
HETATM   18  C   UNL     1      -7.234   5.779  65.837  1.00  0.00    -0.075 A  
HETATM   19  C   UNL     1      -6.830   5.191  67.040  1.00  0.00    -0.060 A  
HETATM   20  C   UNL     1      -6.209   3.943  67.035  1.00  0.00    -0.032 A  
HETATM   21  I   UNL     1      -5.579   3.145  68.858  1.00  0.00    -0.024 I  
HETATM   22  C   UNL     1      -5.993   3.275  65.826  1.00  0.00    -0.023 A  
HETATM   23  C   UNL     1      -6.479   3.828  64.635  1.00  0.00    -0.038 A  
HETATM   24  O   UNL     1      -5.290   2.100  65.792  1.00  0.00    -0.005 OA 
HETATM   25  H   UNL     1      -5.142   1.646  64.970  1.00  0.00     0.000 HD 
HETATM   26  I   UNL     1      -6.145   2.910  62.782  1.00  0.00    -0.014 I  
HETATM   27  C   UNL     1      -7.142   5.062  64.645  1.00  0.00    -0.054 A  
ENDBRANCH  17  18
ENDBRANCH  13  17
ENDBRANCH   8   9
ENDBRANCH   4   8
TORSDOF 4
ENDMDL
MODEL      261
REMARK 921   NORMALIZED FREE ENERGY PREDICTED BY IDOCK:   -2.42 KCAL/MOL
REMARK 922        TOTAL FREE ENERGY PREDICTED BY IDOCK:   -3.80 KCAL/MOL
REMARK 923 INTER-LIGAND FREE ENERGY PREDICTED BY IDOCK:   -5.28 KCAL/MOL
REMARK 924 INTRA-LIGAND FREE ENERGY PREDICTED BY IDOCK:    1.48 KCAL/MOL
REMARK 927      BINDING AFFINITY PREDICTED BY RF-SCORE:    0.00 PKD
ROOT
HETATM    1  N   UNL     1     -11.224  13.148  69.860  1.00  0.00    -0.487 NA 
HETATM    2  H1  UNL     1     -11.238  14.127  69.576  1.00  0.00     0.000 HD 
HETATM    3  H2  UNL     1     -10.869  12.556  69.110  1.00  0.00     0.000 HD 
HETATM    4  CA  UNL     1     -12.558  12.660  70.340  1.00  0.00    -0.041 C  
HETATM    5  C   UNL     1     -12.988  13.531  71.533  1.00  0.00    -0.355 C  
HETATM    6  OXT UNL     1     -13.954  13.320  72.245  1.00  0.00    -0.532 OA 
HETATM    7  O   UNL     1     -12.149  14.587  71.699  1.00  0.00    -0.342 OA 
ENDROOT
BRANCH   4   8
HETATM    8  C   UNL     1     -12.538  11.182  70.769  1.00  0.00    -0.445 C  
BRANCH   8   9
HETATM    9  C   UNL     1     -11.329  10.438  70.253  1.00  0.00    -0.406 A  
HETATM   10  C   UNL     1     -10.960  10.509  68.907  1.00  0.00    -0.291 A  
HETATM   11  C   UNL     1      -9.866   9.771  68.433  1.00  0.00    -0.152 A  
HETATM   12  I   UNL     1      -9.478   9.881  66.363  1.00  0.00    -0.289 I  
HETATM   13  C   UNL     1      -9.115   8.939  69.289  1.00  0.00    -0.145 A  
HETATM   14  C   UNL     1      -9.550   8.804  70.619  1.00  0.00    -0.199 A  
HETATM   15  C   UNL     1     -10.609   9.592  71.103  1.00  0.00    -0.388 A  
HETATM   16  I   UNL     1      -8.909   7.303  71.966  1.00  0.00    -0.158 I  
BRANCH  13  17
HETATM   17  O   UNL     1      -8.103   8.227  68.686  1.00  0.00    -0.116 OA 
BRANCH  17  18
HETATM   18  C   UNL     1      -8.136   6.857  68.581  1.00  0.00    -0.121 A  
HETATM   19  C   UNL     1      -8.576   6.395  67.337  1.00  0.00    -0.107 A  
HETATM   20  C   UNL     1      -8.815   5.035  67.140  1.00  0.00    -0.106 A  
HETATM   21  I   UNL     1      -9.526   4.416  65.277  1.00  0.00    -0.163 I  
HETATM   22  C   UNL     1      -8.611   4.131  68.186  1.00  0.00    -0.096 A  
HETATM   23  C   UNL     1      -8.085   4.588  69.401  1.00  0.00    -0.064 A  
HETATM   24  O   UNL     1      -8.942   2.810  68.044  1.00  0.00    -0.119 OA 
HETATM   25  H   UNL     1      -8.803   2.195  68.755  1.00  0.00     0.000 HD 
HETATM   26  I   UNL     1      -7.802   3.301  71.029  1.00  0.00    -0.062 I  
HETATM   27  C   UNL     1      -7.803   5.948  69.585  1.00  0.00    -0.097 A  
ENDBRANCH  17  18
ENDBRANCH  13  17
ENDBRANCH   8   9
ENDBRANCH   4   8
TORSDOF 4
ENDMDL
MODEL      262
REMARK 921   NORMALIZED FREE ENERGY PREDICTED BY IDOCK:   -2.41 KCAL/MOL
REMARK 922        TOTAL FREE ENERGY PREDICTED BY IDOCK:   -3.79 KCAL/MOL
REMARK 923 INTER-LIGAND FREE ENERGY PREDICTED BY IDOCK:   -3.99 KCAL/MOL
REMARK 924 INTRA-LIGAND FREE ENERGY PREDICTED BY IDOCK:    0.20 KCAL/MOL
REMARK 927      BINDING AFFINITY PREDICTED BY RF-SCORE:    0.00 PKD
ROOT
HETATM    1  N   UNL     1     -14.272  15.615  71.242  1.00  0.00    -0.679 NA 
HETATM    2  H1  UNL     1     -15.033  14.995  71.516  1.00  0.00     0.000 HD 
HETATM    3  H2  UNL     1     -14.628  16.432  70.747  1.00  0.00     0.000 HD 
HETATM    4  CA  UNL     1     -13.214  14.922  70.437  1.00  0.00    -0.085 C  
HETATM    5  C   UNL     1     -12.650  13.764  71.279  1.00  0.00    -0.362 C  
HETATM    6  OXT UNL     1     -11.684  13.085  70.981  1.00  0.00     0.229 OA 
HETATM    7  O   UNL     1     -13.375  13.583  72.414  1.00  0.00    -0.493 OA 
ENDROOT
BRANCH   4   8
HETATM    8  C   UNL     1     -12.065  15.858  70.023  1.00  0.00    -0.264 C  
BRANCH   8   9
HETATM    9  C   UNL     1     -10.978  15.146  69.253  1.00  0.00    -0.260 A  
HETATM   10  C   UNL     1      -9.630  15.319  69.582  1.00  0.00    -0.188 A  
HETATM   11  C   UNL     1      -8.631  14.691  68.825  1.00  0.00    -0.160 A  
HETATM   12  I   UNL     1      -6.636  15.118  69.357  1.00  0.00    -0.189 I  
HETATM   13  C   UNL     1      -8.949  13.881  67.716  1.00  0.00    -0.188 A  
HETATM   14  C   UNL     1     -10.300  13.788  67.339  1.00  0.00    -0.252 A  
HETATM   15  C   UNL     1     -11.302  14.368  68.137  1.00  0.00    -0.317 A  
HETATM   16  I   UNL     1     -11.002  13.038  65.488  1.00  0.00    -0.333 I  
BRANCH  13  17
HETATM   17  O   UNL     1      -7.874  13.371  67.025  1.00  0.00    -0.074 OA 
BRANCH  17  18
HETATM   18  C   UNL     1      -7.481  12.059  67.149  1.00  0.00    -0.138 A  
HETATM   19  C   UNL     1      -7.700  11.520  68.420  1.00  0.00    -0.129 A  
HETATM   20  C   UNL     1      -7.205  10.257  68.739  1.00  0.00    -0.083 A  
HETATM   21  I   UNL     1      -7.516   9.532  70.673  1.00  0.00     0.110 I  
HETATM   22  C   UNL     1      -6.491   9.525  67.786  1.00  0.00    -0.058 A  
HETATM   23  C   UNL     1      -6.352  10.032  66.488  1.00  0.00    -0.072 A  
HETATM   24  O   UNL     1      -5.906   8.331  68.114  1.00  0.00    -0.036 OA 
HETATM   25  H   UNL     1      -5.420   7.833  67.466  1.00  0.00     0.000 HD 
HETATM   26  I   UNL     1      -5.252   9.016  65.024  1.00  0.00    -0.038 I  
HETATM   27  C   UNL     1      -6.888  11.283  66.154  1.00  0.00     0.066 A  
ENDBRANCH  17  18
ENDBRANCH  13  17
ENDBRANCH   8   9
ENDBRANCH   4   8
TORSDOF 4
ENDMDL
MODEL      263
REMARK 921   NORMALIZED FREE ENERGY PREDICTED BY IDOCK:   -2.40 KCAL/MOL
REMARK 922        TOTAL FREE ENERGY PREDICTED BY IDOCK:   -3.79 KCAL/MOL
REMARK 923 INTER-LIGAND FREE ENERGY PREDICTED BY IDOCK:   -3.21 KCAL/MOL
REMARK 924 INTRA-LIGAND FREE ENERGY PREDICTED BY IDOCK:   -0.58 KCAL/MOL
REMARK 927      BINDING AFFINITY PREDICTED BY RF-SCORE:    0.00 PKD
ROOT
HETATM    1  N   UNL     1      -8.484  10.948  64.224  1.00  0.00    -0.375 NA 
HETATM    2  H1  UNL     1      -7.912  11.789  64.148  1.00  0.00     0.000 HD 
HETATM    3  H2  UNL     1      -9.191  11.053  64.951  1.00  0.00     0.000 HD 
HETATM    4  CA  UNL     1      -7.672   9.707  64.444  1.00  0.00    -0.128 C  
HETATM    5  C   UNL     1      -6.696   9.555  63.264  1.00  0.00    -0.101 C  
HETATM    6  OXT UNL     1      -5.989   8.585  63.058  1.00  0.00    -0.080 OA 
HETATM    7  O   UNL     1      -6.714  10.655  62.467  1.00  0.00    -0.138 OA 
ENDROOT
BRANCH   4   8
HETATM    8  C   UNL     1      -8.535   8.437  64.559  1.00  0.00    -0.078 C  
BRANCH   8   9
HETATM    9  C   UNL     1      -8.235   7.637  65.804  1.00  0.00    -0.133 A  
HETATM   10  C   UNL     1      -7.447   8.166  66.829  1.00  0.00    -0.090 A  
HETATM   11  C   UNL     1      -7.135   7.391  67.955  1.00  0.00    -0.085 A  
HETATM   12  I   UNL     1      -5.850   8.268  69.379  1.00  0.00    -0.030 I  
HETATM   13  C   UNL     1      -7.596   6.066  68.084  1.00  0.00    -0.094 A  
HETATM   14  C   UNL     1      -8.310   5.512  67.008  1.00  0.00    -0.107 A  
HETATM   15  C   UNL     1      -8.672   6.312  65.910  1.00  0.00    -0.154 A  
HETATM   16  I   UNL     1      -8.712   3.451  66.739  1.00  0.00    -0.169 I  
BRANCH  13  17
HETATM   17  O   UNL     1      -7.172   5.397  69.210  1.00  0.00    -0.061 OA 
BRANCH  17  18
HETATM   18  C   UNL     1      -8.034   5.050  70.222  1.00  0.00    -0.078 A  
HETATM   19  C   UNL     1      -8.480   6.135  70.983  1.00  0.00    -0.128 A  
HETATM   20  C   UNL     1      -9.228   5.918  72.139  1.00  0.00    -0.146 A  
HETATM   21  I   UNL     1      -9.815   7.577  73.263  1.00  0.00    -0.340 I  
HETATM   22  C   UNL     1      -9.537   4.614  72.539  1.00  0.00    -0.139 A  
HETATM   23  C   UNL     1      -9.163   3.537  71.725  1.00  0.00    -0.120 A  
HETATM   24  O   UNL     1     -10.176   4.378  73.726  1.00  0.00    -0.146 OA 
HETATM   25  H   UNL     1     -10.386   3.491  73.998  1.00  0.00     0.000 HD 
HETATM   26  I   UNL     1      -9.545   1.554  72.284  1.00  0.00    -0.190 I  
HETATM   27  C   UNL     1      -8.450   3.757  70.539  1.00  0.00    -0.100 A  
ENDBRANCH  17  18
ENDBRANCH  13  17
ENDBRANCH   8   9
ENDBRANCH   4   8
TORSDOF 4
ENDMDL
MODEL      264
REMARK 921   NORMALIZED FREE ENERGY PREDICTED BY IDOCK:   -2.28 KCAL/MOL
REMARK 922        TOTAL FREE ENERGY PREDICTED BY IDOCK:   -3.63 KCAL/MOL
REMARK 923 INTER-LIGAND FREE ENERGY PREDICTED BY IDOCK:   -4.75 KCAL/MOL
REMARK 924 INTRA-LIGAND FREE ENERGY PREDICTED BY IDOCK:    1.12 KCAL/MOL
REMARK 927      BINDING AFFINITY PREDICTED BY RF-SCORE:    0.00 PKD
ROOT
HETATM    1  N   UNL     1     -11.886  11.144  64.266  1.00  0.00     0.129 NA 
HETATM    2  H1  UNL     1     -12.068  10.161  64.062  1.00  0.00     0.000 HD 
HETATM    3  H2  UNL     1     -12.756  11.648  64.434  1.00  0.00     0.000 HD 
HETATM    4  CA  UNL     1     -11.072  11.820  63.205  1.00  0.00    -0.286 C  
HETATM    5  C   UNL     1      -9.735  11.070  63.073  1.00  0.00    -0.354 C  
HETATM    6  OXT UNL     1      -8.787  11.437  62.402  1.00  0.00    -0.301 OA 
HETATM    7  O   UNL     1      -9.739   9.925  63.805  1.00  0.00    -0.162 OA 
ENDROOT
BRANCH   4   8
HETATM    8  C   UNL     1     -10.796  13.303  63.513  1.00  0.00     0.314 C  
BRANCH   8   9
HETATM    9  C   UNL     1     -10.660  13.579  64.992  1.00  0.00    -0.382 A  
HETATM   10  C   UNL     1     -10.843  14.866  65.505  1.00  0.00    -0.365 A  
HETATM   11  C   UNL     1     -10.661  15.116  66.872  1.00  0.00    -0.308 A  
HETATM   12  I   UNL     1     -10.862  17.119  67.501  1.00  0.00     0.135 I  
HETATM   13  C   UNL     1     -10.286  14.090  67.762  1.00  0.00    -0.236 A  
HETATM   14  C   UNL     1     -10.015  12.820  67.223  1.00  0.00    -0.219 A  
HETATM   15  C   UNL     1     -10.258  12.561  65.863  1.00  0.00    -0.280 A  
HETATM   16  I   UNL     1      -9.011  11.254  68.231  1.00  0.00    -0.164 I  
BRANCH  13  17
HETATM   17  O   UNL     1     -10.086  14.479  69.067  1.00  0.00    -0.227 OA 
BRANCH  17  18
HETATM   18  C   UNL     1     -10.950  14.126  70.076  1.00  0.00     0.122 A  
HETATM   19  C   UNL     1     -11.343  12.785  70.041  1.00  0.00     0.059 A  
HETATM   20  C   UNL     1     -12.339  12.325  70.901  1.00  0.00    -0.267 A  
HETATM   21  I   UNL     1     -12.923  10.325  70.760  1.00  0.00    -0.050 I  
HETATM   22  C   UNL     1     -12.944  13.205  71.804  1.00  0.00    -0.338 A  
HETATM   23  C   UNL     1     -12.483  14.524  71.896  1.00  0.00    -0.332 A  
HETATM   24  O   UNL     1     -13.996  12.798  72.580  1.00  0.00    -0.702 OA 
HETATM   25  H   UNL     1     -14.407  13.396  73.194  1.00  0.00     0.000 HD 
HETATM   26  I   UNL     1     -13.375  15.911  73.188  1.00  0.00    -0.194 I  
HETATM   27  C   UNL     1     -11.451  14.975  71.062  1.00  0.00    -0.344 A  
ENDBRANCH  17  18
ENDBRANCH  13  17
ENDBRANCH   8   9
ENDBRANCH   4   8
TORSDOF 4
ENDMDL
MODEL      265
REMARK 921   NORMALIZED FREE ENERGY PREDICTED BY IDOCK:   -2.24 KCAL/MOL
REMARK 922        TOTAL FREE ENERGY PREDICTED BY IDOCK:   -3.59 KCAL/MOL
REMARK 923 INTER-LIGAND FREE ENERGY PREDICTED BY IDOCK:   -3.65 KCAL/MOL
REMARK 924 INTRA-LIGAND FREE ENERGY PREDICTED BY IDOCK:    0.06 KCAL/MOL
REMARK 927      BINDING AFFINITY PREDICTED BY RF-SCORE:    0.00 PKD
ROOT
HETATM    1  N   UNL     1      -7.527   5.235  64.850  1.00  0.00    -0.068 NA 
HETATM    2  H1  UNL     1      -7.943   4.989  63.952  1.00  0.00     0.000 HD 
HETATM    3  H2  UNL     1      -6.600   5.639  64.723  1.00  0.00     0.000 HD 
HETATM    4  CA  UNL     1      -7.482   4.083  65.807  1.00  0.00    -0.081 C  
HETATM    5  C   UNL     1      -8.920   3.586  66.032  1.00  0.00    -0.140 C  
HETATM    6  OXT UNL     1      -9.256   2.754  66.856  1.00  0.00    -0.159 OA 
HETATM    7  O   UNL     1      -9.789   4.194  65.182  1.00  0.00    -0.183 OA 
ENDROOT
BRANCH   4   8
HETATM    8  C   UNL     1      -6.853   4.453  67.163  1.00  0.00    -0.052 C  
BRANCH   8   9
HETATM    9  C   UNL     1      -7.128   5.882  67.566  1.00  0.00    -0.074 A  
HETATM   10  C   UNL     1      -8.344   6.245  68.152  1.00  0.00    -0.115 A  
HETATM   11  C   UNL     1      -8.604   7.584  68.473  1.00  0.00    -0.129 A  
HETATM   12  I   UNL     1     -10.515   8.014  69.253  1.00  0.00    -0.104 I  
HETATM   13  C   UNL     1      -7.661   8.598  68.211  1.00  0.00    -0.097 A  
HETATM   14  C   UNL     1      -6.480   8.238  67.538  1.00  0.00    -0.058 A  
HETATM   15  C   UNL     1      -6.198   6.886  67.275  1.00  0.00    -0.037 A  
HETATM   16  I   UNL     1      -5.133   9.591  66.626  1.00  0.00    -0.041 I  
BRANCH  13  17
HETATM   17  O   UNL     1      -8.063   9.878  68.522  1.00  0.00    -0.098 OA 
BRANCH  17  18
HETATM   18  C   UNL     1      -8.708  10.682  67.612  1.00  0.00    -0.121 A  
HETATM   19  C   UNL     1      -8.728  10.165  66.313  1.00  0.00    -0.152 A  
HETATM   20  C   UNL     1      -9.203  10.943  65.258  1.00  0.00    -0.210 A  
HETATM   21  I   UNL     1      -9.153  10.135  63.334  1.00  0.00    -0.299 I  
HETATM   22  C   UNL     1      -9.664  12.241  65.499  1.00  0.00    -0.161 A  
HETATM   23  C   UNL     1      -9.724  12.719  66.814  1.00  0.00    -0.243 A  
HETATM   24  O   UNL     1     -10.033  13.056  64.462  1.00  0.00    -0.577 OA 
HETATM   25  H   UNL     1     -10.346  13.939  64.625  1.00  0.00     0.000 HD 
HETATM   26  I   UNL     1     -10.353  14.670  67.244  1.00  0.00    -0.264 I  
HETATM   27  C   UNL     1      -9.288  11.921  67.880  1.00  0.00    -0.187 A  
ENDBRANCH  17  18
ENDBRANCH  13  17
ENDBRANCH   8   9
ENDBRANCH   4   8
TORSDOF 4
ENDMDL
MODEL      266
REMARK 921   NORMALIZED FREE ENERGY PREDICTED BY IDOCK:   -2.12 KCAL/MOL
REMARK 922        TOTAL FREE ENERGY PREDICTED BY IDOCK:   -3.44 KCAL/MOL
REMARK 923 INTER-LIGAND FREE ENERGY PREDICTED BY IDOCK:   -4.30 KCAL/MOL
REMARK 924 INTRA-LIGAND FREE ENERGY PREDICTED BY IDOCK:    0.86 KCAL/MOL
REMARK 927      BINDING AFFINITY PREDICTED BY RF-SCORE:    0.00 PKD
ROOT
HETATM    1  N   UNL     1     -13.033   7.773  72.242  1.00  0.00    -0.513 NA 
HETATM    2  H1  UNL     1     -13.632   8.584  72.089  1.00  0.00     0.000 HD 
HETATM    3  H2  UNL     1     -13.482   7.100  72.861  1.00  0.00     0.000 HD 
HETATM    4  CA  UNL     1     -11.671   8.140  72.748  1.00  0.00    -0.269 C  
HETATM    5  C   UNL     1     -11.010   9.076  71.721  1.00  0.00    -0.372 C  
HETATM    6  OXT UNL     1      -9.852   9.450  71.754  1.00  0.00    -0.206 OA 
HETATM    7  O   UNL     1     -11.892   9.446  70.755  1.00  0.00    -0.276 OA 
ENDROOT
BRANCH   4   8
HETATM    8  C   UNL     1     -10.766   6.916  72.979  1.00  0.00    -0.328 C  
BRANCH   8   9
HETATM    9  C   UNL     1      -9.868   6.621  71.801  1.00  0.00    -0.171 A  
HETATM   10  C   UNL     1      -8.477   6.666  71.926  1.00  0.00    -0.114 A  
HETATM   11  C   UNL     1      -7.658   6.440  70.811  1.00  0.00    -0.096 A  
HETATM   12  I   UNL     1      -5.580   6.642  71.109  1.00  0.00    -0.028 I  
HETATM   13  C   UNL     1      -8.206   6.171  69.540  1.00  0.00    -0.116 A  
HETATM   14  C   UNL     1      -9.604   6.219  69.406  1.00  0.00    -0.141 A  
HETATM   15  C   UNL     1     -10.421   6.384  70.538  1.00  0.00    -0.270 A  
HETATM   16  I   UNL     1     -10.651   6.312  67.569  1.00  0.00    -0.468 I  
BRANCH  13  17
HETATM   17  O   UNL     1      -7.294   6.025  68.520  1.00  0.00    -0.081 OA 
BRANCH  17  18
HETATM   18  C   UNL     1      -7.208   6.922  67.482  1.00  0.00    -0.090 A  
HETATM   19  C   UNL     1      -7.317   8.259  67.879  1.00  0.00    -0.096 A  
HETATM   20  C   UNL     1      -7.411   9.267  66.921  1.00  0.00    -0.090 A  
HETATM   21  I   UNL     1      -7.630  11.237  67.578  1.00  0.00    -0.132 I  
HETATM   22  C   UNL     1      -7.393   8.944  65.561  1.00  0.00    -0.085 A  
HETATM   23  C   UNL     1      -7.194   7.614  65.171  1.00  0.00    -0.069 A  
HETATM   24  O   UNL     1      -7.591   9.908  64.610  1.00  0.00    -0.129 OA 
HETATM   25  H   UNL     1      -7.579   9.689  63.685  1.00  0.00     0.000 HD 
HETATM   26  I   UNL     1      -7.207   7.048  63.154  1.00  0.00    -0.093 I  
HETATM   27  C   UNL     1      -7.055   6.605  66.133  1.00  0.00    -0.063 A  
ENDBRANCH  17  18
ENDBRANCH  13  17
ENDBRANCH   8   9
ENDBRANCH   4   8
TORSDOF 4
ENDMDL
MODEL      267
REMARK 921   NORMALIZED FREE ENERGY PREDICTED BY IDOCK:   -2.07 KCAL/MOL
REMARK 922        TOTAL FREE ENERGY PREDICTED BY IDOCK:   -3.37 KCAL/MOL
REMARK 923 INTER-LIGAND FREE ENERGY PREDICTED BY IDOCK:   -4.19 KCAL/MOL
REMARK 924 INTRA-LIGAND FREE ENERGY PREDICTED BY IDOCK:    0.81 KCAL/MOL
REMARK 927      BINDING AFFINITY PREDICTED BY RF-SCORE:    0.00 PKD
ROOT
HETATM    1  N   UNL     1     -10.728  15.501  69.271  1.00  0.00    -0.229 NA 
HETATM    2  H1  UNL     1     -10.811  16.514  69.354  1.00  0.00     0.000 HD 
HETATM    3  H2  UNL     1     -10.189  15.247  68.444  1.00  0.00     0.000 HD 
HETATM    4  CA  UNL     1     -12.054  14.803  69.280  1.00  0.00    -0.261 C  
HETATM    5  C   UNL     1     -12.772  15.149  70.596  1.00  0.00    -0.398 C  
HETATM    6  OXT UNL     1     -13.808  14.641  70.986  1.00  0.00    -0.335 OA 
HETATM    7  O   UNL     1     -12.101  16.111  71.283  1.00  0.00    -0.414 OA 
ENDROOT
BRANCH   4   8
HETATM    8  C   UNL     1     -11.930  13.274  69.154  1.00  0.00    -0.343 C  
BRANCH   8   9
HETATM    9  C   UNL     1     -10.807  12.851  68.236  1.00  0.00    -0.263 A  
HETATM   10  C   UNL     1     -11.034  12.629  66.875  1.00  0.00    -0.297 A  
HETATM   11  C   UNL     1      -9.993  12.187  66.047  1.00  0.00    -0.236 A  
HETATM   12  I   UNL     1     -10.491  11.786  64.037  1.00  0.00    -0.567 I  
HETATM   13  C   UNL     1      -8.700  11.949  66.556  1.00  0.00    -0.158 A  
HETATM   14  C   UNL     1      -8.505  12.087  67.941  1.00  0.00    -0.160 A  
HETATM   15  C   UNL     1      -9.535  12.590  68.756  1.00  0.00     0.099 A  
HETATM   16  I   UNL     1      -6.833  11.364  69.017  1.00  0.00    -0.099 I  
BRANCH  13  17
HETATM   17  O   UNL     1      -7.786  11.463  65.649  1.00  0.00     0.193 OA 
BRANCH  17  18
HETATM   18  C   UNL     1      -7.432  10.136  65.608  1.00  0.00    -0.144 A  
HETATM   19  C   UNL     1      -7.698   9.517  64.383  1.00  0.00    -0.123 A  
HETATM   20  C   UNL     1      -7.542   8.138  64.248  1.00  0.00    -0.116 A  
HETATM   21  I   UNL     1      -8.011   7.265  62.409  1.00  0.00    -0.034 I  
HETATM   22  C   UNL     1      -7.116   7.372  65.337  1.00  0.00    -0.061 A  
HETATM   23  C   UNL     1      -6.765   8.010  66.534  1.00  0.00    -0.062 A  
HETATM   24  O   UNL     1      -7.061   6.006  65.254  1.00  0.00    -0.061 OA 
HETATM   25  H   UNL     1      -6.771   5.485  65.994  1.00  0.00     0.000 HD 
HETATM   26  I   UNL     1      -6.169   6.923  68.222  1.00  0.00    -0.038 I  
HETATM   27  C   UNL     1      -6.879   9.401  66.656  1.00  0.00    -0.080 A  
ENDBRANCH  17  18
ENDBRANCH  13  17
ENDBRANCH   8   9
ENDBRANCH   4   8
TORSDOF 4
ENDMDL
MODEL      268
REMARK 921   NORMALIZED FREE ENERGY PREDICTED BY IDOCK:   -1.97 KCAL/MOL
REMARK 922        TOTAL FREE ENERGY PREDICTED BY IDOCK:   -3.25 KCAL/MOL
REMARK 923 INTER-LIGAND FREE ENERGY PREDICTED BY IDOCK:   -3.90 KCAL/MOL
REMARK 924 INTRA-LIGAND FREE ENERGY PREDICTED BY IDOCK:    0.65 KCAL/MOL
REMARK 927      BINDING AFFINITY PREDICTED BY RF-SCORE:    0.00 PKD
ROOT
HETATM    1  N   UNL     1      -8.655   6.835  62.811  1.00  0.00    -0.332 NA 
HETATM    2  H1  UNL     1      -9.367   6.495  62.165  1.00  0.00     0.000 HD 
HETATM    3  H2  UNL     1      -8.590   7.852  62.778  1.00  0.00     0.000 HD 
HETATM    4  CA  UNL     1      -7.314   6.205  62.588  1.00  0.00    -0.057 C  
HETATM    5  C   UNL     1      -7.463   4.682  62.750  1.00  0.00    -0.052 C  
HETATM    6  OXT UNL     1      -6.544   3.884  62.770  1.00  0.00    -0.025 OA 
HETATM    7  O   UNL     1      -8.770   4.327  62.867  1.00  0.00    -0.098 OA 
ENDROOT
BRANCH   4   8
HETATM    8  C   UNL     1      -6.239   6.719  63.563  1.00  0.00    -0.042 C  
BRANCH   8   9
HETATM    9  C   UNL     1      -6.814   7.173  64.883  1.00  0.00    -0.047 A  
HETATM   10  C   UNL     1      -6.033   7.874  65.807  1.00  0.00    -0.038 A  
HETATM   11  C   UNL     1      -6.567   8.243  67.049  1.00  0.00    -0.058 A  
HETATM   12  I   UNL     1      -5.255   9.200  68.394  1.00  0.00    -0.037 I  
HETATM   13  C   UNL     1      -7.892   7.918  67.405  1.00  0.00    -0.121 A  
HETATM   14  C   UNL     1      -8.639   7.135  66.507  1.00  0.00    -0.129 A  
HETATM   15  C   UNL     1      -8.120   6.821  65.239  1.00  0.00    -0.130 A  
HETATM   16  I   UNL     1     -10.444   6.133  66.971  1.00  0.00    -0.398 I  
BRANCH  13  17
HETATM   17  O   UNL     1      -8.273   8.289  68.674  1.00  0.00    -0.118 OA 
BRANCH  17  18
HETATM   18  C   UNL     1      -9.226   9.255  68.898  1.00  0.00    -0.143 A  
HETATM   19  C   UNL     1      -8.918  10.496  68.334  1.00  0.00    -0.141 A  
HETATM   20  C   UNL     1      -9.709  11.608  68.616  1.00  0.00    -0.143 A  
HETATM   21  I   UNL     1      -9.163  13.446  67.788  1.00  0.00    -0.243 I  
HETATM   22  C   UNL     1     -10.816  11.483  69.461  1.00  0.00    -0.064 A  
HETATM   23  C   UNL     1     -11.171  10.220  69.951  1.00  0.00    -0.299 A  
HETATM   24  O   UNL     1     -11.540  12.584  69.833  1.00  0.00    -0.445 OA 
HETATM   25  H   UNL     1     -12.292  12.499  70.408  1.00  0.00     0.000 HD 
HETATM   26  I   UNL     1     -12.783   9.965  71.263  1.00  0.00    -0.513 I  
HETATM   27  C   UNL     1     -10.401   9.094  69.632  1.00  0.00    -0.226 A  
ENDBRANCH  17  18
ENDBRANCH  13  17
ENDBRANCH   8   9
ENDBRANCH   4   8
TORSDOF 4
ENDMDL
MODEL      269
REMARK 921   NORMALIZED FREE ENERGY PREDICTED BY IDOCK:   -1.95 KCAL/MOL
REMARK 922        TOTAL FREE ENERGY PREDICTED BY IDOCK:   -3.23 KCAL/MOL
REMARK 923 INTER-LIGAND FREE ENERGY PREDICTED BY IDOCK:   -2.75 KCAL/MOL
REMARK 924 INTRA-LIGAND FREE ENERGY PREDICTED BY IDOCK:   -0.48 KCAL/MOL
REMARK 927      BINDING AFFINITY PREDICTED BY RF-SCORE:    0.00 PKD
ROOT
HETATM    1  N   UNL     1      -8.954   5.919  64.554  1.00  0.00    -0.317 NA 
HETATM    2  H1  UNL     1      -9.642   5.752  63.821  1.00  0.00     0.000 HD 
HETATM    3  H2  UNL     1      -9.409   6.075  65.453  1.00  0.00     0.000 HD 
HETATM    4  CA  UNL     1      -8.014   7.040  64.230  1.00  0.00    -0.091 C  
HETATM    5  C   UNL     1      -7.287   6.696  62.918  1.00  0.00    -0.072 C  
HETATM    6  OXT UNL     1      -6.359   7.324  62.443  1.00  0.00    -0.058 OA 
HETATM    7  O   UNL     1      -7.819   5.587  62.339  1.00  0.00    -0.064 OA 
ENDROOT
BRANCH   4   8
HETATM    8  C   UNL     1      -6.974   7.293  65.337  1.00  0.00    -0.060 C  
BRANCH   8   9
HETATM    9  C   UNL     1      -7.566   7.964  66.554  1.00  0.00    -0.092 A  
HETATM   10  C   UNL     1      -8.103   9.252  66.477  1.00  0.00    -0.104 A  
HETATM   11  C   UNL     1      -8.601   9.881  67.626  1.00  0.00    -0.122 A  
HETATM   12  I   UNL     1      -9.284  11.863  67.397  1.00  0.00    -0.201 I  
HETATM   13  C   UNL     1      -8.570   9.244  68.883  1.00  0.00    -0.130 A  
HETATM   14  C   UNL     1      -7.946   7.988  68.967  1.00  0.00    -0.114 A  
HETATM   15  C   UNL     1      -7.505   7.336  67.802  1.00  0.00    -0.102 A  
HETATM   16  I   UNL     1      -7.358   7.033  70.762  1.00  0.00    -0.074 I  
BRANCH  13  17
HETATM   17  O   UNL     1      -9.038   9.993  69.939  1.00  0.00    -0.213 OA 
BRANCH  17  18
HETATM   18  C   UNL     1     -10.284   9.790  70.484  1.00  0.00    -0.255 A  
HETATM   19  C   UNL     1     -11.038  10.959  70.623  1.00  0.00     0.227 A  
HETATM   20  C   UNL     1     -12.253  10.930  71.308  1.00  0.00    -0.290 A  
HETATM   21  I   UNL     1     -13.304  12.720  71.531  1.00  0.00     0.286 I  
HETATM   22  C   UNL     1     -12.720   9.730  71.853  1.00  0.00    -0.410 A  
HETATM   23  C   UNL     1     -12.003   8.547  71.633  1.00  0.00    -0.316 A  
HETATM   24  O   UNL     1     -13.854   9.704  72.619  1.00  0.00    -0.702 OA 
HETATM   25  H   UNL     1     -14.172   8.889  72.990  1.00  0.00     0.000 HD 
HETATM   26  I   UNL     1     -12.614   6.724  72.463  1.00  0.00     0.796 I  
HETATM   27  C   UNL     1     -10.805   8.568  70.907  1.00  0.00    -0.275 A  
ENDBRANCH  17  18
ENDBRANCH  13  17
ENDBRANCH   8   9
ENDBRANCH   4   8
TORSDOF 4
ENDMDL
MODEL      270
REMARK 921   NORMALIZED FREE ENERGY PREDICTED BY IDOCK:   -1.92 KCAL/MOL
REMARK 922        TOTAL FREE ENERGY PREDICTED BY IDOCK:   -3.19 KCAL/MOL
REMARK 923 INTER-LIGAND FREE ENERGY PREDICTED BY IDOCK:   -4.41 KCAL/MOL
REMARK 924 INTRA-LIGAND FREE ENERGY PREDICTED BY IDOCK:    1.22 KCAL/MOL
REMARK 927      BINDING AFFINITY PREDICTED BY RF-SCORE:    0.00 PKD
ROOT
HETATM    1  N   UNL     1      -6.990   8.759  63.110  1.00  0.00    -0.090 NA 
HETATM    2  H1  UNL     1      -6.940   8.449  62.140  1.00  0.00     0.000 HD 
HETATM    3  H2  UNL     1      -6.313   9.499  63.292  1.00  0.00     0.000 HD 
HETATM    4  CA  UNL     1      -6.830   7.636  64.090  1.00  0.00    -0.056 C  
HETATM    5  C   UNL     1      -7.941   6.604  63.827  1.00  0.00    -0.072 C  
HETATM    6  OXT UNL     1      -8.185   5.640  64.529  1.00  0.00    -0.125 OA 
HETATM    7  O   UNL     1      -8.627   6.901  62.691  1.00  0.00     0.092 OA 
ENDROOT
BRANCH   4   8
HETATM    8  C   UNL     1      -6.905   8.102  65.556  1.00  0.00    -0.062 C  
BRANCH   8   9
HETATM    9  C   UNL     1      -8.183   8.843  65.870  1.00  0.00    -0.119 A  
HETATM   10  C   UNL     1      -8.835   9.603  64.894  1.00  0.00    -0.234 A  
HETATM   11  C   UNL     1      -9.991  10.326  65.216  1.00  0.00    -0.317 A  
HETATM   12  I   UNL     1     -10.817  11.517  63.684  1.00  0.00    -0.293 I  
HETATM   13  C   UNL     1     -10.524  10.317  66.521  1.00  0.00    -0.173 A  
HETATM   14  C   UNL     1      -9.811   9.625  67.515  1.00  0.00    -0.169 A  
HETATM   15  C   UNL     1      -8.688   8.851  67.175  1.00  0.00    -0.126 A  
HETATM   16  I   UNL     1     -10.119   9.822  69.600  1.00  0.00    -0.311 I  
BRANCH  13  17
HETATM   17  O   UNL     1     -11.629  11.114  66.717  1.00  0.00    -0.381 OA 
BRANCH  17  18
HETATM   18  C   UNL     1     -11.569  12.282  67.439  1.00  0.00    -0.355 A  
HETATM   19  C   UNL     1     -12.022  12.158  68.756  1.00  0.00    -0.292 A  
HETATM   20  C   UNL     1     -12.171  13.292  69.554  1.00  0.00    -0.178 A  
HETATM   21  I   UNL     1     -12.907  13.046  71.492  1.00  0.00    -0.066 I  
HETATM   22  C   UNL     1     -11.863  14.554  69.039  1.00  0.00    -0.318 A  
HETATM   23  C   UNL     1     -11.325  14.662  67.750  1.00  0.00    -0.322 A  
HETATM   24  O   UNL     1     -12.105  15.686  69.771  1.00  0.00    -0.361 OA 
HETATM   25  H   UNL     1     -11.896  16.545  69.421  1.00  0.00     0.000 HD 
HETATM   26  I   UNL     1     -10.890  16.524  66.895  1.00  0.00     0.231 I  
HETATM   27  C   UNL     1     -11.134  13.519  66.964  1.00  0.00    -0.310 A  
ENDBRANCH  17  18
ENDBRANCH  13  17
ENDBRANCH   8   9
ENDBRANCH   4   8
TORSDOF 4
ENDMDL
MODEL      271
REMARK 921   NORMALIZED FREE ENERGY PREDICTED BY IDOCK:   -1.82 KCAL/MOL
REMARK 922        TOTAL FREE ENERGY PREDICTED BY IDOCK:   -3.06 KCAL/MOL
REMARK 923 INTER-LIGAND FREE ENERGY PREDICTED BY IDOCK:   -3.15 KCAL/MOL
REMARK 924 INTRA-LIGAND FREE ENERGY PREDICTED BY IDOCK:    0.09 KCAL/MOL
REMARK 927      BINDING AFFINITY PREDICTED BY RF-SCORE:    0.00 PKD
ROOT
HETATM    1  N   UNL     1      -7.701   6.346  64.850  1.00  0.00    -0.097 NA 
HETATM    2  H1  UNL     1      -8.467   6.228  64.186  1.00  0.00     0.000 HD 
HETATM    3  H2  UNL     1      -8.055   6.586  65.775  1.00  0.00     0.000 HD 
HETATM    4  CA  UNL     1      -6.680   7.342  64.393  1.00  0.00    -0.047 C  
HETATM    5  C   UNL     1      -6.114   6.869  63.043  1.00  0.00    -0.040 C  
HETATM    6  OXT UNL     1      -5.170   7.371  62.461  1.00  0.00    -0.036 OA 
HETATM    7  O   UNL     1      -6.811   5.804  62.565  1.00  0.00    -0.037 OA 
ENDROOT
BRANCH   4   8
HETATM    8  C   UNL     1      -5.524   7.521  65.395  1.00  0.00    -0.033 C  
BRANCH   8   9
HETATM    9  C   UNL     1      -5.970   7.394  66.832  1.00  0.00    -0.038 A  
HETATM   10  C   UNL     1      -5.841   8.462  67.725  1.00  0.00    -0.043 A  
HETATM   11  C   UNL     1      -6.211   8.310  69.068  1.00  0.00    -0.043 A  
HETATM   12  I   UNL     1      -5.866   9.962  70.334  1.00  0.00    -0.095 I  
HETATM   13  C   UNL     1      -6.714   7.089  69.558  1.00  0.00    -0.049 A  
HETATM   14  C   UNL     1      -6.755   5.995  68.675  1.00  0.00    -0.061 A  
HETATM   15  C   UNL     1      -6.441   6.169  67.316  1.00  0.00    -0.046 A  
HETATM   16  I   UNL     1      -7.019   3.974  69.246  1.00  0.00    -0.047 I  
BRANCH  13  17
HETATM   17  O   UNL     1      -6.986   7.057  70.907  1.00  0.00    -0.059 OA 
BRANCH  17  18
HETATM   18  C   UNL     1      -8.272   7.075  71.394  1.00  0.00    -0.109 A  
HETATM   19  C   UNL     1      -8.668   5.875  71.992  1.00  0.00    -0.137 A  
HETATM   20  C   UNL     1      -9.993   5.693  72.384  1.00  0.00    -0.170 A  
HETATM   21  I   UNL     1     -10.534   3.857  73.219  1.00  0.00    -0.303 I  
HETATM   22  C   UNL     1     -10.928   6.713  72.182  1.00  0.00    -0.245 A  
HETATM   23  C   UNL     1     -10.506   7.944  71.665  1.00  0.00    -0.209 A  
HETATM   24  O   UNL     1     -12.254   6.512  72.462  1.00  0.00    -0.513 OA 
HETATM   25  H   UNL     1     -12.890   7.205  72.324  1.00  0.00     0.000 HD 
HETATM   26  I   UNL     1     -11.859   9.498  71.287  1.00  0.00    -0.504 I  
HETATM   27  C   UNL     1      -9.165   8.143  71.312  1.00  0.00    -0.193 A  
ENDBRANCH  17  18
ENDBRANCH  13  17
ENDBRANCH   8   9
ENDBRANCH   4   8
TORSDOF 4
ENDMDL
MODEL      272
REMARK 921   NORMALIZED FREE ENERGY PREDICTED BY IDOCK:   -1.73 KCAL/MOL
REMARK 922        TOTAL FREE ENERGY PREDICTED BY IDOCK:   -2.96 KCAL/MOL
REMARK 923 INTER-LIGAND FREE ENERGY PREDICTED BY IDOCK:   -3.92 KCAL/MOL
REMARK 924 INTRA-LIGAND FREE ENERGY PREDICTED BY IDOCK:    0.96 KCAL/MOL
REMARK 927      BINDING AFFINITY PREDICTED BY RF-SCORE:    0.00 PKD
ROOT
HETATM    1  N   UNL     1     -13.290  11.515  71.282  1.00  0.00     0.000 NA 
HETATM    2  H1  UNL     1     -14.288  11.709  71.364  1.00  0.00     0.000 HD 
HETATM    3  H2  UNL     1     -12.866  12.092  70.555  1.00  0.00     0.000 HD 
HETATM    4  CA  UNL     1     -12.994  10.064  71.054  1.00  0.00    -0.360 C  
HETATM    5  C   UNL     1     -13.572   9.263  72.232  1.00  0.00    -0.480 C  
HETATM    6  OXT UNL     1     -13.390   8.075  72.433  1.00  0.00    -0.144 OA 
HETATM    7  O   UNL     1     -14.330  10.053  73.038  1.00  0.00     0.423 OA 
ENDROOT
BRANCH   4   8
HETATM    8  C   UNL     1     -11.487   9.771  70.929  1.00  0.00    -0.447 C  
BRANCH   8   9
HETATM    9  C   UNL     1     -10.853  10.458  69.742  1.00  0.00    -0.342 A  
HETATM   10  C   UNL     1      -9.471  10.414  69.538  1.00  0.00    -0.164 A  
HETATM   11  C   UNL     1      -8.893  11.100  68.460  1.00  0.00    -0.161 A  
HETATM   12  I   UNL     1      -6.790  11.043  68.325  1.00  0.00    -0.078 I  
HETATM   13  C   UNL     1      -9.677  11.852  67.562  1.00  0.00    -0.181 A  
HETATM   14  C   UNL     1     -11.053  11.964  67.829  1.00  0.00    -0.239 A  
HETATM   15  C   UNL     1     -11.636  11.225  68.874  1.00  0.00    -0.386 A  
HETATM   16  I   UNL     1     -12.358  13.372  66.938  1.00  0.00     0.357 I  
BRANCH  13  17
HETATM   17  O   UNL     1      -8.980  12.522  66.583  1.00  0.00    -0.216 OA 
BRANCH  17  18
HETATM   18  C   UNL     1      -8.629  13.845  66.711  1.00  0.00    -0.041 A  
HETATM   19  C   UNL     1      -7.393  14.045  67.332  1.00  0.00    -0.135 A  
HETATM   20  C   UNL     1      -6.983  15.333  67.674  1.00  0.00    -0.185 A  
HETATM   21  I   UNL     1      -5.152  15.560  68.652  1.00  0.00    -0.110 I  
HETATM   22  C   UNL     1      -7.806  16.427  67.394  1.00  0.00    -0.154 A  
HETATM   23  C   UNL     1      -9.002  16.228  66.692  1.00  0.00    -0.251 A  
HETATM   24  O   UNL     1      -7.469  17.684  67.818  1.00  0.00    -0.194 OA 
HETATM   25  H   UNL     1      -8.029  18.428  67.628  1.00  0.00     0.000 HD 
HETATM   26  I   UNL     1     -10.310  17.812  66.283  1.00  0.00    -0.107 I  
HETATM   27  C   UNL     1      -9.394  14.939  66.308  1.00  0.00    -0.329 A  
ENDBRANCH  17  18
ENDBRANCH  13  17
ENDBRANCH   8   9
ENDBRANCH   4   8
TORSDOF 4
ENDMDL
MODEL      273
REMARK 921   NORMALIZED FREE ENERGY PREDICTED BY IDOCK:   -1.73 KCAL/MOL
REMARK 922        TOTAL FREE ENERGY PREDICTED BY IDOCK:   -2.95 KCAL/MOL
REMARK 923 INTER-LIGAND FREE ENERGY PREDICTED BY IDOCK:   -4.19 KCAL/MOL
REMARK 924 INTRA-LIGAND FREE ENERGY PREDICTED BY IDOCK:    1.24 KCAL/MOL
REMARK 927      BINDING AFFINITY PREDICTED BY RF-SCORE:    0.00 PKD
ROOT
HETATM    1  N   UNL     1      -7.566  14.649  69.779  1.00  0.00    -0.395 NA 
HETATM    2  H1  UNL     1      -8.123  15.364  70.247  1.00  0.00     0.000 HD 
HETATM    3  H2  UNL     1      -6.891  14.236  70.421  1.00  0.00     0.000 HD 
HETATM    4  CA  UNL     1      -6.888  15.154  68.542  1.00  0.00    -0.108 C  
HETATM    5  C   UNL     1      -7.968  15.670  67.576  1.00  0.00    -0.162 C  
HETATM    6  OXT UNL     1      -7.774  16.021  66.426  1.00  0.00    -0.214 OA 
HETATM    7  O   UNL     1      -9.189  15.694  68.172  1.00  0.00    -0.183 OA 
ENDROOT
BRANCH   4   8
HETATM    8  C   UNL     1      -6.046  14.075  67.835  1.00  0.00    -0.155 C  
BRANCH   8   9
HETATM    9  C   UNL     1      -6.858  12.865  67.439  1.00  0.00    -0.133 A  
HETATM   10  C   UNL     1      -8.250  12.935  67.330  1.00  0.00    -0.187 A  
HETATM   11  C   UNL     1      -8.993  11.790  67.012  1.00  0.00    -0.186 A  
HETATM   12  I   UNL     1     -11.091  12.004  66.984  1.00  0.00    -0.405 I  
HETATM   13  C   UNL     1      -8.369  10.544  66.800  1.00  0.00    -0.128 A  
HETATM   14  C   UNL     1      -6.980  10.465  67.002  1.00  0.00    -0.090 A  
HETATM   15  C   UNL     1      -6.233  11.627  67.260  1.00  0.00    -0.115 A  
HETATM   16  I   UNL     1      -5.876   8.670  67.203  1.00  0.00    -0.043 I  
BRANCH  13  17
HETATM   17  O   UNL     1      -9.217   9.490  66.551  1.00  0.00    -0.148 OA 
BRANCH  17  18
HETATM   18  C   UNL     1      -9.300   8.404  67.390  1.00  0.00    -0.148 A  
HETATM   19  C   UNL     1      -9.337   8.739  68.747  1.00  0.00    -0.141 A  
HETATM   20  C   UNL     1      -9.257   7.739  69.716  1.00  0.00    -0.150 A  
HETATM   21  I   UNL     1      -9.259   8.308  71.725  1.00  0.00    -0.335 I  
HETATM   22  C   UNL     1      -9.143   6.400  69.332  1.00  0.00    -0.140 A  
HETATM   23  C   UNL     1      -9.196   6.065  67.973  1.00  0.00    -0.115 A  
HETATM   24  O   UNL     1      -8.956   5.417  70.267  1.00  0.00    -0.130 OA 
HETATM   25  H   UNL     1      -8.878   4.506  70.006  1.00  0.00     0.000 HD 
HETATM   26  I   UNL     1      -8.980   4.086  67.321  1.00  0.00    -0.199 I  
HETATM   27  C   UNL     1      -9.322   7.065  67.000  1.00  0.00    -0.174 A  
ENDBRANCH  17  18
ENDBRANCH  13  17
ENDBRANCH   8   9
ENDBRANCH   4   8
TORSDOF 4
ENDMDL
MODEL      274
REMARK 921   NORMALIZED FREE ENERGY PREDICTED BY IDOCK:   -1.72 KCAL/MOL
REMARK 922        TOTAL FREE ENERGY PREDICTED BY IDOCK:   -2.94 KCAL/MOL
REMARK 923 INTER-LIGAND FREE ENERGY PREDICTED BY IDOCK:   -3.55 KCAL/MOL
REMARK 924 INTRA-LIGAND FREE ENERGY PREDICTED BY IDOCK:    0.60 KCAL/MOL
REMARK 927      BINDING AFFINITY PREDICTED BY RF-SCORE:    0.00 PKD
ROOT
HETATM    1  N   UNL     1      -8.379  11.454  62.520  1.00  0.00    -0.599 NA 
HETATM    2  H1  UNL     1      -8.668  11.981  61.696  1.00  0.00     0.000 HD 
HETATM    3  H2  UNL     1      -7.564  10.877  62.316  1.00  0.00     0.000 HD 
HETATM    4  CA  UNL     1      -9.485  10.629  63.104  1.00  0.00    -0.332 C  
HETATM    5  C   UNL     1     -10.642  11.570  63.481  1.00  0.00    -0.423 C  
HETATM    6  OXT UNL     1     -11.637  11.247  64.104  1.00  0.00    -0.153 OA 
HETATM    7  O   UNL     1     -10.418  12.831  63.025  1.00  0.00     0.100 OA 
ENDROOT
BRANCH   4   8
HETATM    8  C   UNL     1      -9.050   9.832  64.347  1.00  0.00    -0.296 C  
BRANCH   8   9
HETATM    9  C   UNL     1      -8.864  10.704  65.566  1.00  0.00    -0.202 A  
HETATM   10  C   UNL     1      -7.613  11.239  65.886  1.00  0.00     0.174 A  
HETATM   11  C   UNL     1      -7.446  12.004  67.049  1.00  0.00    -0.106 A  
HETATM   12  I   UNL     1      -5.489  12.662  67.474  1.00  0.00     0.051 I  
HETATM   13  C   UNL     1      -8.522  12.250  67.927  1.00  0.00    -0.165 A  
HETATM   14  C   UNL     1      -9.753  11.632  67.644  1.00  0.00    -0.180 A  
HETATM   15  C   UNL     1      -9.930  10.918  66.446  1.00  0.00    -0.266 A  
HETATM   16  I   UNL     1     -11.368  11.452  69.000  1.00  0.00    -0.452 I  
BRANCH  13  17
HETATM   17  O   UNL     1      -8.211  12.966  69.060  1.00  0.00     0.166 OA 
BRANCH  17  18
HETATM   18  C   UNL     1      -8.663  14.249  69.261  1.00  0.00     0.278 A  
HETATM   19  C   UNL     1      -9.934  14.317  69.838  1.00  0.00     0.690 A  
HETATM   20  C   UNL     1     -10.586  15.544  69.951  1.00  0.00    -0.313 A  
HETATM   21  I   UNL     1     -12.507  15.572  70.770  1.00  0.00    -0.391 I  
HETATM   22  C   UNL     1      -9.968  16.710  69.489  1.00  0.00    -0.091 A  
HETATM   23  C   UNL     1      -8.659  16.647  68.993  1.00  0.00    -0.190 A  
HETATM   24  O   UNL     1     -10.635  17.906  69.493  1.00  0.00    -0.340 OA 
HETATM   25  H   UNL     1     -10.215  18.698  69.179  1.00  0.00     0.000 HD 
HETATM   26  I   UNL     1      -7.689  18.342  68.236  1.00  0.00    -0.329 I  
HETATM   27  C   UNL     1      -7.986  15.420  68.921  1.00  0.00    -0.177 A  
ENDBRANCH  17  18
ENDBRANCH  13  17
ENDBRANCH   8   9
ENDBRANCH   4   8
TORSDOF 4
ENDMDL
MODEL      275
REMARK 921   NORMALIZED FREE ENERGY PREDICTED BY IDOCK:   -1.71 KCAL/MOL
REMARK 922        TOTAL FREE ENERGY PREDICTED BY IDOCK:   -2.93 KCAL/MOL
REMARK 923 INTER-LIGAND FREE ENERGY PREDICTED BY IDOCK:   -2.83 KCAL/MOL
REMARK 924 INTRA-LIGAND FREE ENERGY PREDICTED BY IDOCK:   -0.09 KCAL/MOL
REMARK 927      BINDING AFFINITY PREDICTED BY RF-SCORE:    0.00 PKD
ROOT
HETATM    1  N   UNL     1     -11.610  12.327  70.492  1.00  0.00    -0.408 NA 
HETATM    2  H1  UNL     1     -12.312  12.950  70.093  1.00  0.00     0.000 HD 
HETATM    3  H2  UNL     1     -10.813  12.228  69.865  1.00  0.00     0.000 HD 
HETATM    4  CA  UNL     1     -12.164  10.987  70.870  1.00  0.00    -0.367 C  
HETATM    5  C   UNL     1     -13.293  11.202  71.892  1.00  0.00    -0.304 C  
HETATM    6  OXT UNL     1     -13.862  10.319  72.507  1.00  0.00    -0.042 OA 
HETATM    7  O   UNL     1     -13.589  12.522  72.025  1.00  0.00    -0.439 OA 
ENDROOT
BRANCH   4   8
HETATM    8  C   UNL     1     -11.104  10.047  71.472  1.00  0.00     0.107 C  
BRANCH   8   9
HETATM    9  C   UNL     1     -10.104   9.560  70.451  1.00  0.00    -0.329 A  
HETATM   10  C   UNL     1      -9.039   8.733  70.821  1.00  0.00    -0.233 A  
HETATM   11  C   UNL     1      -8.091   8.332  69.870  1.00  0.00    -0.117 A  
HETATM   12  I   UNL     1      -6.476   7.175  70.577  1.00  0.00    -0.049 I  
HETATM   13  C   UNL     1      -8.175   8.750  68.527  1.00  0.00    -0.117 A  
HETATM   14  C   UNL     1      -9.196   9.654  68.184  1.00  0.00    -0.125 A  
HETATM   15  C   UNL     1     -10.179  10.004  69.126  1.00  0.00    -0.224 A  
HETATM   16  I   UNL     1      -9.280  10.781  66.395  1.00  0.00    -0.226 I  
BRANCH  13  17
HETATM   17  O   UNL     1      -7.150   8.332  67.709  1.00  0.00    -0.079 OA 
BRANCH  17  18
HETATM   18  C   UNL     1      -7.351   7.442  66.682  1.00  0.00    -0.084 A  
HETATM   19  C   UNL     1      -8.635   6.888  66.656  1.00  0.00    -0.124 A  
HETATM   20  C   UNL     1      -8.931   5.851  65.772  1.00  0.00    -0.120 A  
HETATM   21  I   UNL     1     -10.849   5.027  65.822  1.00  0.00     0.748 I  
HETATM   22  C   UNL     1      -7.946   5.367  64.906  1.00  0.00    -0.108 A  
HETATM   23  C   UNL     1      -6.690   5.985  64.875  1.00  0.00    -0.043 A  
HETATM   24  O   UNL     1      -8.188   4.280  64.108  1.00  0.00    -0.093 OA 
HETATM   25  H   UNL     1      -7.518   3.951  63.520  1.00  0.00     0.000 HD 
HETATM   26  I   UNL     1      -5.150   5.281  63.643  1.00  0.00    -0.010 I  
HETATM   27  C   UNL     1      -6.405   7.056  65.732  1.00  0.00    -0.046 A  
ENDBRANCH  17  18
ENDBRANCH  13  17
ENDBRANCH   8   9
ENDBRANCH   4   8
TORSDOF 4
ENDMDL
MODEL      276
REMARK 921   NORMALIZED FREE ENERGY PREDICTED BY IDOCK:   -1.56 KCAL/MOL
REMARK 922        TOTAL FREE ENERGY PREDICTED BY IDOCK:   -2.75 KCAL/MOL
REMARK 923 INTER-LIGAND FREE ENERGY PREDICTED BY IDOCK:   -3.10 KCAL/MOL
REMARK 924 INTRA-LIGAND FREE ENERGY PREDICTED BY IDOCK:    0.35 KCAL/MOL
REMARK 927      BINDING AFFINITY PREDICTED BY RF-SCORE:    0.00 PKD
ROOT
HETATM    1  N   UNL     1      -7.997  10.914  65.012  1.00  0.00    -0.359 NA 
HETATM    2  H1  UNL     1      -7.392  11.730  64.928  1.00  0.00     0.000 HD 
HETATM    3  H2  UNL     1      -8.595  10.987  65.835  1.00  0.00     0.000 HD 
HETATM    4  CA  UNL     1      -7.238   9.622  65.017  1.00  0.00    -0.116 C  
HETATM    5  C   UNL     1      -6.438   9.528  63.706  1.00  0.00    -0.100 C  
HETATM    6  OXT UNL     1      -5.822   8.548  63.326  1.00  0.00    -0.075 OA 
HETATM    7  O   UNL     1      -6.496  10.695  63.011  1.00  0.00    -0.098 OA 
ENDROOT
BRANCH   4   8
HETATM    8  C   UNL     1      -8.152   8.389  65.145  1.00  0.00    -0.147 C  
BRANCH   8   9
HETATM    9  C   UNL     1      -7.908   7.609  66.415  1.00  0.00    -0.094 A  
HETATM   10  C   UNL     1      -6.959   8.032  67.350  1.00  0.00    -0.075 A  
HETATM   11  C   UNL     1      -6.709   7.269  68.499  1.00  0.00    -0.057 A  
HETATM   12  I   UNL     1      -5.179   7.960  69.775  1.00  0.00    -0.023 I  
HETATM   13  C   UNL     1      -7.393   6.061  68.742  1.00  0.00    -0.085 A  
HETATM   14  C   UNL     1      -8.278   5.598  67.753  1.00  0.00    -0.101 A  
HETATM   15  C   UNL     1      -8.571   6.397  66.633  1.00  0.00    -0.121 A  
HETATM   16  I   UNL     1      -9.069   3.639  67.642  1.00  0.00    -0.234 I  
BRANCH  13  17
HETATM   17  O   UNL     1      -7.013   5.382  69.877  1.00  0.00    -0.057 OA 
BRANCH  17  18
HETATM   18  C   UNL     1      -7.449   5.747  71.128  1.00  0.00    -0.091 A  
HETATM   19  C   UNL     1      -8.714   5.249  71.455  1.00  0.00    -0.137 A  
HETATM   20  C   UNL     1      -9.351   5.669  72.621  1.00  0.00    -0.140 A  
HETATM   21  I   UNL     1     -11.263   4.933  73.023  1.00  0.00    -0.206 I  
HETATM   22  C   UNL     1      -8.724   6.588  73.469  1.00  0.00    -0.123 A  
HETATM   23  C   UNL     1      -7.421   7.014  73.182  1.00  0.00    -0.073 A  
HETATM   24  O   UNL     1      -9.379   7.092  74.561  1.00  0.00    -0.389 OA 
HETATM   25  H   UNL     1      -8.953   7.717  75.137  1.00  0.00     0.000 HD 
HETATM   26  I   UNL     1      -6.440   8.427  74.376  1.00  0.00    -0.138 I  
HETATM   27  C   UNL     1      -6.763   6.557  72.032  1.00  0.00    -0.063 A  
ENDBRANCH  17  18
ENDBRANCH  13  17
ENDBRANCH   8   9
ENDBRANCH   4   8
TORSDOF 4
ENDMDL
MODEL      277
REMARK 921   NORMALIZED FREE ENERGY PREDICTED BY IDOCK:   -1.44 KCAL/MOL
REMARK 922        TOTAL FREE ENERGY PREDICTED BY IDOCK:   -2.59 KCAL/MOL
REMARK 923 INTER-LIGAND FREE ENERGY PREDICTED BY IDOCK:   -3.80 KCAL/MOL
REMARK 924 INTRA-LIGAND FREE ENERGY PREDICTED BY IDOCK:    1.20 KCAL/MOL
REMARK 927      BINDING AFFINITY PREDICTED BY RF-SCORE:    0.00 PKD
ROOT
HETATM    1  N   UNL     1      -8.815   8.794  66.432  1.00  0.00    -0.139 NA 
HETATM    2  H1  UNL     1      -8.351   7.906  66.619  1.00  0.00     0.000 HD 
HETATM    3  H2  UNL     1      -9.742   8.817  66.857  1.00  0.00     0.000 HD 
HETATM    4  CA  UNL     1      -8.889   9.119  64.971  1.00  0.00    -0.189 C  
HETATM    5  C   UNL     1      -7.455   9.167  64.415  1.00  0.00    -0.101 C  
HETATM    6  OXT UNL     1      -7.147   9.539  63.297  1.00  0.00    -0.098 OA 
HETATM    7  O   UNL     1      -6.556   8.733  65.337  1.00  0.00    -0.066 OA 
ENDROOT
BRANCH   4   8
HETATM    8  C   UNL     1      -9.590  10.460  64.688  1.00  0.00    -0.360 C  
BRANCH   8   9
HETATM    9  C   UNL     1      -9.357  11.484  65.774  1.00  0.00    -0.238 A  
HETATM   10  C   UNL     1     -10.363  12.381  66.147  1.00  0.00    -0.271 A  
HETATM   11  C   UNL     1     -10.113  13.358  67.120  1.00  0.00    -0.240 A  
HETATM   12  I   UNL     1     -11.677  14.717  67.515  1.00  0.00    -0.199 I  
HETATM   13  C   UNL     1      -8.854  13.471  67.742  1.00  0.00    -0.198 A  
HETATM   14  C   UNL     1      -7.824  12.626  67.295  1.00  0.00    -0.155 A  
HETATM   15  C   UNL     1      -8.095  11.607  66.364  1.00  0.00    -0.023 A  
HETATM   16  I   UNL     1      -5.765  12.883  67.712  1.00  0.00    -0.063 I  
BRANCH  13  17
HETATM   17  O   UNL     1      -8.725  14.509  68.637  1.00  0.00    -0.173 OA 
BRANCH  17  18
HETATM   18  C   UNL     1      -8.526  15.806  68.229  1.00  0.00    -0.164 A  
HETATM   19  C   UNL     1      -7.360  15.992  67.481  1.00  0.00    -0.190 A  
HETATM   20  C   UNL     1      -6.947  17.279  67.139  1.00  0.00    -0.175 A  
HETATM   21  I   UNL     1      -5.166  17.494  66.070  1.00  0.00     0.187 I  
HETATM   22  C   UNL     1      -7.701  18.386  67.541  1.00  0.00    -0.228 A  
HETATM   23  C   UNL     1      -8.913  18.188  68.213  1.00  0.00    -0.296 A  
HETATM   24  O   UNL     1      -7.254  19.659  67.307  1.00  0.00    -0.214 OA 
HETATM   25  H   UNL     1      -7.766  20.412  67.581  1.00  0.00     0.000 HD 
HETATM   26  I   UNL     1     -10.068  19.798  68.892  1.00  0.00     0.055 I  
HETATM   27  C   UNL     1      -9.352  16.892  68.518  1.00  0.00    -0.259 A  
ENDBRANCH  17  18
ENDBRANCH  13  17
ENDBRANCH   8   9
ENDBRANCH   4   8
TORSDOF 4
ENDMDL
MODEL      278
REMARK 921   NORMALIZED FREE ENERGY PREDICTED BY IDOCK:   -1.40 KCAL/MOL
REMARK 922        TOTAL FREE ENERGY PREDICTED BY IDOCK:   -2.55 KCAL/MOL
REMARK 923 INTER-LIGAND FREE ENERGY PREDICTED BY IDOCK:   -2.74 KCAL/MOL
REMARK 924 INTRA-LIGAND FREE ENERGY PREDICTED BY IDOCK:    0.19 KCAL/MOL
REMARK 927      BINDING AFFINITY PREDICTED BY RF-SCORE:    0.00 PKD
ROOT
HETATM    1  N   UNL     1      -7.225  14.999  70.179  1.00  0.00    -0.230 NA 
HETATM    2  H1  UNL     1      -7.639  15.911  70.376  1.00  0.00     0.000 HD 
HETATM    3  H2  UNL     1      -6.992  14.511  71.043  1.00  0.00     0.000 HD 
HETATM    4  CA  UNL     1      -6.034  15.082  69.273  1.00  0.00    -0.105 C  
HETATM    5  C   UNL     1      -6.477  15.736  67.953  1.00  0.00    -0.151 C  
HETATM    6  OXT UNL     1      -5.793  15.829  66.950  1.00  0.00    -0.260 OA 
HETATM    7  O   UNL     1      -7.748  16.212  68.043  1.00  0.00    -0.133 OA 
ENDROOT
BRANCH   4   8
HETATM    8  C   UNL     1      -5.410  13.706  68.976  1.00  0.00    -0.070 C  
BRANCH   8   9
HETATM    9  C   UNL     1      -6.266  12.858  68.066  1.00  0.00    -0.110 A  
HETATM   10  C   UNL     1      -7.616  12.631  68.351  1.00  0.00    -0.132 A  
HETATM   11  C   UNL     1      -8.383  11.799  67.524  1.00  0.00    -0.154 A  
HETATM   12  I   UNL     1     -10.375  11.452  68.123  1.00  0.00    -0.257 I  
HETATM   13  C   UNL     1      -7.824  11.167  66.395  1.00  0.00    -0.136 A  
HETATM   14  C   UNL     1      -6.446  11.328  66.169  1.00  0.00     0.027 A  
HETATM   15  C   UNL     1      -5.695  12.212  66.964  1.00  0.00    -0.086 A  
HETATM   16  I   UNL     1      -5.279  10.152  64.853  1.00  0.00    -0.130 I  
BRANCH  13  17
HETATM   17  O   UNL     1      -8.671  10.333  65.702  1.00  0.00    -0.150 OA 
BRANCH  17  18
HETATM   18  C   UNL     1      -8.516   8.967  65.706  1.00  0.00    -0.145 A  
HETATM   19  C   UNL     1      -8.220   8.434  66.964  1.00  0.00    -0.107 A  
HETATM   20  C   UNL     1      -7.877   7.089  67.091  1.00  0.00    -0.109 A  
HETATM   21  I   UNL     1      -7.389   6.368  68.989  1.00  0.00    -0.094 I  
HETATM   22  C   UNL     1      -7.833   6.269  65.960  1.00  0.00    -0.106 A  
HETATM   23  C   UNL     1      -8.218   6.787  64.717  1.00  0.00    -0.052 A  
HETATM   24  O   UNL     1      -7.396   4.974  66.050  1.00  0.00    -0.075 OA 
HETATM   25  H   UNL     1      -7.365   4.417  65.281  1.00  0.00     0.000 HD 
HETATM   26  I   UNL     1      -8.127   5.632  62.971  1.00  0.00    -0.012 I  
HETATM   27  C   UNL     1      -8.605   8.128  64.596  1.00  0.00     0.035 A  
ENDBRANCH  17  18
ENDBRANCH  13  17
ENDBRANCH   8   9
ENDBRANCH   4   8
TORSDOF 4
ENDMDL
MODEL      279
REMARK 921   NORMALIZED FREE ENERGY PREDICTED BY IDOCK:   -1.22 KCAL/MOL
REMARK 922        TOTAL FREE ENERGY PREDICTED BY IDOCK:   -2.33 KCAL/MOL
REMARK 923 INTER-LIGAND FREE ENERGY PREDICTED BY IDOCK:   -3.80 KCAL/MOL
REMARK 924 INTRA-LIGAND FREE ENERGY PREDICTED BY IDOCK:    1.47 KCAL/MOL
REMARK 927      BINDING AFFINITY PREDICTED BY RF-SCORE:    0.00 PKD
ROOT
HETATM    1  N   UNL     1      -7.220  10.752  62.493  1.00  0.00    -0.328 NA 
HETATM    2  H1  UNL     1      -7.636  11.035  61.606  1.00  0.00     0.000 HD 
HETATM    3  H2  UNL     1      -6.302  10.334  62.348  1.00  0.00     0.000 HD 
HETATM    4  CA  UNL     1      -8.104   9.838  63.287  1.00  0.00    -0.149 C  
HETATM    5  C   UNL     1      -9.432  10.565  63.556  1.00  0.00    -0.312 C  
HETATM    6  OXT UNL     1     -10.318  10.163  64.289  1.00  0.00    -0.065 OA 
HETATM    7  O   UNL     1      -9.503  11.732  62.862  1.00  0.00    -0.364 OA 
ENDROOT
BRANCH   4   8
HETATM    8  C   UNL     1      -7.477   9.410  64.626  1.00  0.00    -0.108 C  
BRANCH   8   9
HETATM    9  C   UNL     1      -7.703  10.418  65.728  1.00  0.00    -0.146 A  
HETATM   10  C   UNL     1      -6.657  11.217  66.199  1.00  0.00    -0.022 A  
HETATM   11  C   UNL     1      -6.871  12.111  67.257  1.00  0.00    -0.149 A  
HETATM   12  I   UNL     1      -5.189  13.180  67.945  1.00  0.00    -0.013 I  
HETATM   13  C   UNL     1      -8.132  12.226  67.878  1.00  0.00    -0.155 A  
HETATM   14  C   UNL     1      -9.151  11.354  67.458  1.00  0.00    -0.157 A  
HETATM   15  C   UNL     1      -8.949  10.504  66.356  1.00  0.00    -0.174 A  
HETATM   16  I   UNL     1     -10.957  10.995  68.501  1.00  0.00    -0.383 I  
BRANCH  13  17
HETATM   17  O   UNL     1      -8.193  13.098  68.941  1.00  0.00     0.042 OA 
BRANCH  17  18
HETATM   18  C   UNL     1      -9.068  14.158  68.967  1.00  0.00     0.110 A  
HETATM   19  C   UNL     1      -8.652  15.255  68.207  1.00  0.00    -0.159 A  
HETATM   20  C   UNL     1      -9.355  16.457  68.270  1.00  0.00    -0.210 A  
HETATM   21  I   UNL     1      -8.649  18.075  67.155  1.00  0.00    -0.272 I  
HETATM   22  C   UNL     1     -10.481  16.566  69.091  1.00  0.00    -0.317 A  
HETATM   23  C   UNL     1     -10.945  15.438  69.780  1.00  0.00    -0.287 A  
HETATM   24  O   UNL     1     -11.120  17.767  69.247  1.00  0.00     0.011 OA 
HETATM   25  H   UNL     1     -11.886  17.841  69.806  1.00  0.00     0.000 HD 
HETATM   26  I   UNL     1     -12.593  15.539  71.069  1.00  0.00    -0.447 I  
HETATM   27  C   UNL     1     -10.263  14.218  69.683  1.00  0.00     0.254 A  
ENDBRANCH  17  18
ENDBRANCH  13  17
ENDBRANCH   8   9
ENDBRANCH   4   8
TORSDOF 4
ENDMDL
MODEL      280
REMARK 921   NORMALIZED FREE ENERGY PREDICTED BY IDOCK:   -1.20 KCAL/MOL
REMARK 922        TOTAL FREE ENERGY PREDICTED BY IDOCK:   -2.31 KCAL/MOL
REMARK 923 INTER-LIGAND FREE ENERGY PREDICTED BY IDOCK:   -2.79 KCAL/MOL
REMARK 924 INTRA-LIGAND FREE ENERGY PREDICTED BY IDOCK:    0.49 KCAL/MOL
REMARK 927      BINDING AFFINITY PREDICTED BY RF-SCORE:    0.00 PKD
ROOT
HETATM    1  N   UNL     1     -13.862   7.276  71.890  1.00  0.00    -0.552 NA 
HETATM    2  H1  UNL     1     -13.762   6.967  72.857  1.00  0.00     0.000 HD 
HETATM    3  H2  UNL     1     -13.639   6.521  71.242  1.00  0.00     0.000 HD 
HETATM    4  CA  UNL     1     -13.058   8.502  71.581  1.00  0.00    -0.341 C  
HETATM    5  C   UNL     1     -13.513   9.628  72.525  1.00  0.00    -0.234 C  
HETATM    6  OXT UNL     1     -13.163  10.792  72.451  1.00  0.00    -0.275 OA 
HETATM    7  O   UNL     1     -14.366   9.159  73.474  1.00  0.00     0.115 OA 
ENDROOT
BRANCH   4   8
HETATM    8  C   UNL     1     -13.209   8.968  70.122  1.00  0.00     1.496 C  
BRANCH   8   9
HETATM    9  C   UNL     1     -12.206  10.031  69.739  1.00  0.00     0.119 A  
HETATM   10  C   UNL     1     -10.904   9.691  69.361  1.00  0.00    -0.239 A  
HETATM   11  C   UNL     1      -9.971  10.692  69.059  1.00  0.00    -0.213 A  
HETATM   12  I   UNL     1      -8.013  10.052  68.606  1.00  0.00    -0.115 I  
HETATM   13  C   UNL     1     -10.309  12.058  69.133  1.00  0.00     0.089 A  
HETATM   14  C   UNL     1     -11.592  12.391  69.603  1.00  0.00    -0.260 A  
HETATM   15  C   UNL     1     -12.542  11.384  69.844  1.00  0.00    -0.091 A  
HETATM   16  I   UNL     1     -12.196  14.316  70.241  1.00  0.00    -0.399 I  
BRANCH  13  17
HETATM   17  O   UNL     1      -9.285  12.939  68.867  1.00  0.00     0.098 OA 
BRANCH  17  18
HETATM   18  C   UNL     1      -9.367  13.871  67.860  1.00  0.00    -0.208 A  
HETATM   19  C   UNL     1      -8.407  14.884  67.948  1.00  0.00    -0.149 A  
HETATM   20  C   UNL     1      -8.470  15.983  67.092  1.00  0.00    -0.196 A  
HETATM   21  I   UNL     1      -7.042  17.490  67.311  1.00  0.00    -0.230 I  
HETATM   22  C   UNL     1      -9.491  16.071  66.141  1.00  0.00    -0.336 A  
HETATM   23  C   UNL     1     -10.396  15.011  65.999  1.00  0.00    -0.312 A  
HETATM   24  O   UNL     1      -9.632  17.192  65.366  1.00  0.00    -0.352 OA 
HETATM   25  H   UNL     1     -10.326  17.252  64.720  1.00  0.00     0.000 HD 
HETATM   26  I   UNL     1     -11.982  15.097  64.634  1.00  0.00     0.062 I  
HETATM   27  C   UNL     1     -10.306  13.886  66.829  1.00  0.00    -0.272 A  
ENDBRANCH  17  18
ENDBRANCH  13  17
ENDBRANCH   8   9
ENDBRANCH   4   8
TORSDOF 4
ENDMDL
MODEL      281
REMARK 921   NORMALIZED FREE ENERGY PREDICTED BY IDOCK:   -0.81 KCAL/MOL
REMARK 922        TOTAL FREE ENERGY PREDICTED BY IDOCK:   -1.82 KCAL/MOL
REMARK 923 INTER-LIGAND FREE ENERGY PREDICTED BY IDOCK:   -2.76 KCAL/MOL
REMARK 924 INTRA-LIGAND FREE ENERGY PREDICTED BY IDOCK:    0.94 KCAL/MOL
REMARK 927      BINDING AFFINITY PREDICTED BY RF-SCORE:    0.00 PKD
ROOT
HETATM    1  N   UNL     1      -7.254   6.191  65.773  1.00  0.00    -0.073 NA 
HETATM    2  H1  UNL     1      -7.545   5.224  65.914  1.00  0.00     0.000 HD 
HETATM    3  H2  UNL     1      -7.861   6.831  66.285  1.00  0.00     0.000 HD 
HETATM    4  CA  UNL     1      -7.173   6.574  64.327  1.00  0.00    -0.069 C  
HETATM    5  C   UNL     1      -6.169   5.635  63.636  1.00  0.00    -0.025 C  
HETATM    6  OXT UNL     1      -5.763   5.757  62.494  1.00  0.00    -0.014 OA 
HETATM    7  O   UNL     1      -5.783   4.631  64.467  1.00  0.00    -0.013 OA 
ENDROOT
BRANCH   4   8
HETATM    8  C   UNL     1      -6.734   8.034  64.115  1.00  0.00    -0.065 C  
BRANCH   8   9
HETATM    9  C   UNL     1      -7.157   8.943  65.245  1.00  0.00    -0.080 A  
HETATM   10  C   UNL     1      -8.492   9.013  65.653  1.00  0.00    -0.163 A  
HETATM   11  C   UNL     1      -8.877   9.899  66.668  1.00  0.00    -0.135 A  
HETATM   12  I   UNL     1     -10.936   9.986  67.116  1.00  0.00     0.364 I  
HETATM   13  C   UNL     1      -7.941  10.743  67.299  1.00  0.00    -0.117 A  
HETATM   14  C   UNL     1      -6.619  10.731  66.820  1.00  0.00    -0.105 A  
HETATM   15  C   UNL     1      -6.227   9.798  65.845  1.00  0.00    -0.072 A  
HETATM   16  I   UNL     1      -5.149  12.190  67.256  1.00  0.00     0.034 I  
BRANCH  13  17
HETATM   17  O   UNL     1      -8.458  11.605  68.240  1.00  0.00    -0.149 OA 
BRANCH  17  18
HETATM   18  C   UNL     1      -8.869  12.877  67.918  1.00  0.00    -0.190 A  
HETATM   19  C   UNL     1     -10.108  12.925  67.272  1.00  0.00    -0.231 A  
HETATM   20  C   UNL     1     -10.574  14.128  66.743  1.00  0.00    -0.277 A  
HETATM   21  I   UNL     1     -12.405  14.122  65.738  1.00  0.00    -0.326 I  
HETATM   22  C   UNL     1      -9.805  15.289  66.861  1.00  0.00    -0.235 A  
HETATM   23  C   UNL     1      -8.608  15.252  67.587  1.00  0.00    -0.169 A  
HETATM   24  O   UNL     1     -10.197  16.453  66.255  1.00  0.00    -0.301 OA 
HETATM   25  H   UNL     1      -9.674  17.242  66.335  1.00  0.00     0.000 HD 
HETATM   26  I   UNL     1      -7.378  16.939  67.761  1.00  0.00    -0.198 I  
HETATM   27  C   UNL     1      -8.160  14.053  68.157  1.00  0.00    -0.151 A  
ENDBRANCH  17  18
ENDBRANCH  13  17
ENDBRANCH   8   9
ENDBRANCH   4   8
TORSDOF 4
ENDMDL
MODEL      282
REMARK 921   NORMALIZED FREE ENERGY PREDICTED BY IDOCK:   -0.72 KCAL/MOL
REMARK 922        TOTAL FREE ENERGY PREDICTED BY IDOCK:   -1.71 KCAL/MOL
REMARK 923 INTER-LIGAND FREE ENERGY PREDICTED BY IDOCK:   -2.13 KCAL/MOL
REMARK 924 INTRA-LIGAND FREE ENERGY PREDICTED BY IDOCK:    0.42 KCAL/MOL
REMARK 927      BINDING AFFINITY PREDICTED BY RF-SCORE:    0.00 PKD
ROOT
HETATM    1  N   UNL     1     -11.191   2.870  72.053  1.00  0.00     1.264 NA 
HETATM    2  H1  UNL     1     -12.045   2.943  72.607  1.00  0.00     0.000 HD 
HETATM    3  H2  UNL     1     -11.180   2.005  71.514  1.00  0.00     0.000 HD 
HETATM    4  CA  UNL     1      -9.947   3.004  72.876  1.00  0.00    -0.135 C  
HETATM    5  C   UNL     1      -9.980   4.370  73.583  1.00  0.00    -0.134 C  
HETATM    6  OXT UNL     1      -9.062   4.855  74.219  1.00  0.00    -0.111 OA 
HETATM    7  O   UNL     1     -11.182   4.981  73.413  1.00  0.00    -0.315 OA 
ENDROOT
BRANCH   4   8
HETATM    8  C   UNL     1      -8.658   2.894  72.040  1.00  0.00    -0.088 C  
BRANCH   8   9
HETATM    9  C   UNL     1      -8.457   4.071  71.116  1.00  0.00    -0.098 A  
HETATM   10  C   UNL     1      -9.231   4.221  69.961  1.00  0.00    -0.207 A  
HETATM   11  C   UNL     1      -8.997   5.291  69.086  1.00  0.00    -0.103 A  
HETATM   12  I   UNL     1     -10.159   5.344  67.328  1.00  0.00    -0.272 I  
HETATM   13  C   UNL     1      -7.982   6.235  69.337  1.00  0.00    -0.109 A  
HETATM   14  C   UNL     1      -7.150   6.025  70.451  1.00  0.00    -0.070 A  
HETATM   15  C   UNL     1      -7.428   4.986  71.357  1.00  0.00    -0.086 A  
HETATM   16  I   UNL     1      -5.303   6.998  70.797  1.00  0.00    -0.024 I  
BRANCH  13  17
HETATM   17  O   UNL     1      -7.819   7.203  68.371  1.00  0.00    -0.117 OA 
BRANCH  17  18
HETATM   18  C   UNL     1      -7.923   8.544  68.655  1.00  0.00    -0.116 A  
HETATM   19  C   UNL     1      -9.110   9.128  68.205  1.00  0.00    -0.134 A  
HETATM   20  C   UNL     1      -9.281  10.510  68.278  1.00  0.00    -0.152 A  
HETATM   21  I   UNL     1     -11.054  11.327  67.536  1.00  0.00    -0.322 I  
HETATM   22  C   UNL     1      -8.267  11.313  68.806  1.00  0.00    -0.122 A  
HETATM   23  C   UNL     1      -7.117  10.713  69.337  1.00  0.00    -0.120 A  
HETATM   24  O   UNL     1      -8.373  12.678  68.787  1.00  0.00    -0.343 OA 
HETATM   25  H   UNL     1      -7.683  13.225  69.146  1.00  0.00     0.000 HD 
HETATM   26  I   UNL     1      -5.534  11.856  70.096  1.00  0.00    -0.156 I  
HETATM   27  C   UNL     1      -6.964   9.321  69.304  1.00  0.00    -0.053 A  
ENDBRANCH  17  18
ENDBRANCH  13  17
ENDBRANCH   8   9
ENDBRANCH   4   8
TORSDOF 4
ENDMDL
MODEL      283
REMARK 921   NORMALIZED FREE ENERGY PREDICTED BY IDOCK:   -0.06 KCAL/MOL
REMARK 922        TOTAL FREE ENERGY PREDICTED BY IDOCK:   -0.89 KCAL/MOL
REMARK 923 INTER-LIGAND FREE ENERGY PREDICTED BY IDOCK:   -3.84 KCAL/MOL
REMARK 924 INTRA-LIGAND FREE ENERGY PREDICTED BY IDOCK:    2.95 KCAL/MOL
REMARK 927      BINDING AFFINITY PREDICTED BY RF-SCORE:    0.00 PKD
ROOT
HETATM    1  N   UNL     1      -7.681  19.419  65.774  1.00  0.00    -0.441 NA 
HETATM    2  H1  UNL     1      -8.126  19.590  64.872  1.00  0.00     0.000 HD 
HETATM    3  H2  UNL     1      -6.772  19.877  65.824  1.00  0.00     0.000 HD 
HETATM    4  CA  UNL     1      -7.563  17.961  66.100  1.00  0.00    -0.260 C  
HETATM    5  C   UNL     1      -8.976  17.352  66.106  1.00  0.00    -0.139 C  
HETATM    6  OXT UNL     1      -9.254  16.223  66.467  1.00  0.00    -0.227 OA 
HETATM    7  O   UNL     1      -9.896  18.241  65.646  1.00  0.00    -0.462 OA 
ENDROOT
BRANCH   4   8
HETATM    8  C   UNL     1      -6.890  17.701  67.460  1.00  0.00    -0.185 C  
BRANCH   8   9
HETATM    9  C   UNL     1      -7.163  16.315  67.994  1.00  0.00    -0.141 A  
HETATM   10  C   UNL     1      -6.269  15.265  67.763  1.00  0.00    -0.178 A  
HETATM   11  C   UNL     1      -6.561  13.973  68.221  1.00  0.00    -0.110 A  
HETATM   12  I   UNL     1      -5.183  12.459  67.716  1.00  0.00    -0.093 I  
HETATM   13  C   UNL     1      -7.756  13.692  68.914  1.00  0.00     0.005 A  
HETATM   14  C   UNL     1      -8.689  14.734  69.060  1.00  0.00    -0.139 A  
HETATM   15  C   UNL     1      -8.364  16.040  68.654  1.00  0.00    -0.203 A  
HETATM   16  I   UNL     1     -10.712  14.489  69.632  1.00  0.00     0.108 I  
BRANCH  13  17
HETATM   17  O   UNL     1      -7.947  12.374  69.258  1.00  0.00     0.305 OA 
BRANCH  17  18
HETATM   18  C   UNL     1      -8.313  11.423  68.334  1.00  0.00    -0.153 A  
HETATM   19  C   UNL     1      -9.195  11.893  67.357  1.00  0.00    -0.177 A  
HETATM   20  C   UNL     1      -9.777  11.004  66.454  1.00  0.00    -0.201 A  
HETATM   21  I   UNL     1     -11.131  11.760  65.056  1.00  0.00    -0.225 I  
HETATM   22  C   UNL     1      -9.475   9.641  66.522  1.00  0.00    -0.181 A  
HETATM   23  C   UNL     1      -8.522   9.190  67.445  1.00  0.00    -0.115 A  
HETATM   24  O   UNL     1     -10.117   8.740  65.715  1.00  0.00    -0.420 OA 
HETATM   25  H   UNL     1      -9.912   7.813  65.761  1.00  0.00     0.000 HD 
HETATM   26  I   UNL     1      -8.059   7.157  67.639  1.00  0.00    -0.114 I  
HETATM   27  C   UNL     1      -7.904  10.090  68.323  1.00  0.00    -0.089 A  
ENDBRANCH  17  18
ENDBRANCH  13  17
ENDBRANCH   8   9
ENDBRANCH   4   8
TORSDOF 4
ENDMDL
MODEL      284
REMARK 921   NORMALIZED FREE ENERGY PREDICTED BY IDOCK:    0.02 KCAL/MOL
REMARK 922        TOTAL FREE ENERGY PREDICTED BY IDOCK:   -0.79 KCAL/MOL
REMARK 923 INTER-LIGAND FREE ENERGY PREDICTED BY IDOCK:   -3.43 KCAL/MOL
REMARK 924 INTRA-LIGAND FREE ENERGY PREDICTED BY IDOCK:    2.64 KCAL/MOL
REMARK 927      BINDING AFFINITY PREDICTED BY RF-SCORE:    0.00 PKD
ROOT
HETATM    1  N   UNL     1      -7.682  19.416  65.777  1.00  0.00    -0.441 NA 
HETATM    2  H1  UNL     1      -8.131  19.578  64.875  1.00  0.00     0.000 HD 
HETATM    3  H2  UNL     1      -6.768  19.865  65.815  1.00  0.00     0.000 HD 
HETATM    4  CA  UNL     1      -7.578  17.962  66.124  1.00  0.00    -0.260 C  
HETATM    5  C   UNL     1      -8.998  17.369  66.147  1.00  0.00    -0.139 C  
HETATM    6  OXT UNL     1      -9.286  16.248  66.527  1.00  0.00    -0.227 OA 
HETATM    7  O   UNL     1      -9.910  18.261  65.679  1.00  0.00    -0.462 OA 
ENDROOT
BRANCH   4   8
HETATM    8  C   UNL     1      -6.901  17.716  67.485  1.00  0.00    -0.185 C  
BRANCH   8   9
HETATM    9  C   UNL     1      -7.203  16.349  68.051  1.00  0.00    -0.145 A  
HETATM   10  C   UNL     1      -6.339  15.271  67.833  1.00  0.00    -0.173 A  
HETATM   11  C   UNL     1      -6.660  13.997  68.322  1.00  0.00    -0.110 A  
HETATM   12  I   UNL     1      -5.328  12.437  67.834  1.00  0.00    -0.113 I  
HETATM   13  C   UNL     1      -7.854  13.762  69.034  1.00  0.00     0.097 A  
HETATM   14  C   UNL     1      -8.758  14.830  69.168  1.00  0.00    -0.085 A  
HETATM   15  C   UNL     1      -8.404  16.119  68.731  1.00  0.00    -0.231 A  
HETATM   16  I   UNL     1     -10.779  14.651  69.768  1.00  0.00     0.100 I  
BRANCH  13  17
HETATM   17  O   UNL     1      -8.075  12.456  69.408  1.00  0.00     0.520 OA 
BRANCH  17  18
HETATM   18  C   UNL     1      -8.480  11.498  68.510  1.00  0.00    -0.143 A  
HETATM   19  C   UNL     1      -8.201  10.189  68.914  1.00  0.00    -0.124 A  
HETATM   20  C   UNL     1      -8.408   9.126  68.036  1.00  0.00    -0.120 A  
HETATM   21  I   UNL     1      -7.916   7.201  68.679  1.00  0.00    -0.126 I  
HETATM   22  C   UNL     1      -8.899   9.368  66.749  1.00  0.00    -0.127 A  
HETATM   23  C   UNL     1      -9.260  10.670  66.382  1.00  0.00    -0.168 A  
HETATM   24  O   UNL     1      -9.006   8.351  65.839  1.00  0.00    -0.172 OA 
HETATM   25  H   UNL     1      -9.340   8.515  64.964  1.00  0.00     0.000 HD 
HETATM   26  I   UNL     1      -9.953  11.115  64.456  1.00  0.00    -0.424 I  
HETATM   27  C   UNL     1      -9.095  11.733  67.280  1.00  0.00    -0.171 A  
ENDBRANCH  17  18
ENDBRANCH  13  17
ENDBRANCH   8   9
ENDBRANCH   4   8
TORSDOF 4
ENDMDL
MODEL      285
REMARK 921   NORMALIZED FREE ENERGY PREDICTED BY IDOCK:    0.07 KCAL/MOL
REMARK 922        TOTAL FREE ENERGY PREDICTED BY IDOCK:   -0.74 KCAL/MOL
REMARK 923 INTER-LIGAND FREE ENERGY PREDICTED BY IDOCK:   -3.12 KCAL/MOL
REMARK 924 INTRA-LIGAND FREE ENERGY PREDICTED BY IDOCK:    2.38 KCAL/MOL
REMARK 927      BINDING AFFINITY PREDICTED BY RF-SCORE:    0.00 PKD
ROOT
HETATM    1  N   UNL     1     -10.177  12.174  62.713  1.00  0.00    -0.321 NA 
HETATM    2  H1  UNL     1     -10.445  12.545  61.802  1.00  0.00     0.000 HD 
HETATM    3  H2  UNL     1      -9.278  11.696  62.662  1.00  0.00     0.000 HD 
HETATM    4  CA  UNL     1     -11.223  11.284  63.313  1.00  0.00     0.081 C  
HETATM    5  C   UNL     1     -12.523  12.095  63.454  1.00  0.00    -0.512 C  
HETATM    6  OXT UNL     1     -13.527  11.718  64.030  1.00  0.00    -0.493 OA 
HETATM    7  O   UNL     1     -12.416  13.305  62.844  1.00  0.00    -0.493 OA 
ENDROOT
BRANCH   4   8
HETATM    8  C   UNL     1     -10.819  10.724  64.689  1.00  0.00    -0.027 C  
BRANCH   8   9
HETATM    9  C   UNL     1     -10.195  11.767  65.585  1.00  0.00    -0.284 A  
HETATM   10  C   UNL     1     -10.430  13.130  65.379  1.00  0.00    -0.307 A  
HETATM   11  C   UNL     1      -9.802  14.087  66.187  1.00  0.00    -0.303 A  
HETATM   12  I   UNL     1     -10.156  16.109  65.705  1.00  0.00    -0.136 I  
HETATM   13  C   UNL     1      -8.918  13.711  67.219  1.00  0.00    -0.225 A  
HETATM   14  C   UNL     1      -8.618  12.345  67.359  1.00  0.00    -0.181 A  
HETATM   15  C   UNL     1      -9.297  11.386  66.587  1.00  0.00    -0.198 A  
HETATM   16  I   UNL     1      -7.011  11.558  68.490  1.00  0.00    -0.103 I  
BRANCH  13  17
HETATM   17  O   UNL     1      -8.326  14.750  67.901  1.00  0.00    -0.136 OA 
BRANCH  17  18
HETATM   18  C   UNL     1      -9.062  15.718  68.541  1.00  0.00    -0.194 A  
HETATM   19  C   UNL     1      -8.738  17.022  68.155  1.00  0.00    -0.233 A  
HETATM   20  C   UNL     1      -9.287  18.109  68.835  1.00  0.00    -0.173 A  
HETATM   21  I   UNL     1      -8.719  20.031  68.248  1.00  0.00     0.066 I  
HETATM   22  C   UNL     1     -10.165  17.896  69.902  1.00  0.00     0.722 A  
HETATM   23  C   UNL     1     -10.554  16.590  70.225  1.00  0.00     0.032 A  
HETATM   24  O   UNL     1     -10.628  18.947  70.648  1.00  0.00     0.797 OA 
HETATM   25  H   UNL     1     -11.224  18.802  71.373  1.00  0.00     0.000 HD 
HETATM   26  I   UNL     1     -11.823  16.191  71.842  1.00  0.00    -0.221 I  
HETATM   27  C   UNL     1     -10.037  15.499  69.513  1.00  0.00    -0.278 A  
ENDBRANCH  17  18
ENDBRANCH  13  17
ENDBRANCH   8   9
ENDBRANCH   4   8
TORSDOF 4
ENDMDL
MODEL      286
REMARK 921   NORMALIZED FREE ENERGY PREDICTED BY IDOCK:    0.13 KCAL/MOL
REMARK 922        TOTAL FREE ENERGY PREDICTED BY IDOCK:   -0.66 KCAL/MOL
REMARK 923 INTER-LIGAND FREE ENERGY PREDICTED BY IDOCK:   -3.12 KCAL/MOL
REMARK 924 INTRA-LIGAND FREE ENERGY PREDICTED BY IDOCK:    2.47 KCAL/MOL
REMARK 927      BINDING AFFINITY PREDICTED BY RF-SCORE:    0.00 PKD
ROOT
HETATM    1  N   UNL     1      -8.730   9.314  69.573  1.00  0.00    -0.137 NA 
HETATM    2  H1  UNL     1      -8.847   8.400  69.136  1.00  0.00     0.000 HD 
HETATM    3  H2  UNL     1      -9.570   9.583  70.084  1.00  0.00     0.000 HD 
HETATM    4  CA  UNL     1      -8.333  10.381  68.598  1.00  0.00    -0.127 C  
HETATM    5  C   UNL     1      -7.009   9.960  67.936  1.00  0.00    -0.081 C  
HETATM    6  OXT UNL     1      -6.339  10.660  67.198  1.00  0.00    -0.064 OA 
HETATM    7  O   UNL     1      -6.673   8.688  68.276  1.00  0.00    -0.063 OA 
ENDROOT
BRANCH   4   8
HETATM    8  C   UNL     1      -8.157  11.762  69.256  1.00  0.00     0.375 C  
BRANCH   8   9
HETATM    9  C   UNL     1      -8.219  12.897  68.262  1.00  0.00    -0.153 A  
HETATM   10  C   UNL     1      -7.185  13.833  68.172  1.00  0.00    -0.121 A  
HETATM   11  C   UNL     1      -7.282  14.911  67.281  1.00  0.00    -0.107 A  
HETATM   12  I   UNL     1      -5.706  16.311  67.317  1.00  0.00     0.116 I  
HETATM   13  C   UNL     1      -8.415  15.086  66.460  1.00  0.00    -0.058 A  
HETATM   14  C   UNL     1      -9.487  14.192  66.624  1.00  0.00    -0.289 A  
HETATM   15  C   UNL     1      -9.360  13.079  67.474  1.00  0.00    -0.200 A  
HETATM   16  I   UNL     1     -11.446  14.485  65.878  1.00  0.00    -0.279 I  
BRANCH  13  17
HETATM   17  O   UNL     1      -8.408  16.214  65.672  1.00  0.00     0.065 OA 
BRANCH  17  18
HETATM   18  C   UNL     1      -8.064  17.449  66.168  1.00  0.00    -0.220 A  
HETATM   19  C   UNL     1      -8.917  17.913  67.174  1.00  0.00    -0.252 A  
HETATM   20  C   UNL     1      -8.787  19.216  67.654  1.00  0.00    -0.295 A  
HETATM   21  I   UNL     1     -10.128  19.868  69.117  1.00  0.00     0.380 I  
HETATM   22  C   UNL     1      -7.802  20.059  67.133  1.00  0.00    -0.304 A  
HETATM   23  C   UNL     1      -6.895  19.560  66.190  1.00  0.00    -0.235 A  
HETATM   24  O   UNL     1      -7.730  21.372  67.516  1.00  0.00    -0.545 OA 
HETATM   25  H   UNL     1      -7.060  21.946  67.161  1.00  0.00     0.000 HD 
HETATM   26  I   UNL     1      -5.427  20.779  65.326  1.00  0.00    -0.246 I  
HETATM   27  C   UNL     1      -6.997  18.237  65.739  1.00  0.00    -0.284 A  
ENDBRANCH  17  18
ENDBRANCH  13  17
ENDBRANCH   8   9
ENDBRANCH   4   8
TORSDOF 4
ENDMDL
MODEL      287
REMARK 921   NORMALIZED FREE ENERGY PREDICTED BY IDOCK:    0.16 KCAL/MOL
REMARK 922        TOTAL FREE ENERGY PREDICTED BY IDOCK:   -0.62 KCAL/MOL
REMARK 923 INTER-LIGAND FREE ENERGY PREDICTED BY IDOCK:   -4.15 KCAL/MOL
REMARK 924 INTRA-LIGAND FREE ENERGY PREDICTED BY IDOCK:    3.53 KCAL/MOL
REMARK 927      BINDING AFFINITY PREDICTED BY RF-SCORE:    0.00 PKD
ROOT
HETATM    1  N   UNL     1     -11.768  12.897  62.620  1.00  0.00    -0.264 NA 
HETATM    2  H1  UNL     1     -12.629  13.355  62.321  1.00  0.00     0.000 HD 
HETATM    3  H2  UNL     1     -11.303  12.447  61.833  1.00  0.00     0.000 HD 
HETATM    4  CA  UNL     1     -11.981  11.926  63.742  1.00  0.00    -0.445 C  
HETATM    5  C   UNL     1     -12.592  12.689  64.930  1.00  0.00    -0.450 C  
HETATM    6  OXT UNL     1     -12.763  12.232  66.046  1.00  0.00    -0.062 OA 
HETATM    7  O   UNL     1     -12.929  13.958  64.579  1.00  0.00    -0.596 OA 
ENDROOT
BRANCH   4   8
HETATM    8  C   UNL     1     -10.682  11.235  64.193  1.00  0.00    -0.436 C  
BRANCH   8   9
HETATM    9  C   UNL     1      -9.966  11.990  65.288  1.00  0.00    -0.273 A  
HETATM   10  C   UNL     1      -9.841  13.382  65.241  1.00  0.00    -0.106 A  
HETATM   11  C   UNL     1      -9.129  14.063  66.238  1.00  0.00    -0.016 A  
HETATM   12  I   UNL     1      -8.923  16.147  65.993  1.00  0.00     0.122 I  
HETATM   13  C   UNL     1      -8.518  13.374  67.304  1.00  0.00    -0.200 A  
HETATM   14  C   UNL     1      -8.571  11.969  67.294  1.00  0.00    -0.177 A  
HETATM   15  C   UNL     1      -9.338  11.296  66.327  1.00  0.00    -0.226 A  
HETATM   16  I   UNL     1      -7.376  10.693  68.486  1.00  0.00    -0.111 I  
BRANCH  13  17
HETATM   17  O   UNL     1      -7.802  14.155  68.183  1.00  0.00    -0.120 OA 
BRANCH  17  18
HETATM   18  C   UNL     1      -8.323  15.303  68.731  1.00  0.00    -0.179 A  
HETATM   19  C   UNL     1      -9.490  15.098  69.472  1.00  0.00    -0.151 A  
HETATM   20  C   UNL     1     -10.217  16.189  69.949  1.00  0.00    -0.146 A  
HETATM   21  I   UNL     1     -11.983  15.817  70.999  1.00  0.00    -0.431 I  
HETATM   22  C   UNL     1      -9.776  17.490  69.689  1.00  0.00     0.448 A  
HETATM   23  C   UNL     1      -8.559  17.686  69.024  1.00  0.00    -0.010 A  
HETATM   24  O   UNL     1     -10.532  18.571  70.056  1.00  0.00     0.101 OA 
HETATM   25  H   UNL     1     -10.232  19.456  69.880  1.00  0.00     0.000 HD 
HETATM   26  I   UNL     1      -7.862  19.605  68.555  1.00  0.00    -0.197 I  
HETATM   27  C   UNL     1      -7.806  16.590  68.584  1.00  0.00    -0.226 A  
ENDBRANCH  17  18
ENDBRANCH  13  17
ENDBRANCH   8   9
ENDBRANCH   4   8
TORSDOF 4
ENDMDL
MODEL      288
REMARK 921   NORMALIZED FREE ENERGY PREDICTED BY IDOCK:    0.17 KCAL/MOL
REMARK 922        TOTAL FREE ENERGY PREDICTED BY IDOCK:   -0.61 KCAL/MOL
REMARK 923 INTER-LIGAND FREE ENERGY PREDICTED BY IDOCK:   -2.06 KCAL/MOL
REMARK 924 INTRA-LIGAND FREE ENERGY PREDICTED BY IDOCK:    1.45 KCAL/MOL
REMARK 927      BINDING AFFINITY PREDICTED BY RF-SCORE:    0.00 PKD
ROOT
HETATM    1  N   UNL     1      -8.962   8.968  68.841  1.00  0.00    -0.139 NA 
HETATM    2  H1  UNL     1      -9.385   8.233  68.275  1.00  0.00     0.000 HD 
HETATM    3  H2  UNL     1      -9.643   9.370  69.483  1.00  0.00     0.000 HD 
HETATM    4  CA  UNL     1      -8.306  10.035  68.019  1.00  0.00    -0.117 C  
HETATM    5  C   UNL     1      -7.223   9.376  67.148  1.00  0.00    -0.087 C  
HETATM    6  OXT UNL     1      -6.410   9.973  66.465  1.00  0.00    -0.067 OA 
HETATM    7  O   UNL     1      -7.285   8.020  67.230  1.00  0.00    -0.084 OA 
ENDROOT
BRANCH   4   8
HETATM    8  C   UNL     1      -7.667  11.145  68.874  1.00  0.00    -0.137 C  
BRANCH   8   9
HETATM    9  C   UNL     1      -7.856  12.522  68.283  1.00  0.00    -0.144 A  
HETATM   10  C   UNL     1      -6.759  13.324  67.958  1.00  0.00    -0.127 A  
HETATM   11  C   UNL     1      -6.952  14.620  67.459  1.00  0.00    -0.168 A  
HETATM   12  I   UNL     1      -5.216  15.765  67.110  1.00  0.00     0.843 I  
HETATM   13  C   UNL     1      -8.244  15.151  67.277  1.00  0.00    -0.208 A  
HETATM   14  C   UNL     1      -9.338  14.372  67.692  1.00  0.00    -0.200 A  
HETATM   15  C   UNL     1      -9.142  13.052  68.133  1.00  0.00    -0.204 A  
HETATM   16  I   UNL     1     -11.313  15.085  67.960  1.00  0.00    -0.326 I  
BRANCH  13  17
HETATM   17  O   UNL     1      -8.293  16.454  66.834  1.00  0.00    -0.187 OA 
BRANCH  17  18
HETATM   18  C   UNL     1      -7.646  17.473  67.490  1.00  0.00    -0.197 A  
HETATM   19  C   UNL     1      -7.310  18.553  66.667  1.00  0.00    -0.247 A  
HETATM   20  C   UNL     1      -6.509  19.584  67.158  1.00  0.00    -0.193 A  
HETATM   21  I   UNL     1      -5.995  21.138  65.862  1.00  0.00    -0.052 I  
HETATM   22  C   UNL     1      -6.044  19.541  68.475  1.00  0.00    -0.232 A  
HETATM   23  C   UNL     1      -6.458  18.503  69.320  1.00  0.00    -0.258 A  
HETATM   24  O   UNL     1      -5.171  20.488  68.940  1.00  0.00    -0.221 OA 
HETATM   25  H   UNL     1      -4.855  20.460  69.836  1.00  0.00     0.000 HD 
HETATM   26  I   UNL     1      -5.760  18.347  71.289  1.00  0.00     0.931 I  
HETATM   27  C   UNL     1      -7.298  17.490  68.841  1.00  0.00    -0.245 A  
ENDBRANCH  17  18
ENDBRANCH  13  17
ENDBRANCH   8   9
ENDBRANCH   4   8
TORSDOF 4
ENDMDL
MODEL      289
REMARK 921   NORMALIZED FREE ENERGY PREDICTED BY IDOCK:    3.36 KCAL/MOL
REMARK 922        TOTAL FREE ENERGY PREDICTED BY IDOCK:    3.32 KCAL/MOL
REMARK 923 INTER-LIGAND FREE ENERGY PREDICTED BY IDOCK:    2.62 KCAL/MOL
REMARK 924 INTRA-LIGAND FREE ENERGY PREDICTED BY IDOCK:    0.70 KCAL/MOL
REMARK 927      BINDING AFFINITY PREDICTED BY RF-SCORE:    0.00 PKD
ROOT
HETATM    1  N   UNL     1     -12.447  17.492  72.098  1.00  0.00     3.372 NA 
HETATM    2  H1  UNL     1     -13.379  17.849  71.892  1.00  0.00     0.000 HD 
HETATM    3  H2  UNL     1     -11.741  18.214  71.957  1.00  0.00     0.000 HD 
HETATM    4  CA  UNL     1     -12.110  16.255  71.323  1.00  0.00    -0.128 C  
HETATM    5  C   UNL     1     -13.154  15.176  71.657  1.00  0.00    -0.388 C  
HETATM    6  OXT UNL     1     -13.098  14.011  71.307  1.00  0.00    -0.328 OA 
HETATM    7  O   UNL     1     -14.169  15.689  72.402  1.00  0.00    -0.551 OA 
ENDROOT
BRANCH   4   8
HETATM    8  C   UNL     1     -10.702  15.715  71.634  1.00  0.00     0.418 C  
BRANCH   8   9
HETATM    9  C   UNL     1     -10.103  14.941  70.484  1.00  0.00     0.494 A  
HETATM   10  C   UNL     1      -9.022  15.450  69.757  1.00  0.00    -0.035 A  
HETATM   11  C   UNL     1      -8.512  14.743  68.660  1.00  0.00    -0.167 A  
HETATM   12  I   UNL     1      -6.952  15.669  67.584  1.00  0.00    -0.229 I  
HETATM   13  C   UNL     1      -9.070  13.514  68.254  1.00  0.00    -0.189 A  
HETATM   14  C   UNL     1     -10.212  13.057  68.933  1.00  0.00     0.002 A  
HETATM   15  C   UNL     1     -10.682  13.737  70.070  1.00  0.00     0.566 A  
HETATM   16  I   UNL     1     -11.501  11.520  68.257  1.00  0.00    -0.347 I  
BRANCH  13  17
HETATM   17  O   UNL     1      -8.512  12.952  67.128  1.00  0.00    -0.189 OA 
BRANCH  17  18
HETATM   18  C   UNL     1      -9.160  12.949  65.915  1.00  0.00     0.263 A  
HETATM   19  C   UNL     1     -10.116  13.960  65.781  1.00  0.00    -0.336 A  
HETATM   20  C   UNL     1     -10.962  13.979  64.673  1.00  0.00    -0.392 A  
HETATM   21  I   UNL     1     -12.408  15.482  64.560  1.00  0.00     0.898 I  
HETATM   22  C   UNL     1     -10.853  12.989  63.692  1.00  0.00    -0.125 A  
HETATM   23  C   UNL     1      -9.835  12.032  63.788  1.00  0.00    -0.269 A  
HETATM   24  O   UNL     1     -11.744  12.931  62.654  1.00  0.00    -0.548 OA 
HETATM   25  H   UNL     1     -11.670  12.258  61.987  1.00  0.00     0.000 HD 
HETATM   26  I   UNL     1      -9.643  10.490  62.384  1.00  0.00     0.239 I  
HETATM   27  C   UNL     1      -8.955  12.039  64.879  1.00  0.00     0.590 A  
ENDBRANCH  17  18
ENDBRANCH  13  17
ENDBRANCH   8   9
ENDBRANCH   4   8
TORSDOF 4
ENDMDL
MODEL      290
REMARK 921   NORMALIZED FREE ENERGY PREDICTED BY IDOCK:    3.56 KCAL/MOL
REMARK 922        TOTAL FREE ENERGY PREDICTED BY IDOCK:    3.57 KCAL/MOL
REMARK 923 INTER-LIGAND FREE ENERGY PREDICTED BY IDOCK:    2.72 KCAL/MOL
REMARK 924 INTRA-LIGAND FREE ENERGY PREDICTED BY IDOCK:    0.85 KCAL/MOL
REMARK 927      BINDING AFFINITY PREDICTED BY RF-SCORE:    0.00 PKD
ROOT
HETATM    1  N   UNL     1      -7.385  15.137  71.917  1.00  0.00     2.489 NA 
HETATM    2  H1  UNL     1      -7.333  16.138  72.104  1.00  0.00     0.000 HD 
HETATM    3  H2  UNL     1      -7.589  14.617  72.769  1.00  0.00     0.000 HD 
HETATM    4  CA  UNL     1      -6.155  14.603  71.247  1.00  0.00     0.098 C  
HETATM    5  C   UNL     1      -5.961  15.360  69.922  1.00  0.00    -0.146 C  
HETATM    6  OXT UNL     1      -5.139  15.082  69.067  1.00  0.00    -0.090 OA 
HETATM    7  O   UNL     1      -6.831  16.399  69.817  1.00  0.00    -0.177 OA 
ENDROOT
BRANCH   4   8
HETATM    8  C   UNL     1      -6.232  13.092  70.965  1.00  0.00     0.684 C  
BRANCH   8   9
HETATM    9  C   UNL     1      -6.776  12.779  69.591  1.00  0.00     0.090 A  
HETATM   10  C   UNL     1      -7.999  13.305  69.164  1.00  0.00     0.396 A  
HETATM   11  C   UNL     1      -8.515  12.963  67.906  1.00  0.00    -0.181 A  
HETATM   12  I   UNL     1     -10.417  13.736  67.425  1.00  0.00    -0.265 I  
HETATM   13  C   UNL     1      -7.829  12.084  67.044  1.00  0.00    -0.138 A  
HETATM   14  C   UNL     1      -6.647  11.491  67.520  1.00  0.00    -0.087 A  
HETATM   15  C   UNL     1      -6.102  11.883  68.755  1.00  0.00    -0.055 A  
HETATM   16  I   UNL     1      -5.682   9.822  66.646  1.00  0.00    -0.057 I  
BRANCH  13  17
HETATM   17  O   UNL     1      -8.472  11.788  65.864  1.00  0.00     0.018 OA 
BRANCH  17  18
HETATM   18  C   UNL     1      -8.827  10.503  65.528  1.00  0.00    -0.184 A  
HETATM   19  C   UNL     1      -9.554   9.839  66.521  1.00  0.00    -0.249 A  
HETATM   20  C   UNL     1      -9.841   8.481  66.388  1.00  0.00    -0.257 A  
HETATM   21  I   UNL     1     -10.879   7.534  67.932  1.00  0.00     0.168 I  
HETATM   22  C   UNL     1      -9.406   7.782  65.258  1.00  0.00     0.675 A  
HETATM   23  C   UNL     1      -8.758   8.473  64.226  1.00  0.00     0.119 A  
HETATM   24  O   UNL     1      -9.586   6.428  65.160  1.00  0.00     0.070 OA 
HETATM   25  H   UNL     1      -9.290   5.953  64.392  1.00  0.00     0.000 HD 
HETATM   26  I   UNL     1      -8.032   7.483  62.529  1.00  0.00    -0.023 I  
HETATM   27  C   UNL     1      -8.508   9.847  64.340  1.00  0.00    -0.183 A  
ENDBRANCH  17  18
ENDBRANCH  13  17
ENDBRANCH   8   9
ENDBRANCH   4   8
TORSDOF 4
ENDMDL
MODEL      291
REMARK 921   NORMALIZED FREE ENERGY PREDICTED BY IDOCK:    3.61 KCAL/MOL
REMARK 922        TOTAL FREE ENERGY PREDICTED BY IDOCK:    3.63 KCAL/MOL
REMARK 923 INTER-LIGAND FREE ENERGY PREDICTED BY IDOCK:    1.92 KCAL/MOL
REMARK 924 INTRA-LIGAND FREE ENERGY PREDICTED BY IDOCK:    1.71 KCAL/MOL
REMARK 927      BINDING AFFINITY PREDICTED BY RF-SCORE:    0.00 PKD
ROOT
HETATM    1  N   UNL     1      -6.336  19.527  71.553  1.00  0.00     0.288 NA 
HETATM    2  H1  UNL     1      -6.838  19.610  72.437  1.00  0.00     0.000 HD 
HETATM    3  H2  UNL     1      -5.329  19.573  71.701  1.00  0.00     0.000 HD 
HETATM    4  CA  UNL     1      -6.774  20.536  70.536  1.00  0.00     0.542 C  
HETATM    5  C   UNL     1      -8.280  20.347  70.286  1.00  0.00     1.659 C  
HETATM    6  OXT UNL     1      -8.925  20.909  69.419  1.00  0.00     1.631 OA 
HETATM    7  O   UNL     1      -8.817  19.463  71.168  1.00  0.00     2.738 OA 
ENDROOT
BRANCH   4   8
HETATM    8  C   UNL     1      -6.016  20.412  69.201  1.00  0.00    -0.381 C  
BRANCH   8   9
HETATM    9  C   UNL     1      -6.671  19.446  68.243  1.00  0.00    -0.293 A  
HETATM   10  C   UNL     1      -7.813  19.808  67.522  1.00  0.00    -0.317 A  
HETATM   11  C   UNL     1      -8.439  18.883  66.676  1.00  0.00    -0.302 A  
HETATM   12  I   UNL     1     -10.212  19.520  65.728  1.00  0.00     0.090 I  
HETATM   13  C   UNL     1      -7.948  17.570  66.532  1.00  0.00    -0.274 A  
HETATM   14  C   UNL     1      -6.856  17.187  67.330  1.00  0.00    -0.153 A  
HETATM   15  C   UNL     1      -6.194  18.136  68.129  1.00  0.00    -0.178 A  
HETATM   16  I   UNL     1      -6.219  15.195  67.655  1.00  0.00     0.126 I  
BRANCH  13  17
HETATM   17  O   UNL     1      -8.688  16.745  65.715  1.00  0.00    -0.496 OA 
BRANCH  17  18
HETATM   18  C   UNL     1      -9.530  15.783  66.219  1.00  0.00    -0.317 A  
HETATM   19  C   UNL     1      -9.992  16.054  67.510  1.00  0.00    -0.240 A  
HETATM   20  C   UNL     1     -10.721  15.092  68.209  1.00  0.00    -0.253 A  
HETATM   21  I   UNL     1     -11.333  15.536  70.155  1.00  0.00    -0.466 I  
HETATM   22  C   UNL     1     -10.995  13.856  67.616  1.00  0.00    -0.264 A  
HETATM   23  C   UNL     1     -10.607  13.625  66.290  1.00  0.00    -0.289 A  
HETATM   24  O   UNL     1     -11.615  12.862  68.325  1.00  0.00    -0.291 OA 
HETATM   25  H   UNL     1     -11.802  12.021  67.923  1.00  0.00     0.000 HD 
HETATM   26  I   UNL     1     -10.937  11.779  65.356  1.00  0.00    -0.255 I  
HETATM   27  C   UNL     1      -9.913  14.608  65.573  1.00  0.00    -0.384 A  
ENDBRANCH  17  18
ENDBRANCH  13  17
ENDBRANCH   8   9
ENDBRANCH   4   8
TORSDOF 4
ENDMDL
MODEL      292
REMARK 921   NORMALIZED FREE ENERGY PREDICTED BY IDOCK:    3.99 KCAL/MOL
REMARK 922        TOTAL FREE ENERGY PREDICTED BY IDOCK:    4.10 KCAL/MOL
REMARK 923 INTER-LIGAND FREE ENERGY PREDICTED BY IDOCK:   -6.41 KCAL/MOL
REMARK 924 INTRA-LIGAND FREE ENERGY PREDICTED BY IDOCK:   10.51 KCAL/MOL
REMARK 927      BINDING AFFINITY PREDICTED BY RF-SCORE:    0.00 PKD
ROOT
HETATM    1  N   UNL     1      -9.359  20.322  67.774  1.00  0.00    -0.331 NA 
HETATM    2  H1  UNL     1      -8.657  20.615  67.096  1.00  0.00     0.000 HD 
HETATM    3  H2  UNL     1      -9.152  20.698  68.699  1.00  0.00     0.000 HD 
HETATM    4  CA  UNL     1      -9.535  18.835  67.828  1.00  0.00    -0.301 C  
HETATM    5  C   UNL     1      -9.944  18.346  66.428  1.00  0.00    -0.386 C  
HETATM    6  OXT UNL     1     -10.299  17.214  66.154  1.00  0.00    -0.340 OA 
HETATM    7  O   UNL     1      -9.856  19.348  65.513  1.00  0.00    -0.297 OA 
ENDROOT
BRANCH   4   8
HETATM    8  C   UNL     1     -10.596  18.392  68.852  1.00  0.00     0.190 C  
BRANCH   8   9
HETATM    9  C   UNL     1     -10.952  16.929  68.731  1.00  0.00    -0.234 A  
HETATM   10  C   UNL     1     -10.835  16.257  67.510  1.00  0.00    -0.268 A  
HETATM   11  C   UNL     1     -11.219  14.914  67.402  1.00  0.00    -0.338 A  
HETATM   12  I   UNL     1     -11.094  14.048  65.484  1.00  0.00    -0.368 I  
HETATM   13  C   UNL     1     -11.736  14.206  68.506  1.00  0.00    -0.345 A  
HETATM   14  C   UNL     1     -11.935  14.915  69.704  1.00  0.00    -0.320 A  
HETATM   15  C   UNL     1     -11.492  16.244  69.824  1.00  0.00    -0.205 A  
HETATM   16  I   UNL     1     -13.098  14.245  71.341  1.00  0.00    -0.426 I  
BRANCH  13  17
HETATM   17  O   UNL     1     -12.128  12.912  68.252  1.00  0.00    -0.294 OA 
BRANCH  17  18
HETATM   18  C   UNL     1     -11.313  12.017  67.600  1.00  0.00    -0.307 A  
HETATM   19  C   UNL     1     -10.610  11.164  68.456  1.00  0.00    -0.219 A  
HETATM   20  C   UNL     1      -9.627  10.316  67.946  1.00  0.00    -0.145 A  
HETATM   21  I   UNL     1      -8.573   9.108  69.284  1.00  0.00    -0.158 I  
HETATM   22  C   UNL     1      -9.346  10.315  66.577  1.00  0.00    -0.166 A  
HETATM   23  C   UNL     1     -10.115  11.107  65.714  1.00  0.00    -0.249 A  
HETATM   24  O   UNL     1      -8.313   9.570  66.075  1.00  0.00    -0.116 OA 
HETATM   25  H   UNL     1      -8.121   9.569  65.144  1.00  0.00     0.000 HD 
HETATM   26  I   UNL     1      -9.717  11.196  63.659  1.00  0.00    -0.419 I  
HETATM   27  C   UNL     1     -11.133  11.926  66.220  1.00  0.00    -0.364 A  
ENDBRANCH  17  18
ENDBRANCH  13  17
ENDBRANCH   8   9
ENDBRANCH   4   8
TORSDOF 4
ENDMDL
MODEL      293
REMARK 921   NORMALIZED FREE ENERGY PREDICTED BY IDOCK:    4.26 KCAL/MOL
REMARK 922        TOTAL FREE ENERGY PREDICTED BY IDOCK:    4.43 KCAL/MOL
REMARK 923 INTER-LIGAND FREE ENERGY PREDICTED BY IDOCK:    1.21 KCAL/MOL
REMARK 924 INTRA-LIGAND FREE ENERGY PREDICTED BY IDOCK:    3.23 KCAL/MOL
REMARK 927      BINDING AFFINITY PREDICTED BY RF-SCORE:    0.00 PKD
ROOT
HETATM    1  N   UNL     1      -5.125  10.689  65.570  1.00  0.00    -0.100 NA 
HETATM    2  H1  UNL     1      -4.894  10.214  64.698  1.00  0.00     0.000 HD 
HETATM    3  H2  UNL     1      -4.551  10.341  66.337  1.00  0.00     0.000 HD 
HETATM    4  CA  UNL     1      -6.582  10.609  65.912  1.00  0.00    -0.118 C  
HETATM    5  C   UNL     1      -7.383  11.240  64.760  1.00  0.00     1.130 C  
HETATM    6  OXT UNL     1      -8.581  11.462  64.776  1.00  0.00     0.186 OA 
HETATM    7  O   UNL     1      -6.581  11.522  63.700  1.00  0.00     1.465 OA 
ENDROOT
BRANCH   4   8
HETATM    8  C   UNL     1      -6.930  11.327  67.229  1.00  0.00    -0.109 C  
BRANCH   8   9
HETATM    9  C   UNL     1      -7.606  10.419  68.229  1.00  0.00    -0.095 A  
HETATM   10  C   UNL     1      -8.969  10.548  68.514  1.00  0.00    -0.147 A  
HETATM   11  C   UNL     1      -9.570   9.733  69.482  1.00  0.00    -0.210 A  
HETATM   12  I   UNL     1     -11.606  10.100  69.894  1.00  0.00    -0.197 I  
HETATM   13  C   UNL     1      -8.827   8.772  70.198  1.00  0.00    -0.154 A  
HETATM   14  C   UNL     1      -7.441   8.713  69.970  1.00  0.00    -0.056 A  
HETATM   15  C   UNL     1      -6.855   9.489  68.955  1.00  0.00    -0.055 A  
HETATM   16  I   UNL     1      -6.042   7.715  71.205  1.00  0.00    -0.035 I  
BRANCH  13  17
HETATM   17  O   UNL     1      -9.524   8.078  71.160  1.00  0.00    -0.149 OA 
BRANCH  17  18
HETATM   18  C   UNL     1      -9.240   6.768  71.466  1.00  0.00    -0.149 A  
HETATM   19  C   UNL     1     -10.337   6.049  71.949  1.00  0.00    -0.251 A  
HETATM   20  C   UNL     1     -10.162   4.760  72.452  1.00  0.00    -0.194 A  
HETATM   21  I   UNL     1     -11.830   3.761  73.213  1.00  0.00     0.865 I  
HETATM   22  C   UNL     1      -8.889   4.183  72.469  1.00  0.00    -0.107 A  
HETATM   23  C   UNL     1      -7.811   4.874  71.901  1.00  0.00    -0.108 A  
HETATM   24  O   UNL     1      -8.681   2.964  73.055  1.00  0.00    -0.078 OA 
HETATM   25  H   UNL     1      -7.815   2.571  73.067  1.00  0.00     0.000 HD 
HETATM   26  I   UNL     1      -5.867   4.095  71.937  1.00  0.00    -0.014 I  
HETATM   27  C   UNL     1      -7.995   6.151  71.356  1.00  0.00    -0.113 A  
ENDBRANCH  17  18
ENDBRANCH  13  17
ENDBRANCH   8   9
ENDBRANCH   4   8
TORSDOF 4
ENDMDL
MODEL      294
REMARK 921   NORMALIZED FREE ENERGY PREDICTED BY IDOCK:    5.31 KCAL/MOL
REMARK 922        TOTAL FREE ENERGY PREDICTED BY IDOCK:    5.73 KCAL/MOL
REMARK 923 INTER-LIGAND FREE ENERGY PREDICTED BY IDOCK:    4.21 KCAL/MOL
REMARK 924 INTRA-LIGAND FREE ENERGY PREDICTED BY IDOCK:    1.52 KCAL/MOL
REMARK 927      BINDING AFFINITY PREDICTED BY RF-SCORE:    0.00 PKD
ROOT
HETATM    1  N   UNL     1     -12.261  11.263  65.034  1.00  0.00     0.591 NA 
HETATM    2  H1  UNL     1     -12.685  10.357  65.234  1.00  0.00     0.000 HD 
HETATM    3  H2  UNL     1     -12.916  11.871  64.543  1.00  0.00     0.000 HD 
HETATM    4  CA  UNL     1     -10.969  11.151  64.283  1.00  0.00    -0.205 C  
HETATM    5  C   UNL     1      -9.995  10.307  65.122  1.00  0.00    -0.325 C  
HETATM    6  OXT UNL     1      -8.815  10.137  64.870  1.00  0.00    -0.163 OA 
HETATM    7  O   UNL     1     -10.620   9.759  66.198  1.00  0.00    -0.107 OA 
ENDROOT
BRANCH   4   8
HETATM    8  C   UNL     1     -10.329  12.518  63.981  1.00  0.00    -0.429 C  
BRANCH   8   9
HETATM    9  C   UNL     1     -10.217  13.396  65.205  1.00  0.00    -0.316 A  
HETATM   10  C   UNL     1      -9.145  14.279  65.363  1.00  0.00     1.015 A  
HETATM   11  C   UNL     1      -9.028  15.048  66.529  1.00  0.00    -0.274 A  
HETATM   12  I   UNL     1      -7.310  16.260  66.691  1.00  0.00     0.254 I  
HETATM   13  C   UNL     1      -9.973  14.953  67.570  1.00  0.00    -0.219 A  
HETATM   14  C   UNL     1     -10.996  13.996  67.441  1.00  0.00    -0.293 A  
HETATM   15  C   UNL     1     -11.144  13.272  66.245  1.00  0.00    -0.306 A  
HETATM   16  I   UNL     1     -12.247  13.328  69.012  1.00  0.00     0.360 I  
BRANCH  13  17
HETATM   17  O   UNL     1      -9.711  15.720  68.682  1.00  0.00    -0.194 OA 
BRANCH  17  18
HETATM   18  C   UNL     1      -9.932  17.076  68.703  1.00  0.00    -0.294 A  
HETATM   19  C   UNL     1     -10.303  17.609  67.465  1.00  0.00    -0.365 A  
HETATM   20  C   UNL     1     -10.401  18.990  67.298  1.00  0.00    -0.424 A  
HETATM   21  I   UNL     1     -10.902  19.724  65.409  1.00  0.00     1.273 I  
HETATM   22  C   UNL     1     -10.132  19.844  68.372  1.00  0.00    -0.437 A  
HETATM   23  C   UNL     1      -9.849  19.302  69.632  1.00  0.00     0.160 A  
HETATM   24  O   UNL     1     -10.119  21.202  68.199  1.00  0.00     0.210 OA 
HETATM   25  H   UNL     1      -9.936  21.784  68.928  1.00  0.00     0.000 HD 
HETATM   26  I   UNL     1      -9.386  20.519  71.272  1.00  0.00     4.080 I  
HETATM   27  C   UNL     1      -9.794  17.913  69.810  1.00  0.00     0.615 A  
ENDBRANCH  17  18
ENDBRANCH  13  17
ENDBRANCH   8   9
ENDBRANCH   4   8
TORSDOF 4
ENDMDL
MODEL      295
REMARK 921   NORMALIZED FREE ENERGY PREDICTED BY IDOCK:    7.96 KCAL/MOL
REMARK 922        TOTAL FREE ENERGY PREDICTED BY IDOCK:    9.01 KCAL/MOL
REMARK 923 INTER-LIGAND FREE ENERGY PREDICTED BY IDOCK:    0.48 KCAL/MOL
REMARK 924 INTRA-LIGAND FREE ENERGY PREDICTED BY IDOCK:    8.52 KCAL/MOL
REMARK 927      BINDING AFFINITY PREDICTED BY RF-SCORE:    0.00 PKD
ROOT
HETATM    1  N   UNL     1     -12.267  16.553  69.301  1.00  0.00    -0.104 NA 
HETATM    2  H1  UNL     1     -13.244  16.753  69.513  1.00  0.00     0.000 HD 
HETATM    3  H2  UNL     1     -11.756  17.411  69.095  1.00  0.00     0.000 HD 
HETATM    4  CA  UNL     1     -12.100  15.553  68.197  1.00  0.00     0.180 C  
HETATM    5  C   UNL     1     -12.807  14.252  68.613  1.00  0.00     1.196 C  
HETATM    6  OXT UNL     1     -12.749  13.196  68.010  1.00  0.00     0.453 OA 
HETATM    7  O   UNL     1     -13.523  14.426  69.756  1.00  0.00     0.767 OA 
ENDROOT
BRANCH   4   8
HETATM    8  C   UNL     1     -10.625  15.252  67.877  1.00  0.00    -0.260 C  
BRANCH   8   9
HETATM    9  C   UNL     1     -10.290  13.783  67.986  1.00  0.00    -0.246 A  
HETATM   10  C   UNL     1     -11.192  12.878  68.553  1.00  0.00    -0.310 A  
HETATM   11  C   UNL     1     -10.846  11.528  68.694  1.00  0.00    -0.212 A  
HETATM   12  I   UNL     1     -12.251  10.288  69.661  1.00  0.00     0.441 I  
HETATM   13  C   UNL     1      -9.588  11.045  68.279  1.00  0.00    -0.171 A  
HETATM   14  C   UNL     1      -8.655  11.978  67.796  1.00  0.00    -0.157 A  
HETATM   15  C   UNL     1      -9.029  13.319  67.599  1.00  0.00    -0.199 A  
HETATM   16  I   UNL     1      -6.585  11.617  67.545  1.00  0.00    -0.133 I  
BRANCH  13  17
HETATM   17  O   UNL     1      -9.353   9.711  68.526  1.00  0.00    -0.136 OA 
BRANCH  17  18
HETATM   18  C   UNL     1      -8.620   9.287  69.609  1.00  0.00    -0.150 A  
HETATM   19  C   UNL     1      -7.604  10.169  69.987  1.00  0.00    -0.164 A  
HETATM   20  C   UNL     1      -6.680   9.796  70.962  1.00  0.00     0.039 A  
HETATM   21  I   UNL     1      -5.152  11.136  71.440  1.00  0.00     0.107 I  
HETATM   22  C   UNL     1      -6.771   8.539  71.567  1.00  0.00    -0.073 A  
HETATM   23  C   UNL     1      -7.843   7.696  71.249  1.00  0.00    -0.090 A  
HETATM   24  O   UNL     1      -5.812   8.115  72.447  1.00  0.00    -0.041 OA 
HETATM   25  H   UNL     1      -5.873   7.260  72.859  1.00  0.00     0.000 HD 
HETATM   26  I   UNL     1      -8.016   5.780  72.076  1.00  0.00    -0.107 I  
HETATM   27  C   UNL     1      -8.798   8.089  70.301  1.00  0.00    -0.145 A  
ENDBRANCH  17  18
ENDBRANCH  13  17
ENDBRANCH   8   9
ENDBRANCH   4   8
TORSDOF 4
ENDMDL
MODEL      296
REMARK 921   NORMALIZED FREE ENERGY PREDICTED BY IDOCK:    8.24 KCAL/MOL
REMARK 922        TOTAL FREE ENERGY PREDICTED BY IDOCK:    9.34 KCAL/MOL
REMARK 923 INTER-LIGAND FREE ENERGY PREDICTED BY IDOCK:    7.53 KCAL/MOL
REMARK 924 INTRA-LIGAND FREE ENERGY PREDICTED BY IDOCK:    1.82 KCAL/MOL
REMARK 927      BINDING AFFINITY PREDICTED BY RF-SCORE:    0.00 PKD
ROOT
HETATM    1  N   UNL     1     -11.655  10.439  66.697  1.00  0.00     0.364 NA 
HETATM    2  H1  UNL     1     -11.276   9.881  65.933  1.00  0.00     0.000 HD 
HETATM    3  H2  UNL     1     -11.674  11.428  66.451  1.00  0.00     0.000 HD 
HETATM    4  CA  UNL     1     -10.933  10.224  67.992  1.00  0.00    -0.289 C  
HETATM    5  C   UNL     1     -11.028   8.732  68.356  1.00  0.00     0.156 C  
HETATM    6  OXT UNL     1     -10.669   8.241  69.411  1.00  0.00    -0.221 OA 
HETATM    7  O   UNL     1     -11.568   8.012  67.337  1.00  0.00     1.089 OA 
ENDROOT
BRANCH   4   8
HETATM    8  C   UNL     1     -11.506  11.067  69.147  1.00  0.00    -0.370 C  
BRANCH   8   9
HETATM    9  C   UNL     1     -11.169  12.534  69.023  1.00  0.00    -0.321 A  
HETATM   10  C   UNL     1     -11.325  13.403  70.107  1.00  0.00     0.074 A  
HETATM   11  C   UNL     1     -11.057  14.771  69.962  1.00  0.00    -0.204 A  
HETATM   12  I   UNL     1     -11.435  15.991  71.640  1.00  0.00    -0.063 I  
HETATM   13  C   UNL     1     -10.633  15.310  68.730  1.00  0.00    -0.240 A  
HETATM   14  C   UNL     1     -10.566  14.444  67.624  1.00  0.00    -0.260 A  
HETATM   15  C   UNL     1     -10.776  13.064  67.790  1.00  0.00    -0.242 A  
HETATM   16  I   UNL     1     -10.413  15.055  65.604  1.00  0.00    -0.465 I  
BRANCH  13  17
HETATM   17  O   UNL     1     -10.459  16.675  68.707  1.00  0.00    -0.280 OA 
BRANCH  17  18
HETATM   18  C   UNL     1      -9.276  17.255  68.317  1.00  0.00    -0.265 A  
HETATM   19  C   UNL     1      -8.634  16.584  67.272  1.00  0.00    -0.202 A  
HETATM   20  C   UNL     1      -7.350  16.962  66.882  1.00  0.00    -0.216 A  
HETATM   21  I   UNL     1      -6.423  15.882  65.353  1.00  0.00    10.222 I  
HETATM   22  C   UNL     1      -6.703  18.016  67.533  1.00  0.00    -0.182 A  
HETATM   23  C   UNL     1      -7.386  18.741  68.518  1.00  0.00    -0.297 A  
HETATM   24  O   UNL     1      -5.404  18.331  67.236  1.00  0.00    -0.135 OA 
HETATM   25  H   UNL     1      -4.964  19.047  67.679  1.00  0.00     0.000 HD 
HETATM   26  I   UNL     1      -6.463  20.298  69.571  1.00  0.00     0.037 I  
HETATM   27  C   UNL     1      -8.693  18.390  68.879  1.00  0.00    -0.164 A  
ENDBRANCH  17  18
ENDBRANCH  13  17
ENDBRANCH   8   9
ENDBRANCH   4   8
TORSDOF 4
ENDMDL
MODEL      297
REMARK 921   NORMALIZED FREE ENERGY PREDICTED BY IDOCK:    8.63 KCAL/MOL
REMARK 922        TOTAL FREE ENERGY PREDICTED BY IDOCK:    9.82 KCAL/MOL
REMARK 923 INTER-LIGAND FREE ENERGY PREDICTED BY IDOCK:    8.89 KCAL/MOL
REMARK 924 INTRA-LIGAND FREE ENERGY PREDICTED BY IDOCK:    0.93 KCAL/MOL
REMARK 927      BINDING AFFINITY PREDICTED BY RF-SCORE:    0.00 PKD
ROOT
HETATM    1  N   UNL     1     -13.290  11.514  71.275  1.00  0.00     0.000 NA 
HETATM    2  H1  UNL     1     -14.276  11.743  71.401  1.00  0.00     0.000 HD 
HETATM    3  H2  UNL     1     -12.887  12.050  70.508  1.00  0.00     0.000 HD 
HETATM    4  CA  UNL     1     -13.052  10.046  71.084  1.00  0.00    -0.386 C  
HETATM    5  C   UNL     1     -13.592   9.306  72.319  1.00  0.00    -0.480 C  
HETATM    6  OXT UNL     1     -13.437   8.120  72.552  1.00  0.00    -0.107 OA 
HETATM    7  O   UNL     1     -14.282  10.147  73.134  1.00  0.00     0.803 OA 
ENDROOT
BRANCH   4   8
HETATM    8  C   UNL     1     -11.564   9.700  70.893  1.00  0.00    -0.420 C  
BRANCH   8   9
HETATM    9  C   UNL     1     -10.994  10.254  69.609  1.00  0.00    -0.314 A  
HETATM   10  C   UNL     1      -9.630  10.147  69.320  1.00  0.00    -0.239 A  
HETATM   11  C   UNL     1      -9.109  10.712  68.148  1.00  0.00    -0.148 A  
HETATM   12  I   UNL     1      -7.021  10.575  67.882  1.00  0.00    -0.080 I  
HETATM   13  C   UNL     1      -9.931  11.404  67.237  1.00  0.00    -0.194 A  
HETATM   14  C   UNL     1     -11.283  11.584  67.580  1.00  0.00    -0.281 A  
HETATM   15  C   UNL     1     -11.813  10.964  68.725  1.00  0.00    -0.305 A  
HETATM   16  I   UNL     1     -12.608  12.946  66.648  1.00  0.00     1.700 I  
BRANCH  13  17
HETATM   17  O   UNL     1      -9.285  11.958  66.156  1.00  0.00    -0.224 OA 
BRANCH  17  18
HETATM   18  C   UNL     1      -8.882  13.272  66.141  1.00  0.00     0.374 A  
HETATM   19  C   UNL     1      -9.860  14.160  65.682  1.00  0.00    -0.278 A  
HETATM   20  C   UNL     1      -9.540  15.499  65.459  1.00  0.00    -0.221 A  
HETATM   21  I   UNL     1     -11.030  16.760  64.718  1.00  0.00     1.266 I  
HETATM   22  C   UNL     1      -8.241  15.957  65.698  1.00  0.00     1.471 A  
HETATM   23  C   UNL     1      -7.291  15.084  66.243  1.00  0.00     2.231 A  
HETATM   24  O   UNL     1      -7.883  17.241  65.384  1.00  0.00     0.044 OA 
HETATM   25  H   UNL     1      -7.000  17.552  65.547  1.00  0.00     0.000 HD 
HETATM   26  I   UNL     1      -5.313  15.686  66.578  1.00  0.00     3.257 I  
HETATM   27  C   UNL     1      -7.624  13.749  66.508  1.00  0.00     1.422 A  
ENDBRANCH  17  18
ENDBRANCH  13  17
ENDBRANCH   8   9
ENDBRANCH   4   8
TORSDOF 4
ENDMDL
MODEL      298
REMARK 921   NORMALIZED FREE ENERGY PREDICTED BY IDOCK:   15.55 KCAL/MOL
REMARK 922        TOTAL FREE ENERGY PREDICTED BY IDOCK:   18.36 KCAL/MOL
REMARK 923 INTER-LIGAND FREE ENERGY PREDICTED BY IDOCK:   10.57 KCAL/MOL
REMARK 924 INTRA-LIGAND FREE ENERGY PREDICTED BY IDOCK:    7.80 KCAL/MOL
REMARK 927      BINDING AFFINITY PREDICTED BY RF-SCORE:    0.00 PKD
ROOT
HETATM    1  N   UNL     1     -13.718  16.358  71.268  1.00  0.00     1.097 NA 
HETATM    2  H1  UNL     1     -13.631  16.444  72.280  1.00  0.00     0.000 HD 
HETATM    3  H2  UNL     1     -14.387  15.630  71.021  1.00  0.00     0.000 HD 
HETATM    4  CA  UNL     1     -12.403  16.128  70.586  1.00  0.00     0.105 C  
HETATM    5  C   UNL     1     -11.475  17.310  70.919  1.00  0.00     1.693 C  
HETATM    6  OXT UNL     1     -10.383  17.509  70.417  1.00  0.00     0.691 OA 
HETATM    7  O   UNL     1     -12.029  18.119  71.861  1.00  0.00     4.339 OA 
ENDROOT
BRANCH   4   8
HETATM    8  C   UNL     1     -12.533  15.997  69.058  1.00  0.00     0.558 C  
BRANCH   8   9
HETATM    9  C   UNL     1     -12.109  14.640  68.549  1.00  0.00    -0.229 A  
HETATM   10  C   UNL     1     -11.077  13.928  69.166  1.00  0.00    -0.284 A  
HETATM   11  C   UNL     1     -10.661  12.693  68.650  1.00  0.00    -0.242 A  
HETATM   12  I   UNL     1      -9.024  11.772  69.609  1.00  0.00     2.565 I  
HETATM   13  C   UNL     1     -11.259  12.139  67.500  1.00  0.00    -0.297 A  
HETATM   14  C   UNL     1     -12.232  12.904  66.834  1.00  0.00    -0.106 A  
HETATM   15  C   UNL     1     -12.689  14.111  67.390  1.00  0.00     0.648 A  
HETATM   16  I   UNL     1     -12.945  12.535  64.876  1.00  0.00     1.302 I  
BRANCH  13  17
HETATM   17  O   UNL     1     -10.720  10.949  67.065  1.00  0.00    -0.247 OA 
BRANCH  17  18
HETATM   18  C   UNL     1      -9.548  10.447  67.579  1.00  0.00    -0.156 A  
HETATM   19  C   UNL     1      -8.445  10.604  66.734  1.00  0.00    -0.134 A  
HETATM   20  C   UNL     1      -7.229  10.001  67.052  1.00  0.00    -0.090 A  
HETATM   21  I   UNL     1      -5.637  10.225  65.720  1.00  0.00    -0.121 I  
HETATM   22  C   UNL     1      -7.109   9.240  68.219  1.00  0.00    -0.076 A  
HETATM   23  C   UNL     1      -8.191   9.161  69.105  1.00  0.00    -0.117 A  
HETATM   24  O   UNL     1      -5.957   8.553  68.491  1.00  0.00    -0.043 OA 
HETATM   25  H   UNL     1      -5.875   8.036  69.285  1.00  0.00     0.000 HD 
HETATM   26  I   UNL     1      -8.102   7.998  70.845  1.00  0.00    -0.133 I  
HETATM   27  C   UNL     1      -9.400   9.804  68.808  1.00  0.00    -0.150 A  
ENDBRANCH  17  18
ENDBRANCH  13  17
ENDBRANCH   8   9
ENDBRANCH   4   8
TORSDOF 4
ENDMDL
MODEL      299
REMARK 921   NORMALIZED FREE ENERGY PREDICTED BY IDOCK:   17.98 KCAL/MOL
REMARK 922        TOTAL FREE ENERGY PREDICTED BY IDOCK:   21.37 KCAL/MOL
REMARK 923 INTER-LIGAND FREE ENERGY PREDICTED BY IDOCK:    8.63 KCAL/MOL
REMARK 924 INTRA-LIGAND FREE ENERGY PREDICTED BY IDOCK:   12.74 KCAL/MOL
REMARK 927      BINDING AFFINITY PREDICTED BY RF-SCORE:    0.00 PKD
ROOT
HETATM    1  N   UNL     1     -13.562  11.580  64.923  1.00  0.00     2.513 NA 
HETATM    2  H1  UNL     1     -14.014  10.735  65.271  1.00  0.00     0.000 HD 
HETATM    3  H2  UNL     1     -14.254  12.260  64.610  1.00  0.00     0.000 HD 
HETATM    4  CA  UNL     1     -12.557  11.305  63.846  1.00  0.00     0.851 C  
HETATM    5  C   UNL     1     -11.490  10.354  64.414  1.00  0.00     2.607 C  
HETATM    6  OXT UNL     1     -10.457  10.038  63.850  1.00  0.00     0.567 OA 
HETATM    7  O   UNL     1     -11.845   9.895  65.644  1.00  0.00     3.006 OA 
ENDROOT
BRANCH   4   8
HETATM    8  C   UNL     1     -11.875  12.581  63.320  1.00  0.00    -0.498 C  
BRANCH   8   9
HETATM    9  C   UNL     1     -11.215  13.386  64.414  1.00  0.00    -0.408 A  
HETATM   10  C   UNL     1     -10.653  12.760  65.531  1.00  0.00    -0.303 A  
HETATM   11  C   UNL     1     -10.090  13.524  66.562  1.00  0.00    -0.282 A  
HETATM   12  I   UNL     1      -9.374  12.465  68.239  1.00  0.00    -0.062 I  
HETATM   13  C   UNL     1     -10.079  14.933  66.510  1.00  0.00    -0.271 A  
HETATM   14  C   UNL     1     -10.727  15.554  65.429  1.00  0.00    -0.405 A  
HETATM   15  C   UNL     1     -11.234  14.784  64.368  1.00  0.00    -0.184 A  
HETATM   16  I   UNL     1     -11.255  17.601  65.334  1.00  0.00     2.257 I  
BRANCH  13  17
HETATM   17  O   UNL     1      -9.548  15.563  67.612  1.00  0.00    -0.209 OA 
BRANCH  17  18
HETATM   18  C   UNL     1      -8.419  15.100  68.247  1.00  0.00    -0.152 A  
HETATM   19  C   UNL     1      -8.174  13.738  68.043  1.00  0.00    -0.164 A  
HETATM   20  C   UNL     1      -7.161  13.096  68.753  1.00  0.00    -0.098 A  
HETATM   21  I   UNL     1      -6.882  11.050  68.446  1.00  0.00    -0.078 I  
HETATM   22  C   UNL     1      -6.385  13.814  69.668  1.00  0.00    -0.116 A  
HETATM   23  C   UNL     1      -6.577  15.195  69.801  1.00  0.00    -0.177 A  
HETATM   24  O   UNL     1      -5.459  13.179  70.451  1.00  0.00    -0.117 OA 
HETATM   25  H   UNL     1      -4.931  13.667  71.074  1.00  0.00     0.000 HD 
HETATM   26  I   UNL     1      -5.489  16.326  71.189  1.00  0.00     0.555 I  
HETATM   27  C   UNL     1      -7.566  15.849  69.055  1.00  0.00    -0.202 A  
ENDBRANCH  17  18
ENDBRANCH  13  17
ENDBRANCH   8   9
ENDBRANCH   4   8
TORSDOF 4
ENDMDL
MODEL      300
REMARK 921   NORMALIZED FREE ENERGY PREDICTED BY IDOCK:   22.91 KCAL/MOL
REMARK 922        TOTAL FREE ENERGY PREDICTED BY IDOCK:   27.45 KCAL/MOL
REMARK 923 INTER-LIGAND FREE ENERGY PREDICTED BY IDOCK:   26.93 KCAL/MOL
REMARK 924 INTRA-LIGAND FREE ENERGY PREDICTED BY IDOCK:    0.53 KCAL/MOL
REMARK 927      BINDING AFFINITY PREDICTED BY RF-SCORE:    0.00 PKD
ROOT
HETATM    1  N   UNL     1     -10.319   6.945  72.227  1.00  0.00    -0.194 NA 
HETATM    2  H1  UNL     1      -9.895   6.116  72.642  1.00  0.00     0.000 HD 
HETATM    3  H2  UNL     1      -9.605   7.596  71.902  1.00  0.00     0.000 HD 
HETATM    4  CA  UNL     1     -11.286   7.628  73.146  1.00  0.00    -0.256 C  
HETATM    5  C   UNL     1     -12.390   6.624  73.518  1.00  0.00     2.529 C  
HETATM    6  OXT UNL     1     -13.405   6.891  74.136  1.00  0.00     6.435 OA 
HETATM    7  O   UNL     1     -12.090   5.376  73.069  1.00  0.00    -0.132 OA 
ENDROOT
BRANCH   4   8
HETATM    8  C   UNL     1     -11.927   8.881  72.521  1.00  0.00    -0.219 C  
BRANCH   8   9
HETATM    9  C   UNL     1     -11.311   9.253  71.193  1.00  0.00    -0.412 A  
HETATM   10  C   UNL     1     -12.109   9.629  70.108  1.00  0.00     0.050 A  
HETATM   11  C   UNL     1     -11.526   9.921  68.868  1.00  0.00     0.080 A  
HETATM   12  I   UNL     1     -12.846  10.371  67.286  1.00  0.00    12.371 I  
HETATM   13  C   UNL     1     -10.132   9.839  68.674  1.00  0.00    -0.169 A  
HETATM   14  C   UNL     1      -9.348   9.372  69.743  1.00  0.00    -0.203 A  
HETATM   15  C   UNL     1      -9.930   9.140  71.002  1.00  0.00    -0.367 A  
HETATM   16  I   UNL     1      -7.339   8.723  69.592  1.00  0.00    -0.066 I  
BRANCH  13  17
HETATM   17  O   UNL     1      -9.694  10.096  67.395  1.00  0.00    -0.154 OA 
BRANCH  17  18
HETATM   18  C   UNL     1      -9.191  11.321  67.026  1.00  0.00    -0.165 A  
HETATM   19  C   UNL     1      -7.912  11.262  66.464  1.00  0.00    -0.145 A  
HETATM   20  C   UNL     1      -7.213  12.437  66.194  1.00  0.00     1.537 A  
HETATM   21  I   UNL     1      -5.284  12.281  65.409  1.00  0.00     5.235 I  
HETATM   22  C   UNL     1      -7.791  13.677  66.482  1.00  0.00     1.057 A  
HETATM   23  C   UNL     1      -9.106  13.731  66.961  1.00  0.00    -0.246 A  
HETATM   24  O   UNL     1      -7.078  14.836  66.323  1.00  0.00     0.807 OA 
HETATM   25  H   UNL     1      -7.471  15.679  66.519  1.00  0.00     0.000 HD 
HETATM   26  I   UNL     1     -10.018  15.549  67.462  1.00  0.00    -0.237 I  
HETATM   27  C   UNL     1      -9.826  12.552  67.191  1.00  0.00    -0.210 A  
ENDBRANCH  17  18
ENDBRANCH  13  17
ENDBRANCH   8   9
ENDBRANCH   4   8
TORSDOF 4
ENDMDL
MODEL      301
REMARK 921   NORMALIZED FREE ENERGY PREDICTED BY IDOCK:   26.09 KCAL/MOL
REMARK 922        TOTAL FREE ENERGY PREDICTED BY IDOCK:   31.37 KCAL/MOL
REMARK 923 INTER-LIGAND FREE ENERGY PREDICTED BY IDOCK:   21.45 KCAL/MOL
REMARK 924 INTRA-LIGAND FREE ENERGY PREDICTED BY IDOCK:    9.92 KCAL/MOL
REMARK 927      BINDING AFFINITY PREDICTED BY RF-SCORE:    0.00 PKD
ROOT
HETATM    1  N   UNL     1     -12.063  15.616  69.013  1.00  0.00    -0.583 NA 
HETATM    2  H1  UNL     1     -13.017  15.889  69.249  1.00  0.00     0.000 HD 
HETATM    3  H2  UNL     1     -11.478  16.436  68.855  1.00  0.00     0.000 HD 
HETATM    4  CA  UNL     1     -11.995  14.678  67.847  1.00  0.00    -0.264 C  
HETATM    5  C   UNL     1     -12.814  13.421  68.190  1.00  0.00     1.568 C  
HETATM    6  OXT UNL     1     -12.855  12.404  67.521  1.00  0.00     1.027 OA 
HETATM    7  O   UNL     1     -13.503  13.586  69.350  1.00  0.00     1.925 OA 
ENDROOT
BRANCH   4   8
HETATM    8  C   UNL     1     -10.555  14.265  67.490  1.00  0.00    -0.261 C  
BRANCH   8   9
HETATM    9  C   UNL     1     -10.440  12.809  67.109  1.00  0.00    -0.240 A  
HETATM   10  C   UNL     1     -11.516  11.933  67.275  1.00  0.00    -0.385 A  
HETATM   11  C   UNL     1     -11.377  10.573  66.965  1.00  0.00     0.185 A  
HETATM   12  I   UNL     1     -13.041   9.339  67.361  1.00  0.00    20.019 I  
HETATM   13  C   UNL     1     -10.158  10.050  66.487  1.00  0.00    -0.232 A  
HETATM   14  C   UNL     1      -9.057  10.920  66.411  1.00  0.00    -0.172 A  
HETATM   15  C   UNL     1      -9.218  12.293  66.664  1.00  0.00    -0.208 A  
HETATM   16  I   UNL     1      -7.041  10.319  66.178  1.00  0.00    -0.135 I  
BRANCH  13  17
HETATM   17  O   UNL     1     -10.139   8.690  66.275  1.00  0.00    -0.277 OA 
BRANCH  17  18
HETATM   18  C   UNL     1      -9.581   7.818  67.179  1.00  0.00    -0.170 A  
HETATM   19  C   UNL     1      -8.488   8.345  67.874  1.00  0.00    -0.131 A  
HETATM   20  C   UNL     1      -7.724   7.523  68.702  1.00  0.00    -0.119 A  
HETATM   21  I   UNL     1      -6.070   8.357  69.667  1.00  0.00    -0.032 I  
HETATM   22  C   UNL     1      -8.052   6.172  68.842  1.00  0.00    -0.108 A  
HETATM   23  C   UNL     1      -9.199   5.671  68.214  1.00  0.00    -0.110 A  
HETATM   24  O   UNL     1      -7.251   5.328  69.564  1.00  0.00    -0.058 OA 
HETATM   25  H   UNL     1      -7.473   4.409  69.659  1.00  0.00     0.000 HD 
HETATM   26  I   UNL     1      -9.723   3.647  68.335  1.00  0.00     0.390 I  
HETATM   27  C   UNL     1      -9.993   6.507  67.417  1.00  0.00    -0.180 A  
ENDBRANCH  17  18
ENDBRANCH  13  17
ENDBRANCH   8   9
ENDBRANCH   4   8
TORSDOF 4
ENDMDL
MODEL      302
REMARK 921   NORMALIZED FREE ENERGY PREDICTED BY IDOCK:   33.93 KCAL/MOL
REMARK 922        TOTAL FREE ENERGY PREDICTED BY IDOCK:   41.04 KCAL/MOL
REMARK 923 INTER-LIGAND FREE ENERGY PREDICTED BY IDOCK:   41.85 KCAL/MOL
REMARK 924 INTRA-LIGAND FREE ENERGY PREDICTED BY IDOCK:   -0.81 KCAL/MOL
REMARK 927      BINDING AFFINITY PREDICTED BY RF-SCORE:    0.00 PKD
ROOT
HETATM    1  N   UNL     1      -5.645  10.508  66.030  1.00  0.00    -0.083 NA 
HETATM    2  H1  UNL     1      -5.302   9.770  65.415  1.00  0.00     0.000 HD 
HETATM    3  H2  UNL     1      -5.243  10.421  66.963  1.00  0.00     0.000 HD 
HETATM    4  CA  UNL     1      -7.141  10.565  66.096  1.00  0.00    -0.135 C  
HETATM    5  C   UNL     1      -7.678  10.797  64.673  1.00  0.00     0.239 C  
HETATM    6  OXT UNL     1      -8.839  11.031  64.389  1.00  0.00    -0.115 OA 
HETATM    7  O   UNL     1      -6.683  10.705  63.751  1.00  0.00     0.027 OA 
ENDROOT
BRANCH   4   8
HETATM    8  C   UNL     1      -7.659  11.679  67.024  1.00  0.00    -0.154 C  
BRANCH   8   9
HETATM    9  C   UNL     1      -8.756  11.207  67.949  1.00  0.00    -0.136 A  
HETATM   10  C   UNL     1     -10.090  11.186  67.534  1.00  0.00    -0.210 A  
HETATM   11  C   UNL     1     -11.102  10.795  68.422  1.00  0.00    -0.266 A  
HETATM   12  I   UNL     1     -13.082  10.908  67.706  1.00  0.00    11.049 I  
HETATM   13  C   UNL     1     -10.810  10.421  69.749  1.00  0.00    -0.292 A  
HETATM   14  C   UNL     1      -9.478  10.534  70.184  1.00  0.00     0.576 A  
HETATM   15  C   UNL     1      -8.460  10.867  69.273  1.00  0.00    -0.006 A  
HETATM   16  I   UNL     1      -8.844  10.487  72.203  1.00  0.00    12.221 I  
BRANCH  13  17
HETATM   17  O   UNL     1     -11.899  10.114  70.533  1.00  0.00    -0.281 OA 
BRANCH  17  18
HETATM   18  C   UNL     1     -12.208   8.820  70.880  1.00  0.00    -0.116 A  
HETATM   19  C   UNL     1     -12.923   8.710  72.076  1.00  0.00    -0.419 A  
HETATM   20  C   UNL     1     -13.164   7.455  72.634  1.00  0.00     0.685 A  
HETATM   21  I   UNL     1     -14.187   7.361  74.451  1.00  0.00    14.004 I  
HETATM   22  C   UNL     1     -12.693   6.304  71.996  1.00  0.00     0.098 A  
HETATM   23  C   UNL     1     -12.055   6.415  70.753  1.00  0.00    -0.094 A  
HETATM   24  O   UNL     1     -12.826   5.074  72.582  1.00  0.00     0.219 OA 
HETATM   25  H   UNL     1     -12.505   4.291  72.149  1.00  0.00     0.000 HD 
HETATM   26  I   UNL     1     -11.278   4.741  69.764  1.00  0.00     4.871 I  
HETATM   27  C   UNL     1     -11.852   7.673  70.170  1.00  0.00     0.171 A  
ENDBRANCH  17  18
ENDBRANCH  13  17
ENDBRANCH   8   9
ENDBRANCH   4   8
TORSDOF 4
ENDMDL
MODEL      303
REMARK 921   NORMALIZED FREE ENERGY PREDICTED BY IDOCK:   55.66 KCAL/MOL
REMARK 922        TOTAL FREE ENERGY PREDICTED BY IDOCK:   67.85 KCAL/MOL
REMARK 923 INTER-LIGAND FREE ENERGY PREDICTED BY IDOCK:   65.45 KCAL/MOL
REMARK 924 INTRA-LIGAND FREE ENERGY PREDICTED BY IDOCK:    2.40 KCAL/MOL
REMARK 927      BINDING AFFINITY PREDICTED BY RF-SCORE:    0.00 PKD
ROOT
HETATM    1  N   UNL     1     -12.632  19.796  66.332  1.00  0.00     4.275 NA 
HETATM    2  H1  UNL     1     -12.550  20.765  66.640  1.00  0.00     0.000 HD 
HETATM    3  H2  UNL     1     -13.175  19.247  66.997  1.00  0.00     0.000 HD 
HETATM    4  CA  UNL     1     -11.304  19.154  66.066  1.00  0.00     0.816 C  
HETATM    5  C   UNL     1     -10.580  19.973  64.983  1.00  0.00     0.628 C  
HETATM    6  OXT UNL     1      -9.541  19.652  64.435  1.00  0.00     3.200 OA 
HETATM    7  O   UNL     1     -11.249  21.125  64.710  1.00  0.00     1.682 OA 
ENDROOT
BRANCH   4   8
HETATM    8  C   UNL     1     -11.427  17.691  65.600  1.00  0.00     1.530 C  
BRANCH   8   9
HETATM    9  C   UNL     1     -11.574  16.722  66.749  1.00  0.00     1.109 A  
HETATM   10  C   UNL     1     -11.555  17.166  68.074  1.00  0.00     0.632 A  
HETATM   11  C   UNL     1     -11.640  16.247  69.129  1.00  0.00    -0.213 A  
HETATM   12  I   UNL     1     -11.494  17.035  71.080  1.00  0.00     2.611 I  
HETATM   13  C   UNL     1     -11.740  14.862  68.891  1.00  0.00    -0.315 A  
HETATM   14  C   UNL     1     -11.665  14.419  67.559  1.00  0.00    -0.387 A  
HETATM   15  C   UNL     1     -11.642  15.346  66.503  1.00  0.00     0.083 A  
HETATM   16  I   UNL     1     -11.329  12.419  66.954  1.00  0.00    -0.424 I  
BRANCH  13  17
HETATM   17  O   UNL     1     -11.759  14.066  70.014  1.00  0.00    -0.277 OA 
BRANCH  17  18
HETATM   18  C   UNL     1     -10.764  13.156  70.282  1.00  0.00     1.604 A  
HETATM   19  C   UNL     1     -10.837  11.994  69.508  1.00  0.00     0.035 A  
HETATM   20  C   UNL     1      -9.994  10.917  69.782  1.00  0.00     0.282 A  
HETATM   21  I   UNL     1     -10.191   9.189  68.627  1.00  0.00    -0.226 I  
HETATM   22  C   UNL     1      -9.072  10.999  70.829  1.00  0.00     4.245 A  
HETATM   23  C   UNL     1      -8.943  12.198  71.543  1.00  0.00    15.675 A  
HETATM   24  O   UNL     1      -8.313   9.915  71.181  1.00  0.00    -0.232 OA 
HETATM   25  H   UNL     1      -7.686   9.971  71.893  1.00  0.00     0.000 HD 
HETATM   26  I   UNL     1      -7.622  12.378  73.157  1.00  0.00    19.529 I  
HETATM   27  C   UNL     1      -9.759  13.296  71.239  1.00  0.00     9.587 A  
ENDBRANCH  17  18
ENDBRANCH  13  17
ENDBRANCH   8   9
ENDBRANCH   4   8
TORSDOF 4
ENDMDL
MODEL      304
REMARK 921   NORMALIZED FREE ENERGY PREDICTED BY IDOCK:   61.15 KCAL/MOL
REMARK 922        TOTAL FREE ENERGY PREDICTED BY IDOCK:   74.62 KCAL/MOL
REMARK 923 INTER-LIGAND FREE ENERGY PREDICTED BY IDOCK:   58.19 KCAL/MOL
REMARK 924 INTRA-LIGAND FREE ENERGY PREDICTED BY IDOCK:   16.43 KCAL/MOL
REMARK 927      BINDING AFFINITY PREDICTED BY RF-SCORE:    0.00 PKD
ROOT
HETATM    1  N   UNL     1     -13.005  11.880  65.642  1.00  0.00     1.592 NA 
HETATM    2  H1  UNL     1     -13.620  11.181  66.058  1.00  0.00     0.000 HD 
HETATM    3  H2  UNL     1     -13.545  12.626  65.205  1.00  0.00     0.000 HD 
HETATM    4  CA  UNL     1     -12.023  11.293  64.674  1.00  0.00     0.587 C  
HETATM    5  C   UNL     1     -11.175  10.249  65.421  1.00  0.00     1.244 C  
HETATM    6  OXT UNL     1     -10.196   9.684  64.968  1.00  0.00    -0.011 OA 
HETATM    7  O   UNL     1     -11.662  10.024  66.670  1.00  0.00     0.867 OA 
ENDROOT
BRANCH   4   8
HETATM    8  C   UNL     1     -11.094  12.348  64.045  1.00  0.00    -0.452 C  
BRANCH   8   9
HETATM    9  C   UNL     1     -10.453  13.251  65.073  1.00  0.00    -0.367 A  
HETATM   10  C   UNL     1     -11.231  14.013  65.949  1.00  0.00    -0.308 A  
HETATM   11  C   UNL     1     -10.621  14.884  66.862  1.00  0.00    -0.300 A  
HETATM   12  I   UNL     1     -11.909  16.056  68.053  1.00  0.00     0.900 I  
HETATM   13  C   UNL     1      -9.220  15.024  66.920  1.00  0.00    -0.246 A  
HETATM   14  C   UNL     1      -8.452  14.323  65.974  1.00  0.00     1.151 A  
HETATM   15  C   UNL     1      -9.063  13.405  65.103  1.00  0.00     1.231 A  
HETATM   16  I   UNL     1      -6.414  14.695  65.540  1.00  0.00    14.580 I  
BRANCH  13  17
HETATM   17  O   UNL     1      -8.753  15.954  67.820  1.00  0.00    -0.168 OA 
BRANCH  17  18
HETATM   18  C   UNL     1      -9.409  16.225  68.998  1.00  0.00    -0.254 A  
HETATM   19  C   UNL     1     -10.803  16.177  68.893  1.00  0.00    -0.305 A  
HETATM   20  C   UNL     1     -11.598  16.588  69.962  1.00  0.00     0.200 A  
HETATM   21  I   UNL     1     -13.673  16.546  69.723  1.00  0.00     9.102 I  
HETATM   22  C   UNL     1     -11.004  17.045  71.141  1.00  0.00     1.034 A  
HETATM   23  C   UNL     1      -9.610  17.007  71.271  1.00  0.00     5.606 A  
HETATM   24  O   UNL     1     -11.767  17.552  72.159  1.00  0.00     0.488 OA 
HETATM   25  H   UNL     1     -11.363  17.864  72.961  1.00  0.00     0.000 HD 
HETATM   26  I   UNL     1      -8.647  17.725  72.988  1.00  0.00    19.938 I  
HETATM   27  C   UNL     1      -8.811  16.553  70.214  1.00  0.00     2.086 A  
ENDBRANCH  17  18
ENDBRANCH  13  17
ENDBRANCH   8   9
ENDBRANCH   4   8
TORSDOF 4
ENDMDL
