MODEL        1
REMARK 921   NORMALIZED FREE ENERGY PREDICTED BY IDOCK:   -7.83 KCAL/MOL
REMARK 922        TOTAL FREE ENERGY PREDICTED BY IDOCK:   -9.87 KCAL/MOL
REMARK 923 INTER-LIGAND FREE ENERGY PREDICTED BY IDOCK:   -9.66 KCAL/MOL
REMARK 924 INTRA-LIGAND FREE ENERGY PREDICTED BY IDOCK:   -0.21 KCAL/MOL
REMARK 927      BINDING AFFINITY PREDICTED BY RF-SCORE:    0.00 PKD
ROOT
HETATM    1  C   UNL     1      -7.839   9.735  70.083  1.00  0.00    -0.196 C  
HETATM    2  C   UNL     1      -8.553  10.219  68.811  1.00  0.00    -0.139 C  
HETATM    3  C   UNL     1      -8.488  11.748  68.822  1.00  0.00     0.007 C  
HETATM    4  N   UNL     1      -9.125  12.512  67.727  1.00  0.00    -0.183 NA 
HETATM    5  C   UNL     1     -10.401  11.923  67.315  1.00  0.00    -0.205 C  
HETATM    6  O   UNL     1      -8.823   7.660  67.721  1.00  0.00    -0.126 OA 
HETATM    7  O   UNL     1     -10.979   7.432  68.264  1.00  0.00    -0.078 OA 
HETATM    8  C   UNL     1     -10.421  10.385  67.218  1.00  0.00    -0.304 C  
HETATM    9  C   UNL     1      -9.856   8.171  68.156  1.00  0.00    -0.168 C  
HETATM   10  C   UNL     1      -9.996   9.668  68.538  1.00  0.00    -0.182 C  
ENDROOT
BRANCH   4  11
HETATM   11  C   UNL     1      -9.284  13.922  68.211  1.00  0.00    -0.207 C  
HETATM   12  C   UNL     1      -9.104  15.113  65.971  1.00  0.00    -0.196 C  
HETATM   13  C   UNL     1     -10.438  15.872  66.147  1.00  0.00    -0.336 C  
HETATM   14  C   UNL     1     -10.718  14.488  68.342  1.00  0.00    -0.246 C  
HETATM   15  C   UNL     1     -11.360  15.012  67.052  1.00  0.00    -0.319 C  
HETATM   16  C   UNL     1      -8.453  14.891  67.343  1.00  0.00    -0.212 C  
BRANCH  13  17
HETATM   17  C   UNL     1     -10.088  17.311  66.663  1.00  0.00    -0.302 A  
HETATM   18  C   UNL     1     -10.859  19.342  67.819  1.00  0.00    -0.416 A  
HETATM   19  C   UNL     1      -8.912  18.004  66.323  1.00  0.00    -0.194 A  
HETATM   20  F   UNL     1      -9.569  21.308  67.697  1.00  0.00    -0.492 F  
HETATM   21  C   UNL     1      -8.743  19.349  66.672  1.00  0.00    -0.361 A  
HETATM   22  C   UNL     1      -9.722  20.011  67.401  1.00  0.00    -0.417 A  
HETATM   23  C   UNL     1     -11.035  18.004  67.462  1.00  0.00    -0.111 A  
ENDBRANCH  13  17
BRANCH  13  24
HETATM   24  C   UNL     1     -11.155  16.071  64.821  1.00  0.00    -0.365 C  
HETATM   25  H2  UNL     1     -10.938  16.280  63.103  1.00  0.00     0.000 HD 
HETATM   26  N   UNL     1     -11.748  16.236  63.721  1.00  0.00    -1.488 NA 
HETATM   27  H1  UNL     1     -12.229  16.369  62.832  1.00  0.00     0.000 HD 
ENDBRANCH  13  24
ENDBRANCH   4  11
BRANCH  10  28
HETATM   28  C   UNL     1     -11.022   9.862  69.694  1.00  0.00    -0.285 A  
HETATM   29  C   UNL     1     -11.895  10.968  69.766  1.00  0.00    -0.421 A  
HETATM   30  C   UNL     1     -11.180   8.895  70.704  1.00  0.00    -0.308 A  
HETATM   31  C   UNL     1     -12.786  10.260  71.894  1.00  0.00    -0.528 A  
HETATM   32  C   UNL     1     -12.741  11.182  70.860  1.00  0.00    -0.438 A  
HETATM   33  C   UNL     1     -12.027   9.101  71.800  1.00  0.00    -0.449 A  
ENDBRANCH  10  28
TORSDOF 4
ENDMDL
MODEL        2
REMARK 921   NORMALIZED FREE ENERGY PREDICTED BY IDOCK:   -7.79 KCAL/MOL
REMARK 922        TOTAL FREE ENERGY PREDICTED BY IDOCK:   -9.82 KCAL/MOL
REMARK 923 INTER-LIGAND FREE ENERGY PREDICTED BY IDOCK:   -9.31 KCAL/MOL
REMARK 924 INTRA-LIGAND FREE ENERGY PREDICTED BY IDOCK:   -0.51 KCAL/MOL
REMARK 927      BINDING AFFINITY PREDICTED BY RF-SCORE:    0.00 PKD
ROOT
HETATM    1  C   UNL     1      -7.638   8.972  69.256  1.00  0.00    -0.079 C  
HETATM    2  C   UNL     1      -8.715   9.515  68.303  1.00  0.00    -0.120 C  
HETATM    3  C   UNL     1      -8.669  11.041  68.409  1.00  0.00    -0.150 C  
HETATM    4  N   UNL     1      -9.623  11.854  67.622  1.00  0.00    -0.182 NA 
HETATM    5  C   UNL     1     -10.955  11.250  67.577  1.00  0.00    -0.265 C  
HETATM    6  O   UNL     1      -9.276   7.027  67.161  1.00  0.00    -0.130 OA 
HETATM    7  O   UNL     1     -11.156   6.688  68.319  1.00  0.00    -0.255 OA 
HETATM    8  C   UNL     1     -10.985   9.722  67.376  1.00  0.00    -0.176 C  
HETATM    9  C   UNL     1     -10.131   7.472  67.928  1.00  0.00    -0.182 C  
HETATM   10  C   UNL     1     -10.165   8.933  68.445  1.00  0.00    -0.231 C  
ENDROOT
BRANCH   4  11
HETATM   11  C   UNL     1      -9.642  13.223  68.235  1.00  0.00    -0.221 C  
HETATM   12  C   UNL     1      -9.166  14.583  66.140  1.00  0.00    -0.175 C  
HETATM   13  C   UNL     1     -10.408  15.485  66.315  1.00  0.00    -0.312 C  
HETATM   14  C   UNL     1     -11.003  13.951  68.341  1.00  0.00    -0.272 C  
HETATM   15  C   UNL     1     -11.488  14.669  67.075  1.00  0.00    -0.379 C  
HETATM   16  C   UNL     1      -8.643  14.155  67.517  1.00  0.00    -0.196 C  
BRANCH  13  17
HETATM   17  C   UNL     1      -9.923  16.814  66.992  1.00  0.00    -0.269 A  
HETATM   18  C   UNL     1      -8.257  18.625  67.044  1.00  0.00    -0.259 A  
HETATM   19  C   UNL     1     -10.442  17.316  68.199  1.00  0.00    -0.382 A  
HETATM   20  F   UNL     1      -8.162  20.063  68.906  1.00  0.00    -0.267 F  
HETATM   21  C   UNL     1      -9.845  18.409  68.840  1.00  0.00    -0.350 A  
HETATM   22  C   UNL     1      -8.749  19.043  68.267  1.00  0.00    -0.331 A  
HETATM   23  C   UNL     1      -8.843  17.529  66.409  1.00  0.00    -0.269 A  
ENDBRANCH  13  17
BRANCH  13  24
HETATM   24  C   UNL     1     -11.003  15.896  64.978  1.00  0.00    -0.412 C  
HETATM   25  H2  UNL     1     -11.132  17.189  63.814  1.00  0.00     0.000 HD 
HETATM   26  N   UNL     1     -11.495  16.237  63.869  1.00  0.00    -1.539 NA 
HETATM   27  H1  UNL     1     -11.894  16.512  62.971  1.00  0.00     0.000 HD 
ENDBRANCH  13  24
ENDBRANCH   4  11
BRANCH  10  28
HETATM   28  C   UNL     1     -10.788   9.013  69.871  1.00  0.00    -0.228 A  
HETATM   29  C   UNL     1     -10.373   8.187  70.936  1.00  0.00    -0.218 A  
HETATM   30  C   UNL     1     -11.764   9.975  70.191  1.00  0.00    -0.285 A  
HETATM   31  C   UNL     1     -12.045   9.087  72.426  1.00  0.00    -0.289 A  
HETATM   32  C   UNL     1     -11.008   8.200  72.183  1.00  0.00    -0.372 A  
HETATM   33  C   UNL     1     -12.401   9.996  71.438  1.00  0.00    -0.512 A  
ENDBRANCH  10  28
TORSDOF 4
ENDMDL
MODEL        3
REMARK 921   NORMALIZED FREE ENERGY PREDICTED BY IDOCK:   -7.52 KCAL/MOL
REMARK 922        TOTAL FREE ENERGY PREDICTED BY IDOCK:   -9.48 KCAL/MOL
REMARK 923 INTER-LIGAND FREE ENERGY PREDICTED BY IDOCK:   -8.87 KCAL/MOL
REMARK 924 INTRA-LIGAND FREE ENERGY PREDICTED BY IDOCK:   -0.61 KCAL/MOL
REMARK 927      BINDING AFFINITY PREDICTED BY RF-SCORE:    0.00 PKD
ROOT
HETATM    1  C   UNL     1      -9.857  10.403  64.512  1.00  0.00    -0.405 C  
HETATM    2  C   UNL     1     -10.721  10.626  65.764  1.00  0.00    -0.097 C  
HETATM    3  C   UNL     1     -11.273  12.050  65.671  1.00  0.00    -0.327 C  
HETATM    4  N   UNL     1     -12.127  12.572  66.762  1.00  0.00    -0.546 NA 
HETATM    5  C   UNL     1     -11.656  12.146  68.081  1.00  0.00    -0.337 C  
HETATM    6  O   UNL     1     -10.589   7.962  66.601  1.00  0.00    -0.276 OA 
HETATM    7  O   UNL     1      -9.055   8.321  68.185  1.00  0.00    -0.135 OA 
HETATM    8  C   UNL     1     -11.191  10.679  68.178  1.00  0.00    -0.366 C  
HETATM    9  C   UNL     1      -9.928   8.767  67.259  1.00  0.00    -0.220 C  
HETATM   10  C   UNL     1     -10.072  10.307  67.156  1.00  0.00    -0.259 C  
ENDROOT
BRANCH   4  11
HETATM   11  C   UNL     1     -12.150  14.065  66.625  1.00  0.00    -0.456 C  
HETATM   12  C   UNL     1     -10.133  14.608  68.074  1.00  0.00    -0.227 C  
HETATM   13  C   UNL     1      -9.430  15.434  66.973  1.00  0.00    -0.232 C  
HETATM   14  C   UNL     1     -11.400  14.696  65.428  1.00  0.00    -0.344 C  
HETATM   15  C   UNL     1      -9.887  14.879  65.597  1.00  0.00    -0.372 C  
HETATM   16  C   UNL     1     -11.654  14.737  67.923  1.00  0.00    -0.373 C  
BRANCH  13  17
HETATM   17  C   UNL     1      -9.737  16.945  67.260  1.00  0.00    -0.251 A  
HETATM   18  C   UNL     1     -10.385  19.137  66.348  1.00  0.00    -0.536 A  
HETATM   19  C   UNL     1      -9.470  17.582  68.485  1.00  0.00    -0.296 A  
HETATM   20  F   UNL     1     -10.127  21.067  67.672  1.00  0.00    -0.528 F  
HETATM   21  C   UNL     1      -9.601  18.970  68.619  1.00  0.00    -0.458 A  
HETATM   22  C   UNL     1     -10.041  19.737  67.547  1.00  0.00    -0.420 A  
HETATM   23  C   UNL     1     -10.244  17.755  66.210  1.00  0.00    -0.364 A  
ENDBRANCH  13  17
BRANCH  13  24
HETATM   24  C   UNL     1      -7.918  15.298  67.042  1.00  0.00    -0.208 C  
HETATM   25  H2  UNL     1      -6.501  15.633  68.002  1.00  0.00     0.000 HD 
HETATM   26  N   UNL     1      -6.664  15.186  67.099  1.00  0.00    -0.290 NA 
HETATM   27  H1  UNL     1      -5.649  15.094  67.146  1.00  0.00     0.000 HD 
ENDBRANCH  13  24
ENDBRANCH   4  11
BRANCH  10  28
HETATM   28  C   UNL     1      -8.718  11.022  67.449  1.00  0.00    -0.132 A  
HETATM   29  C   UNL     1      -7.702  11.164  66.481  1.00  0.00    -0.146 A  
HETATM   30  C   UNL     1      -8.465  11.631  68.691  1.00  0.00    -0.094 A  
HETATM   31  C   UNL     1      -6.201  12.208  68.057  1.00  0.00    -0.065 A  
HETATM   32  C   UNL     1      -6.454  11.719  66.785  1.00  0.00    -0.069 A  
HETATM   33  C   UNL     1      -7.219  12.191  69.001  1.00  0.00    -0.037 A  
ENDBRANCH  10  28
TORSDOF 4
ENDMDL
MODEL        4
REMARK 921   NORMALIZED FREE ENERGY PREDICTED BY IDOCK:   -7.51 KCAL/MOL
REMARK 922        TOTAL FREE ENERGY PREDICTED BY IDOCK:   -9.47 KCAL/MOL
REMARK 923 INTER-LIGAND FREE ENERGY PREDICTED BY IDOCK:   -8.80 KCAL/MOL
REMARK 924 INTRA-LIGAND FREE ENERGY PREDICTED BY IDOCK:   -0.67 KCAL/MOL
REMARK 927      BINDING AFFINITY PREDICTED BY RF-SCORE:    0.00 PKD
ROOT
HETATM    1  C   UNL     1      -6.995   9.240  67.335  1.00  0.00    -0.078 C  
HETATM    2  C   UNL     1      -8.492   9.496  67.091  1.00  0.00    -0.131 C  
HETATM    3  C   UNL     1      -8.733  10.985  67.349  1.00  0.00    -0.132 C  
HETATM    4  N   UNL     1     -10.102  11.533  67.223  1.00  0.00    -0.197 NA 
HETATM    5  C   UNL     1     -11.113  10.615  67.749  1.00  0.00    -0.321 C  
HETATM    6  O   UNL     1      -8.987   6.946  66.062  1.00  0.00    -0.155 OA 
HETATM    7  O   UNL     1      -9.921   6.148  67.928  1.00  0.00    -0.122 OA 
HETATM    8  C   UNL     1     -10.905   9.128  67.401  1.00  0.00    -0.140 C  
HETATM    9  C   UNL     1      -9.423   7.163  67.193  1.00  0.00    -0.147 C  
HETATM   10  C   UNL     1      -9.514   8.570  67.839  1.00  0.00    -0.157 C  
ENDROOT
BRANCH   4  11
HETATM   11  C   UNL     1     -10.112  12.854  67.933  1.00  0.00    -0.232 C  
HETATM   12  C   UNL     1      -9.504  14.346  65.967  1.00  0.00    -0.239 C  
HETATM   13  C   UNL     1     -10.728  15.271  66.153  1.00  0.00    -0.322 C  
HETATM   14  C   UNL     1     -11.456  13.614  68.033  1.00  0.00    -0.345 C  
HETATM   15  C   UNL     1     -11.863  14.436  66.804  1.00  0.00    -0.431 C  
HETATM   16  C   UNL     1      -9.056  13.804  67.330  1.00  0.00    -0.221 C  
BRANCH  13  17
HETATM   17  C   UNL     1     -10.238  16.532  66.947  1.00  0.00    -0.296 A  
HETATM   18  C   UNL     1      -8.586  18.346  67.139  1.00  0.00    -0.262 A  
HETATM   19  C   UNL     1     -10.734  16.909  68.208  1.00  0.00    -0.377 A  
HETATM   20  F   UNL     1      -8.461  19.596  69.131  1.00  0.00    -0.383 F  
HETATM   21  C   UNL     1     -10.131  17.940  68.940  1.00  0.00    -0.349 A  
HETATM   22  C   UNL     1      -9.054  18.638  68.409  1.00  0.00    -0.324 A  
HETATM   23  C   UNL     1      -9.177  17.312  66.413  1.00  0.00    -0.278 A  
ENDBRANCH  13  17
BRANCH  13  24
HETATM   24  C   UNL     1     -11.249  15.795  64.825  1.00  0.00    -0.366 C  
HETATM   25  H2  UNL     1     -10.802  16.266  63.206  1.00  0.00     0.000 HD 
HETATM   26  N   UNL     1     -11.681  16.229  63.723  1.00  0.00    -1.488 NA 
HETATM   27  H1  UNL     1     -12.031  16.580  62.832  1.00  0.00     0.000 HD 
ENDBRANCH  13  24
ENDBRANCH   4  11
BRANCH  10  28
HETATM   28  C   UNL     1      -9.349   8.493  69.386  1.00  0.00    -0.154 A  
HETATM   29  C   UNL     1     -10.416   8.707  70.282  1.00  0.00    -0.229 A  
HETATM   30  C   UNL     1      -8.123   8.134  69.974  1.00  0.00    -0.114 A  
HETATM   31  C   UNL     1      -8.982   8.486  72.210  1.00  0.00    -0.299 A  
HETATM   32  C   UNL     1     -10.234   8.734  71.669  1.00  0.00    -0.394 A  
HETATM   33  C   UNL     1      -7.933   8.156  71.363  1.00  0.00    -0.119 A  
ENDBRANCH  10  28
TORSDOF 4
ENDMDL
MODEL        5
REMARK 921   NORMALIZED FREE ENERGY PREDICTED BY IDOCK:   -7.48 KCAL/MOL
REMARK 922        TOTAL FREE ENERGY PREDICTED BY IDOCK:   -9.44 KCAL/MOL
REMARK 923 INTER-LIGAND FREE ENERGY PREDICTED BY IDOCK:   -9.36 KCAL/MOL
REMARK 924 INTRA-LIGAND FREE ENERGY PREDICTED BY IDOCK:   -0.08 KCAL/MOL
REMARK 927      BINDING AFFINITY PREDICTED BY RF-SCORE:    0.00 PKD
ROOT
HETATM    1  C   UNL     1     -11.647  10.636  68.453  1.00  0.00    -0.269 C  
HETATM    2  C   UNL     1     -10.193  10.986  68.093  1.00  0.00    -0.201 C  
HETATM    3  C   UNL     1      -9.922  12.381  68.662  1.00  0.00    -0.107 C  
HETATM    4  N   UNL     1      -8.600  13.010  68.447  1.00  0.00    -0.151 NA 
HETATM    5  C   UNL     1      -8.077  12.747  67.106  1.00  0.00    -0.129 C  
HETATM    6  O   UNL     1      -9.587   8.440  67.114  1.00  0.00    -0.158 OA 
HETATM    7  O   UNL     1      -9.748   9.005  64.958  1.00  0.00     0.094 OA 
HETATM    8  C   UNL     1      -8.276  11.309  66.586  1.00  0.00    -0.164 C  
HETATM    9  C   UNL     1      -9.712   9.326  66.268  1.00  0.00    -0.271 C  
HETATM   10  C   UNL     1      -9.765  10.842  66.591  1.00  0.00    -0.227 C  
ENDROOT
BRANCH   4  11
HETATM   11  C   UNL     1      -8.764  14.476  68.713  1.00  0.00    -0.147 C  
HETATM   12  C   UNL     1      -8.706  15.304  66.310  1.00  0.00    -0.188 C  
HETATM   13  C   UNL     1     -10.046  16.065  66.428  1.00  0.00    -0.314 C  
HETATM   14  C   UNL     1     -10.201  15.039  68.822  1.00  0.00    -0.235 C  
HETATM   15  C   UNL     1     -10.910  15.346  67.498  1.00  0.00    -0.305 C  
HETATM   16  C   UNL     1      -7.991  15.308  67.667  1.00  0.00    -0.177 C  
BRANCH  13  17
HETATM   17  C   UNL     1      -9.701  17.571  66.697  1.00  0.00    -0.303 A  
HETATM   18  C   UNL     1      -8.172  19.453  66.278  1.00  0.00    -0.338 A  
HETATM   19  C   UNL     1     -10.334  18.361  67.674  1.00  0.00    -0.427 A  
HETATM   20  F   UNL     1      -8.302  21.379  67.626  1.00  0.00    -0.172 F  
HETATM   21  C   UNL     1      -9.859  19.641  67.985  1.00  0.00    -0.524 A  
HETATM   22  C   UNL     1      -8.773  20.169  67.297  1.00  0.00    -0.348 A  
HETATM   23  C   UNL     1      -8.636  18.173  65.974  1.00  0.00    -0.016 A  
ENDBRANCH  13  17
BRANCH  13  24
HETATM   24  C   UNL     1     -10.825  16.046  65.123  1.00  0.00    -0.395 C  
HETATM   25  H2  UNL     1     -12.358  15.661  64.386  1.00  0.00     0.000 HD 
HETATM   26  N   UNL     1     -11.472  16.030  64.041  1.00  0.00    -1.266 NA 
HETATM   27  H1  UNL     1     -11.994  16.017  63.165  1.00  0.00     0.000 HD 
ENDBRANCH  13  24
ENDBRANCH   4  11
BRANCH  10  28
HETATM   28  C   UNL     1     -10.648  11.609  65.561  1.00  0.00    -0.329 A  
HETATM   29  C   UNL     1     -11.771  12.375  65.935  1.00  0.00    -0.476 A  
HETATM   30  C   UNL     1     -10.325  11.630  64.192  1.00  0.00    -0.386 A  
HETATM   31  C   UNL     1     -12.323  12.881  63.641  1.00  0.00    -0.520 A  
HETATM   32  C   UNL     1     -12.613  12.976  64.993  1.00  0.00    -0.515 A  
HETATM   33  C   UNL     1     -11.161  12.233  63.244  1.00  0.00    -0.399 A  
ENDBRANCH  10  28
TORSDOF 4
ENDMDL
MODEL        6
REMARK 921   NORMALIZED FREE ENERGY PREDICTED BY IDOCK:   -7.28 KCAL/MOL
REMARK 922        TOTAL FREE ENERGY PREDICTED BY IDOCK:   -9.19 KCAL/MOL
REMARK 923 INTER-LIGAND FREE ENERGY PREDICTED BY IDOCK:   -8.93 KCAL/MOL
REMARK 924 INTRA-LIGAND FREE ENERGY PREDICTED BY IDOCK:   -0.25 KCAL/MOL
REMARK 927      BINDING AFFINITY PREDICTED BY RF-SCORE:    0.00 PKD
ROOT
HETATM    1  C   UNL     1      -7.830   8.495  70.106  1.00  0.00    -0.099 C  
HETATM    2  C   UNL     1      -8.723   8.903  68.922  1.00  0.00    -0.136 C  
HETATM    3  C   UNL     1      -8.703  10.431  68.861  1.00  0.00    -0.157 C  
HETATM    4  N   UNL     1      -9.505  11.128  67.830  1.00  0.00    -0.165 NA 
HETATM    5  C   UNL     1     -10.806  10.490  67.620  1.00  0.00    -0.300 C  
HETATM    6  O   UNL     1      -9.059   6.290  67.989  1.00  0.00    -0.115 OA 
HETATM    7  O   UNL     1     -11.114   6.034  68.827  1.00  0.00    -0.336 OA 
HETATM    8  C   UNL     1     -10.792   8.949  67.591  1.00  0.00    -0.112 C  
HETATM    9  C   UNL     1     -10.039   6.795  68.537  1.00  0.00    -0.162 C  
HETATM   10  C   UNL     1     -10.172   8.304  68.871  1.00  0.00    -0.222 C  
ENDROOT
BRANCH   4  11
HETATM   11  C   UNL     1      -9.640  12.555  68.270  1.00  0.00    -0.209 C  
HETATM   12  C   UNL     1      -9.678  13.657  65.979  1.00  0.00    -0.239 C  
HETATM   13  C   UNL     1     -11.002  14.408  66.244  1.00  0.00    -0.318 C  
HETATM   14  C   UNL     1     -11.065  13.110  68.507  1.00  0.00    -0.296 C  
HETATM   15  C   UNL     1     -11.827  13.575  67.261  1.00  0.00    -0.427 C  
HETATM   16  C   UNL     1      -8.905  13.498  67.295  1.00  0.00    -0.225 C  
BRANCH  13  17
HETATM   17  C   UNL     1     -10.628  15.869  66.670  1.00  0.00    -0.305 A  
HETATM   18  C   UNL     1     -10.835  17.654  68.352  1.00  0.00    -0.148 A  
HETATM   19  C   UNL     1     -10.014  16.805  65.818  1.00  0.00    -0.242 A  
HETATM   20  F   UNL     1     -10.187  19.850  67.801  1.00  0.00    -0.467 F  
HETATM   21  C   UNL     1      -9.869  18.143  66.202  1.00  0.00    -0.255 A  
HETATM   22  C   UNL     1     -10.295  18.560  67.457  1.00  0.00    -0.409 A  
HETATM   23  C   UNL     1     -10.991  16.322  67.967  1.00  0.00    -0.328 A  
ENDBRANCH  13  17
BRANCH  13  24
HETATM   24  C   UNL     1     -11.836  14.545  64.981  1.00  0.00    -0.399 C  
HETATM   25  H2  UNL     1     -11.838  14.351  63.248  1.00  0.00     0.000 HD 
HETATM   26  N   UNL     1     -12.528  14.659  63.933  1.00  0.00    -1.041 NA 
HETATM   27  H1  UNL     1     -13.088  14.751  63.086  1.00  0.00     0.000 HD 
ENDBRANCH  13  24
ENDBRANCH   4  11
BRANCH  10  28
HETATM   28  C   UNL     1     -11.040   8.526  70.146  1.00  0.00    -0.192 A  
HETATM   29  C   UNL     1     -10.912   7.737  71.307  1.00  0.00    -0.259 A  
HETATM   30  C   UNL     1     -11.962   9.585  70.228  1.00  0.00    -0.040 A  
HETATM   31  C   UNL     1     -12.738   8.867  72.406  1.00  0.00    -0.436 A  
HETATM   32  C   UNL     1     -11.763   7.882  72.407  1.00  0.00    -0.423 A  
HETATM   33  C   UNL     1     -12.817   9.738  71.328  1.00  0.00    -0.472 A  
ENDBRANCH  10  28
TORSDOF 4
ENDMDL
MODEL        7
REMARK 921   NORMALIZED FREE ENERGY PREDICTED BY IDOCK:   -7.27 KCAL/MOL
REMARK 922        TOTAL FREE ENERGY PREDICTED BY IDOCK:   -9.18 KCAL/MOL
REMARK 923 INTER-LIGAND FREE ENERGY PREDICTED BY IDOCK:   -9.03 KCAL/MOL
REMARK 924 INTRA-LIGAND FREE ENERGY PREDICTED BY IDOCK:   -0.15 KCAL/MOL
REMARK 927      BINDING AFFINITY PREDICTED BY RF-SCORE:    0.00 PKD
ROOT
HETATM    1  C   UNL     1     -10.275  19.613  68.941  1.00  0.00    -0.419 C  
HETATM    2  C   UNL     1     -10.199  18.495  67.888  1.00  0.00    -0.415 C  
HETATM    3  C   UNL     1     -10.513  17.184  68.611  1.00  0.00    -0.366 C  
HETATM    4  N   UNL     1     -10.485  15.911  67.856  1.00  0.00    -0.279 NA 
HETATM    5  C   UNL     1      -9.386  15.868  66.890  1.00  0.00    -0.225 C  
HETATM    6  O   UNL     1      -9.937  20.247  65.725  1.00  0.00    -0.387 OA 
HETATM    7  O   UNL     1      -7.733  19.957  65.492  1.00  0.00    -0.358 OA 
HETATM    8  C   UNL     1      -9.144  17.171  66.102  1.00  0.00    -0.214 C  
HETATM    9  C   UNL     1      -8.920  19.629  66.044  1.00  0.00    -0.243 C  
HETATM   10  C   UNL     1      -8.900  18.417  67.010  1.00  0.00    -0.271 C  
ENDROOT
BRANCH   4  11
HETATM   11  C   UNL     1     -10.395  14.805  68.865  1.00  0.00    -0.243 C  
HETATM   12  C   UNL     1     -11.672  13.020  67.583  1.00  0.00    -0.415 C  
HETATM   13  C   UNL     1     -10.537  11.977  67.694  1.00  0.00    -0.239 C  
HETATM   14  C   UNL     1      -9.155  13.882  68.821  1.00  0.00    -0.002 C  
HETATM   15  C   UNL     1      -9.192  12.745  67.793  1.00  0.00    -0.199 C  
HETATM   16  C   UNL     1     -11.662  13.925  68.821  1.00  0.00    -0.392 C  
BRANCH  13  17
HETATM   17  C   UNL     1     -10.895  11.028  68.890  1.00  0.00    -0.262 A  
HETATM   18  C   UNL     1     -12.541  10.385  70.603  1.00  0.00    -0.435 A  
HETATM   19  C   UNL     1      -9.974  10.168  69.514  1.00  0.00    -0.257 A  
HETATM   20  F   UNL     1     -11.885   8.976  72.372  1.00  0.00    -0.418 F  
HETATM   21  C   UNL     1     -10.311   9.480  70.687  1.00  0.00    -0.369 A  
HETATM   22  C   UNL     1     -11.584   9.607  71.230  1.00  0.00    -0.393 A  
HETATM   23  C   UNL     1     -12.204  11.080  69.441  1.00  0.00    -0.329 A  
ENDBRANCH  13  17
BRANCH  13  24
HETATM   24  C   UNL     1     -10.465  11.086  66.465  1.00  0.00    -0.257 C  
HETATM   25  H2  UNL     1     -10.529  11.056  64.722  1.00  0.00     0.000 HD 
HETATM   26  N   UNL     1     -10.406  10.347  65.445  1.00  0.00    -0.247 NA 
HETATM   27  H1  UNL     1     -10.357   9.749  64.620  1.00  0.00     0.000 HD 
ENDBRANCH  13  24
ENDBRANCH   4  11
BRANCH  10  28
HETATM   28  C   UNL     1      -7.557  18.343  67.798  1.00  0.00    -0.238 A  
HETATM   29  C   UNL     1      -6.565  17.378  67.531  1.00  0.00    -0.162 A  
HETATM   30  C   UNL     1      -7.234  19.293  68.784  1.00  0.00    -0.380 A  
HETATM   31  C   UNL     1      -5.177  18.148  69.349  1.00  0.00    -0.190 A  
HETATM   32  C   UNL     1      -5.408  17.261  68.310  1.00  0.00    -0.132 A  
HETATM   33  C   UNL     1      -6.077  19.183  69.566  1.00  0.00    -0.294 A  
ENDBRANCH  10  28
TORSDOF 4
ENDMDL
MODEL        8
REMARK 921   NORMALIZED FREE ENERGY PREDICTED BY IDOCK:   -7.23 KCAL/MOL
REMARK 922        TOTAL FREE ENERGY PREDICTED BY IDOCK:   -9.13 KCAL/MOL
REMARK 923 INTER-LIGAND FREE ENERGY PREDICTED BY IDOCK:   -9.09 KCAL/MOL
REMARK 924 INTRA-LIGAND FREE ENERGY PREDICTED BY IDOCK:   -0.03 KCAL/MOL
REMARK 927      BINDING AFFINITY PREDICTED BY RF-SCORE:    0.00 PKD
ROOT
HETATM    1  C   UNL     1      -9.555  19.696  68.697  1.00  0.00    -0.457 C  
HETATM    2  C   UNL     1      -8.739  18.811  67.742  1.00  0.00    -0.309 C  
HETATM    3  C   UNL     1      -9.121  17.361  68.048  1.00  0.00    -0.259 C  
HETATM    4  N   UNL     1      -8.468  16.263  67.301  1.00  0.00    -0.171 NA 
HETATM    5  C   UNL     1      -7.045  16.521  67.074  1.00  0.00    -0.212 C  
HETATM    6  O   UNL     1      -7.749  20.954  66.246  1.00  0.00     0.096 OA 
HETATM    7  O   UNL     1      -5.728  20.955  67.199  1.00  0.00    -0.181 OA 
HETATM    8  C   UNL     1      -6.689  17.967  66.675  1.00  0.00    -0.236 C  
HETATM    9  C   UNL     1      -6.942  20.402  66.995  1.00  0.00    -0.276 C  
HETATM   10  C   UNL     1      -7.187  19.040  67.693  1.00  0.00    -0.243 C  
ENDROOT
BRANCH   4  11
HETATM   11  C   UNL     1      -8.696  15.004  68.082  1.00  0.00    -0.165 C  
HETATM   12  C   UNL     1     -11.187  14.737  67.650  1.00  0.00    -0.332 C  
HETATM   13  C   UNL     1     -11.048  13.294  67.116  1.00  0.00    -0.308 C  
HETATM   14  C   UNL     1      -8.475  13.652  67.363  1.00  0.00    -0.206 C  
HETATM   15  C   UNL     1      -9.634  13.150  66.493  1.00  0.00    -0.268 C  
HETATM   16  C   UNL     1     -10.107  15.000  68.707  1.00  0.00    -0.231 C  
BRANCH  13  17
HETATM   17  C   UNL     1     -11.398  12.326  68.299  1.00  0.00    -0.339 A  
HETATM   18  C   UNL     1     -12.369  12.067  70.546  1.00  0.00    -0.369 A  
HETATM   19  C   UNL     1     -10.940  11.000  68.392  1.00  0.00    -0.281 A  
HETATM   20  F   UNL     1     -11.992  10.080  71.752  1.00  0.00    -0.443 F  
HETATM   21  C   UNL     1     -11.140  10.248  69.557  1.00  0.00    -0.310 A  
HETATM   22  C   UNL     1     -11.837  10.792  70.629  1.00  0.00    -0.360 A  
HETATM   23  C   UNL     1     -12.160  12.822  69.391  1.00  0.00    -0.248 A  
ENDBRANCH  13  17
BRANCH  13  24
HETATM   24  C   UNL     1     -12.061  12.995  66.023  1.00  0.00    -0.432 C  
HETATM   25  H2  UNL     1     -13.428  13.622  65.139  1.00  0.00     0.000 HD 
HETATM   26  N   UNL     1     -12.902  12.748  65.117  1.00  0.00    -0.776 NA 
HETATM   27  H1  UNL     1     -13.582  12.547  64.383  1.00  0.00     0.000 HD 
ENDBRANCH  13  24
ENDBRANCH   4  11
BRANCH  10  28
HETATM   28  C   UNL     1      -6.451  18.967  69.064  1.00  0.00    -0.300 A  
HETATM   29  C   UNL     1      -5.771  17.814  69.508  1.00  0.00    -0.230 A  
HETATM   30  C   UNL     1      -6.368  20.087  69.911  1.00  0.00    -0.391 A  
HETATM   31  C   UNL     1      -5.237  18.819  71.636  1.00  0.00    -0.246 A  
HETATM   32  C   UNL     1      -5.200  17.728  70.782  1.00  0.00    -0.278 A  
HETATM   33  C   UNL     1      -5.795  20.009  71.188  1.00  0.00    -0.336 A  
ENDBRANCH  10  28
TORSDOF 4
ENDMDL
MODEL        9
REMARK 921   NORMALIZED FREE ENERGY PREDICTED BY IDOCK:   -7.21 KCAL/MOL
REMARK 922        TOTAL FREE ENERGY PREDICTED BY IDOCK:   -9.10 KCAL/MOL
REMARK 923 INTER-LIGAND FREE ENERGY PREDICTED BY IDOCK:   -9.11 KCAL/MOL
REMARK 924 INTRA-LIGAND FREE ENERGY PREDICTED BY IDOCK:    0.01 KCAL/MOL
REMARK 927      BINDING AFFINITY PREDICTED BY RF-SCORE:    0.00 PKD
ROOT
HETATM    1  C   UNL     1      -8.479   8.688  71.601  1.00  0.00    -0.230 C  
HETATM    2  C   UNL     1      -8.945   7.448  70.821  1.00  0.00    -0.151 C  
HETATM    3  C   UNL     1      -9.019   7.856  69.348  1.00  0.00    -0.145 C  
HETATM    4  N   UNL     1      -9.473   6.870  68.342  1.00  0.00    -0.129 NA 
HETATM    5  C   UNL     1     -10.575   6.044  68.840  1.00  0.00    -0.290 C  
HETATM    6  O   UNL     1      -8.752   5.723  73.011  1.00  0.00    -0.124 OA 
HETATM    7  O   UNL     1     -10.945   5.685  73.438  1.00  0.00    -0.273 OA 
HETATM    8  C   UNL     1     -10.439   5.564  70.298  1.00  0.00    -0.365 C  
HETATM    9  C   UNL     1      -9.894   6.024  72.663  1.00  0.00    -0.167 C  
HETATM   10  C   UNL     1     -10.243   6.724  71.324  1.00  0.00    -0.221 C  
ENDROOT
BRANCH   4  11
HETATM   11  C   UNL     1      -9.855   7.640  67.114  1.00  0.00    -0.202 C  
HETATM   12  C   UNL     1     -10.572   9.807  68.234  1.00  0.00    -0.271 C  
HETATM   13  C   UNL     1      -9.631  10.685  67.380  1.00  0.00    -0.180 C  
HETATM   14  C   UNL     1      -8.748   8.440  66.385  1.00  0.00    -0.159 C  
HETATM   15  C   UNL     1      -8.411   9.817  66.969  1.00  0.00    -0.117 C  
HETATM   16  C   UNL     1     -11.030   8.594  67.413  1.00  0.00     0.103 C  
BRANCH  13  17
HETATM   17  C   UNL     1     -10.490  11.288  66.215  1.00  0.00    -0.308 A  
HETATM   18  C   UNL     1     -10.701  11.709  63.800  1.00  0.00    -0.482 A  
HETATM   19  C   UNL     1     -11.616  12.108  66.412  1.00  0.00    -0.429 A  
HETATM   20  F   UNL     1     -12.330  13.221  63.023  1.00  0.00    -0.610 F  
HETATM   21  C   UNL     1     -12.231  12.758  65.335  1.00  0.00    -0.532 A  
HETATM   22  C   UNL     1     -11.760  12.567  64.042  1.00  0.00    -0.423 A  
HETATM   23  C   UNL     1     -10.080  11.070  64.873  1.00  0.00    -0.359 A  
ENDBRANCH  13  17
BRANCH  13  24
HETATM   24  C   UNL     1      -9.101  11.875  68.164  1.00  0.00    -0.190 C  
HETATM   25  H2  UNL     1      -8.646  13.556  68.064  1.00  0.00     0.000 HD 
HETATM   26  N   UNL     1      -8.662  12.863  68.813  1.00  0.00    -0.377 NA 
HETATM   27  H1  UNL     1      -8.307  13.661  69.339  1.00  0.00     0.000 HD 
ENDBRANCH  13  24
ENDBRANCH   4  11
BRANCH  10  28
HETATM   28  C   UNL     1     -11.505   7.627  71.471  1.00  0.00    -0.295 A  
HETATM   29  C   UNL     1     -12.820   7.116  71.445  1.00  0.00    -0.431 A  
HETATM   30  C   UNL     1     -11.394   9.008  71.708  1.00  0.00    -0.447 A  
HETATM   31  C   UNL     1     -13.792   9.319  71.599  1.00  0.00    -0.366 A  
HETATM   32  C   UNL     1     -13.945   7.946  71.477  1.00  0.00    -0.450 A  
HETATM   33  C   UNL     1     -12.516   9.846  71.745  1.00  0.00    -0.487 A  
ENDBRANCH  10  28
TORSDOF 4
ENDMDL
MODEL       10
REMARK 921   NORMALIZED FREE ENERGY PREDICTED BY IDOCK:   -7.18 KCAL/MOL
REMARK 922        TOTAL FREE ENERGY PREDICTED BY IDOCK:   -9.06 KCAL/MOL
REMARK 923 INTER-LIGAND FREE ENERGY PREDICTED BY IDOCK:   -8.42 KCAL/MOL
REMARK 924 INTRA-LIGAND FREE ENERGY PREDICTED BY IDOCK:   -0.64 KCAL/MOL
REMARK 927      BINDING AFFINITY PREDICTED BY RF-SCORE:    0.00 PKD
ROOT
HETATM    1  C   UNL     1     -12.443   6.851  71.494  1.00  0.00    -0.420 C  
HETATM    2  C   UNL     1     -11.276   7.845  71.615  1.00  0.00    -0.292 C  
HETATM    3  C   UNL     1     -11.329   8.740  70.375  1.00  0.00    -0.192 C  
HETATM    4  N   UNL     1     -10.301   9.789  70.190  1.00  0.00    -0.265 NA 
HETATM    5  C   UNL     1      -8.972   9.336  70.603  1.00  0.00    -0.243 C  
HETATM    6  O   UNL     1     -10.612   7.091  74.223  1.00  0.00    -0.235 OA 
HETATM    7  O   UNL     1      -8.855   5.843  73.636  1.00  0.00    -0.125 OA 
HETATM    8  C   UNL     1      -8.926   8.513  71.906  1.00  0.00    -0.301 C  
HETATM    9  C   UNL     1      -9.835   6.722  73.342  1.00  0.00    -0.205 C  
HETATM   10  C   UNL     1      -9.848   7.254  71.886  1.00  0.00    -0.180 C  
ENDROOT
BRANCH   4  11
HETATM   11  C   UNL     1     -10.338  10.190  68.746  1.00  0.00    -0.194 C  
HETATM   12  C   UNL     1     -11.431  12.469  69.014  1.00  0.00    -0.355 C  
HETATM   13  C   UNL     1     -10.316  13.213  68.245  1.00  0.00    -0.256 C  
HETATM   14  C   UNL     1      -9.099  10.906  68.159  1.00  0.00    -0.155 C  
HETATM   15  C   UNL     1      -8.998  12.413  68.425  1.00  0.00    -0.133 C  
HETATM   16  C   UNL     1     -11.585  11.050  68.452  1.00  0.00    -0.372 C  
BRANCH  13  17
HETATM   17  C   UNL     1     -10.823  13.415  66.775  1.00  0.00    -0.286 A  
HETATM   18  C   UNL     1     -12.726  13.876  65.284  1.00  0.00    -0.485 A  
HETATM   19  C   UNL     1     -10.052  13.133  65.632  1.00  0.00    -0.279 A  
HETATM   20  F   UNL     1     -12.502  13.511  62.969  1.00  0.00    -0.555 F  
HETATM   21  C   UNL     1     -10.622  13.165  64.353  1.00  0.00    -0.441 A  
HETATM   22  C   UNL     1     -11.956  13.519  64.191  1.00  0.00    -0.448 A  
HETATM   23  C   UNL     1     -12.163  13.833  66.560  1.00  0.00    -0.475 A  
ENDBRANCH  13  17
BRANCH  13  24
HETATM   24  C   UNL     1     -10.082  14.609  68.797  1.00  0.00    -0.235 C  
HETATM   25  H2  UNL     1      -9.968  15.564  70.253  1.00  0.00     0.000 HD 
HETATM   26  N   UNL     1      -9.888  15.767  69.257  1.00  0.00    -0.247 NA 
HETATM   27  H1  UNL     1      -9.731  16.705  69.627  1.00  0.00     0.000 HD 
ENDBRANCH  13  24
ENDBRANCH   4  11
BRANCH  10  28
HETATM   28  C   UNL     1      -9.367   6.164  70.881  1.00  0.00    -0.170 A  
HETATM   29  C   UNL     1      -8.166   6.272  70.151  1.00  0.00    -0.121 A  
HETATM   30  C   UNL     1     -10.085   4.968  70.700  1.00  0.00    -0.313 A  
HETATM   31  C   UNL     1      -8.589   4.222  68.949  1.00  0.00    -0.107 A  
HETATM   32  C   UNL     1      -7.795   5.335  69.180  1.00  0.00    -0.085 A  
HETATM   33  C   UNL     1      -9.718   4.024  69.731  1.00  0.00    -0.254 A  
ENDBRANCH  10  28
TORSDOF 4
ENDMDL
MODEL       11
REMARK 921   NORMALIZED FREE ENERGY PREDICTED BY IDOCK:   -7.11 KCAL/MOL
REMARK 922        TOTAL FREE ENERGY PREDICTED BY IDOCK:   -8.97 KCAL/MOL
REMARK 923 INTER-LIGAND FREE ENERGY PREDICTED BY IDOCK:   -8.42 KCAL/MOL
REMARK 924 INTRA-LIGAND FREE ENERGY PREDICTED BY IDOCK:   -0.55 KCAL/MOL
REMARK 927      BINDING AFFINITY PREDICTED BY RF-SCORE:    0.00 PKD
ROOT
HETATM    1  C   UNL     1      -9.505  10.006  64.524  1.00  0.00    -0.359 C  
HETATM    2  C   UNL     1     -10.390  10.463  65.694  1.00  0.00    -0.260 C  
HETATM    3  C   UNL     1     -10.763  11.922  65.422  1.00  0.00    -0.283 C  
HETATM    4  N   UNL     1     -11.595  12.655  66.402  1.00  0.00    -0.363 NA 
HETATM    5  C   UNL     1     -11.237  12.327  67.783  1.00  0.00    -0.276 C  
HETATM    6  O   UNL     1     -10.615   7.911  66.812  1.00  0.00    -0.326 OA 
HETATM    7  O   UNL     1      -9.120   8.265  68.435  1.00  0.00    -0.136 OA 
HETATM    8  C   UNL     1     -10.956  10.837  68.059  1.00  0.00    -0.336 C  
HETATM    9  C   UNL     1      -9.892   8.703  67.419  1.00  0.00    -0.192 C  
HETATM   10  C   UNL     1      -9.845  10.229  67.147  1.00  0.00    -0.228 C  
ENDROOT
BRANCH   4  11
HETATM   11  C   UNL     1     -11.433  14.117  66.108  1.00  0.00    -0.347 C  
HETATM   12  C   UNL     1     -10.676  14.884  68.411  1.00  0.00    -0.245 C  
HETATM   13  C   UNL     1      -9.398  15.571  67.879  1.00  0.00    -0.192 C  
HETATM   14  C   UNL     1     -10.071  14.599  65.553  1.00  0.00    -0.405 C  
HETATM   15  C   UNL     1      -8.962  14.832  66.586  1.00  0.00    -0.286 C  
HETATM   16  C   UNL     1     -11.782  14.963  67.350  1.00  0.00    -0.311 C  
BRANCH  13  17
HETATM   17  C   UNL     1      -9.716  17.100  67.743  1.00  0.00    -0.271 A  
HETATM   18  C   UNL     1      -9.648  19.113  66.328  1.00  0.00    -0.386 A  
HETATM   19  C   UNL     1     -10.100  17.922  68.818  1.00  0.00    -0.384 A  
HETATM   20  F   UNL     1     -10.012  21.227  67.299  1.00  0.00    -0.560 F  
HETATM   21  C   UNL     1     -10.196  19.311  68.664  1.00  0.00    -0.438 A  
HETATM   22  C   UNL     1      -9.954  19.896  67.428  1.00  0.00    -0.423 A  
HETATM   23  C   UNL     1      -9.540  17.730  66.482  1.00  0.00    -0.315 A  
ENDBRANCH  13  17
BRANCH  13  24
HETATM   24  C   UNL     1      -8.250  15.474  68.870  1.00  0.00    -0.201 C  
HETATM   25  H2  UNL     1      -7.793  15.660  70.543  1.00  0.00     0.000 HD 
HETATM   26  N   UNL     1      -7.298  15.393  69.692  1.00  0.00    -0.202 NA 
HETATM   27  H1  UNL     1      -6.527  15.328  70.357  1.00  0.00     0.000 HD 
ENDBRANCH  13  24
ENDBRANCH   4  11
BRANCH  10  28
HETATM   28  C   UNL     1      -8.430  10.812  67.439  1.00  0.00    -0.119 A  
HETATM   29  C   UNL     1      -8.099  11.449  68.653  1.00  0.00    -0.141 A  
HETATM   30  C   UNL     1      -7.376  10.671  66.519  1.00  0.00    -0.134 A  
HETATM   31  C   UNL     1      -5.877  11.993  67.886  1.00  0.00    -0.063 A  
HETATM   32  C   UNL     1      -6.857  12.056  68.864  1.00  0.00    -0.103 A  
HETATM   33  C   UNL     1      -6.128  11.273  66.725  1.00  0.00    -0.131 A  
ENDBRANCH  10  28
TORSDOF 4
ENDMDL
MODEL       12
REMARK 921   NORMALIZED FREE ENERGY PREDICTED BY IDOCK:   -6.97 KCAL/MOL
REMARK 922        TOTAL FREE ENERGY PREDICTED BY IDOCK:   -8.80 KCAL/MOL
REMARK 923 INTER-LIGAND FREE ENERGY PREDICTED BY IDOCK:   -9.07 KCAL/MOL
REMARK 924 INTRA-LIGAND FREE ENERGY PREDICTED BY IDOCK:    0.26 KCAL/MOL
REMARK 927      BINDING AFFINITY PREDICTED BY RF-SCORE:    0.00 PKD
ROOT
HETATM    1  C   UNL     1      -8.854   9.072  71.536  1.00  0.00    -0.167 C  
HETATM    2  C   UNL     1      -9.233   7.853  70.679  1.00  0.00    -0.157 C  
HETATM    3  C   UNL     1      -9.399   8.356  69.244  1.00  0.00    -0.154 C  
HETATM    4  N   UNL     1      -9.799   7.406  68.181  1.00  0.00    -0.151 NA 
HETATM    5  C   UNL     1     -10.800   6.446  68.649  1.00  0.00    -0.314 C  
HETATM    6  O   UNL     1      -8.798   6.000  72.727  1.00  0.00    -0.125 OA 
HETATM    7  O   UNL     1     -10.961   5.724  73.216  1.00  0.00    -0.264 OA 
HETATM    8  C   UNL     1     -10.565   5.878  70.063  1.00  0.00    -0.364 C  
HETATM    9  C   UNL     1      -9.976   6.216  72.437  1.00  0.00    -0.169 C  
HETATM   10  C   UNL     1     -10.439   6.975  71.166  1.00  0.00    -0.229 C  
ENDROOT
BRANCH   4  11
HETATM   11  C   UNL     1     -10.296   8.224  67.027  1.00  0.00    -0.323 C  
HETATM   12  C   UNL     1      -9.467  10.502  67.792  1.00  0.00    -0.162 C  
HETATM   13  C   UNL     1      -8.703  10.784  66.479  1.00  0.00    -0.154 C  
HETATM   14  C   UNL     1      -9.380   8.361  65.787  1.00  0.00    -0.141 C  
HETATM   15  C   UNL     1      -8.275   9.420  65.874  1.00  0.00    -0.115 C  
HETATM   16  C   UNL     1     -10.699   9.638  67.495  1.00  0.00    -0.321 C  
BRANCH  13  17
HETATM   17  C   UNL     1      -9.626  11.690  65.592  1.00  0.00    -0.252 A  
HETATM   18  C   UNL     1     -11.030  13.705  65.448  1.00  0.00    -0.302 A  
HETATM   19  C   UNL     1     -10.103  11.320  64.321  1.00  0.00    -0.366 A  
HETATM   20  F   UNL     1     -12.477  13.984  63.612  1.00  0.00    -0.491 F  
HETATM   21  C   UNL     1     -11.064  12.095  63.659  1.00  0.00    -0.528 A  
HETATM   22  C   UNL     1     -11.531  13.270  64.234  1.00  0.00    -0.396 A  
HETATM   23  C   UNL     1     -10.081  12.929  66.115  1.00  0.00    -0.281 A  
ENDBRANCH  13  17
BRANCH  13  24
HETATM   24  C   UNL     1      -7.439  11.593  66.722  1.00  0.00    -0.091 C  
HETATM   25  H2  UNL     1      -5.827  11.922  66.143  1.00  0.00     0.000 HD 
HETATM   26  N   UNL     1      -6.390  12.263  66.922  1.00  0.00    -0.437 NA 
HETATM   27  H1  UNL     1      -5.542  12.806  67.085  1.00  0.00     0.000 HD 
ENDBRANCH  13  24
ENDBRANCH   4  11
BRANCH  10  28
HETATM   28  C   UNL     1     -11.772   7.740  71.419  1.00  0.00    -0.310 A  
HETATM   29  C   UNL     1     -11.819   9.115  71.731  1.00  0.00    -0.453 A  
HETATM   30  C   UNL     1     -13.019   7.104  71.281  1.00  0.00    -0.378 A  
HETATM   31  C   UNL     1     -14.215   9.077  72.016  1.00  0.00    -0.384 A  
HETATM   32  C   UNL     1     -13.014   9.767  72.053  1.00  0.00    -0.515 A  
HETATM   33  C   UNL     1     -14.220   7.752  71.600  1.00  0.00    -0.572 A  
ENDBRANCH  10  28
TORSDOF 4
ENDMDL
MODEL       13
REMARK 921   NORMALIZED FREE ENERGY PREDICTED BY IDOCK:   -6.87 KCAL/MOL
REMARK 922        TOTAL FREE ENERGY PREDICTED BY IDOCK:   -8.68 KCAL/MOL
REMARK 923 INTER-LIGAND FREE ENERGY PREDICTED BY IDOCK:   -8.76 KCAL/MOL
REMARK 924 INTRA-LIGAND FREE ENERGY PREDICTED BY IDOCK:    0.08 KCAL/MOL
REMARK 927      BINDING AFFINITY PREDICTED BY RF-SCORE:    0.00 PKD
ROOT
HETATM    1  C   UNL     1     -11.170  11.093  68.833  1.00  0.00    -0.317 C  
HETATM    2  C   UNL     1      -9.716  11.088  68.335  1.00  0.00    -0.181 C  
HETATM    3  C   UNL     1      -9.167  12.499  68.563  1.00  0.00    -0.070 C  
HETATM    4  N   UNL     1      -7.782  12.816  68.149  1.00  0.00    -0.126 NA 
HETATM    5  C   UNL     1      -7.428  12.183  66.878  1.00  0.00    -0.019 C  
HETATM    6  O   UNL     1      -9.630   8.325  67.925  1.00  0.00    -0.147 OA 
HETATM    7  O   UNL     1      -9.881   8.438  65.708  1.00  0.00    -0.020 OA 
HETATM    8  C   UNL     1      -7.909  10.729  66.704  1.00  0.00    -0.140 C  
HETATM    9  C   UNL     1      -9.679   9.018  66.909  1.00  0.00    -0.200 C  
HETATM   10  C   UNL     1      -9.450  10.552  66.885  1.00  0.00    -0.191 C  
ENDROOT
BRANCH   4  11
HETATM   11  C   UNL     1      -7.675  14.310  68.086  1.00  0.00    -0.141 C  
HETATM   12  C   UNL     1     -10.082  14.836  67.458  1.00  0.00    -0.224 C  
HETATM   13  C   UNL     1     -10.287  15.815  68.635  1.00  0.00    -0.225 C  
HETATM   14  C   UNL     1      -7.892  15.110  69.392  1.00  0.00    -0.208 C  
HETATM   15  C   UNL     1      -9.348  15.376  69.790  1.00  0.00    -0.122 C  
HETATM   16  C   UNL     1      -8.617  14.877  67.003  1.00  0.00    -0.265 C  
BRANCH  13  17
HETATM   17  C   UNL     1     -10.081  17.264  68.072  1.00  0.00    -0.324 A  
HETATM   18  C   UNL     1      -9.410  19.588  68.528  1.00  0.00    -0.435 A  
HETATM   19  C   UNL     1     -10.529  17.688  66.808  1.00  0.00    -0.289 A  
HETATM   20  F   UNL     1      -9.914  21.271  66.961  1.00  0.00    -0.463 F  
HETATM   21  C   UNL     1     -10.472  19.038  66.439  1.00  0.00    -0.524 A  
HETATM   22  C   UNL     1      -9.930  19.978  67.306  1.00  0.00    -0.435 A  
HETATM   23  C   UNL     1      -9.476  18.245  68.903  1.00  0.00    -0.236 A  
ENDBRANCH  13  17
BRANCH  13  24
HETATM   24  C   UNL     1     -11.712  15.774  69.163  1.00  0.00    -0.388 C  
HETATM   25  H2  UNL     1     -13.246  14.952  69.056  1.00  0.00     0.000 HD 
HETATM   26  N   UNL     1     -12.894  15.740  69.600  1.00  0.00    -0.476 NA 
HETATM   27  H1  UNL     1     -13.850  15.712  69.955  1.00  0.00     0.000 HD 
ENDBRANCH  13  24
ENDBRANCH   4  11
BRANCH  10  28
HETATM   28  C   UNL     1     -10.278  11.230  65.752  1.00  0.00    -0.301 A  
HETATM   29  C   UNL     1     -11.457  11.962  65.999  1.00  0.00    -0.344 A  
HETATM   30  C   UNL     1      -9.847  11.202  64.414  1.00  0.00    -0.334 A  
HETATM   31  C   UNL     1     -11.844  12.335  63.646  1.00  0.00    -0.610 A  
HETATM   32  C   UNL     1     -12.245  12.480  64.965  1.00  0.00    -0.519 A  
HETATM   33  C   UNL     1     -10.628  11.722  63.374  1.00  0.00    -0.479 A  
ENDBRANCH  10  28
TORSDOF 4
ENDMDL
MODEL       14
REMARK 921   NORMALIZED FREE ENERGY PREDICTED BY IDOCK:   -6.79 KCAL/MOL
REMARK 922        TOTAL FREE ENERGY PREDICTED BY IDOCK:   -8.58 KCAL/MOL
REMARK 923 INTER-LIGAND FREE ENERGY PREDICTED BY IDOCK:   -7.89 KCAL/MOL
REMARK 924 INTRA-LIGAND FREE ENERGY PREDICTED BY IDOCK:   -0.69 KCAL/MOL
REMARK 927      BINDING AFFINITY PREDICTED BY RF-SCORE:    0.00 PKD
ROOT
HETATM    1  C   UNL     1     -11.199  16.322  69.872  1.00  0.00    -0.319 C  
HETATM    2  C   UNL     1     -11.205  16.282  68.335  1.00  0.00    -0.349 C  
HETATM    3  C   UNL     1     -11.703  14.892  67.933  1.00  0.00    -0.321 C  
HETATM    4  N   UNL     1     -11.789  14.537  66.498  1.00  0.00    -0.377 NA 
HETATM    5  C   UNL     1     -10.660  15.066  65.731  1.00  0.00    -0.339 C  
HETATM    6  O   UNL     1     -10.643  19.003  68.039  1.00  0.00    -0.376 OA 
HETATM    7  O   UNL     1      -8.480  18.715  67.557  1.00  0.00    -0.262 OA 
HETATM    8  C   UNL     1     -10.232  16.503  66.086  1.00  0.00    -0.360 C  
HETATM    9  C   UNL     1      -9.720  18.231  67.774  1.00  0.00    -0.297 C  
HETATM   10  C   UNL     1      -9.886  16.700  67.596  1.00  0.00    -0.256 C  
ENDROOT
BRANCH   4  11
HETATM   11  C   UNL     1     -11.875  13.042  66.421  1.00  0.00    -0.405 C  
HETATM   12  C   UNL     1      -9.388  12.518  66.474  1.00  0.00    -0.233 C  
HETATM   13  C   UNL     1      -9.510  11.548  67.671  1.00  0.00    -0.170 C  
HETATM   14  C   UNL     1     -12.021  12.253  67.744  1.00  0.00    -0.229 C  
HETATM   15  C   UNL     1     -10.727  11.994  68.525  1.00  0.00    -0.261 C  
HETATM   16  C   UNL     1     -10.674  12.468  65.640  1.00  0.00    -0.297 C  
BRANCH  13  17
HETATM   17  C   UNL     1      -9.555  10.094  67.087  1.00  0.00    -0.202 A  
HETATM   18  C   UNL     1     -10.429   7.803  67.296  1.00  0.00    -0.392 A  
HETATM   19  C   UNL     1      -8.702   9.628  66.069  1.00  0.00    -0.155 A  
HETATM   20  F   UNL     1      -9.463   6.071  66.027  1.00  0.00    -0.175 F  
HETATM   21  C   UNL     1      -8.673   8.273  65.717  1.00  0.00    -0.196 A  
HETATM   22  C   UNL     1      -9.523   7.370  66.343  1.00  0.00    -0.134 A  
HETATM   23  C   UNL     1     -10.452   9.151  67.656  1.00  0.00    -0.323 A  
ENDBRANCH  13  17
BRANCH  13  24
HETATM   24  C   UNL     1      -8.282  11.597  68.566  1.00  0.00    -0.144 C  
HETATM   25  H2  UNL     1      -7.502  12.457  69.868  1.00  0.00     0.000 HD 
HETATM   26  N   UNL     1      -7.264  11.638  69.308  1.00  0.00    -0.292 NA 
HETATM   27  H1  UNL     1      -6.440  11.670  69.909  1.00  0.00     0.000 HD 
ENDBRANCH  13  24
ENDBRANCH   4  11
BRANCH  10  28
HETATM   28  C   UNL     1      -8.598  15.938  68.030  1.00  0.00    -0.164 A  
HETATM   29  C   UNL     1      -8.335  15.579  69.368  1.00  0.00    -0.249 A  
HETATM   30  C   UNL     1      -7.652  15.503  67.085  1.00  0.00    -0.253 A  
HETATM   31  C   UNL     1      -6.170  14.671  68.809  1.00  0.00    -0.087 A  
HETATM   32  C   UNL     1      -7.131  14.983  69.758  1.00  0.00    -0.170 A  
HETATM   33  C   UNL     1      -6.445  14.903  67.468  1.00  0.00    -0.105 A  
ENDBRANCH  10  28
TORSDOF 4
ENDMDL
MODEL       15
REMARK 921   NORMALIZED FREE ENERGY PREDICTED BY IDOCK:   -6.68 KCAL/MOL
REMARK 922        TOTAL FREE ENERGY PREDICTED BY IDOCK:   -8.45 KCAL/MOL
REMARK 923 INTER-LIGAND FREE ENERGY PREDICTED BY IDOCK:   -8.41 KCAL/MOL
REMARK 924 INTRA-LIGAND FREE ENERGY PREDICTED BY IDOCK:   -0.04 KCAL/MOL
REMARK 927      BINDING AFFINITY PREDICTED BY RF-SCORE:    0.00 PKD
ROOT
HETATM    1  C   UNL     1     -10.625  17.408  69.121  1.00  0.00    -0.161 C  
HETATM    2  C   UNL     1     -10.521  16.488  67.893  1.00  0.00    -0.313 C  
HETATM    3  C   UNL     1     -10.725  15.057  68.395  1.00  0.00    -0.245 C  
HETATM    4  N   UNL     1     -10.649  13.932  67.436  1.00  0.00    -0.266 NA 
HETATM    5  C   UNL     1      -9.588  14.124  66.446  1.00  0.00    -0.293 C  
HETATM    6  O   UNL     1     -10.452  18.588  66.049  1.00  0.00    -0.446 OA 
HETATM    7  O   UNL     1      -8.246  18.490  65.708  1.00  0.00    -0.481 OA 
HETATM    8  C   UNL     1      -9.457  15.553  65.881  1.00  0.00    -0.377 C  
HETATM    9  C   UNL     1      -9.387  17.996  66.231  1.00  0.00    -0.206 C  
HETATM   10  C   UNL     1      -9.255  16.644  66.979  1.00  0.00    -0.234 C  
ENDROOT
BRANCH   4  11
HETATM   11  C   UNL     1     -10.451  12.683  68.241  1.00  0.00    -0.239 C  
HETATM   12  C   UNL     1     -11.110  10.983  66.470  1.00  0.00    -0.174 C  
HETATM   13  C   UNL     1      -9.796  10.180  66.600  1.00  0.00    -0.253 C  
HETATM   14  C   UNL     1      -9.041  12.046  68.260  1.00  0.00    -0.190 C  
HETATM   15  C   UNL     1      -8.683  11.157  67.063  1.00  0.00    -0.148 C  
HETATM   16  C   UNL     1     -11.471  11.601  67.826  1.00  0.00    -0.373 C  
BRANCH  13  17
HETATM   17  C   UNL     1     -10.092   8.956  67.534  1.00  0.00    -0.285 A  
HETATM   18  C   UNL     1     -11.022   6.687  67.745  1.00  0.00    -0.367 A  
HETATM   19  C   UNL     1      -9.972   8.989  68.935  1.00  0.00    -0.197 A  
HETATM   20  F   UNL     1     -11.417   5.788  69.885  1.00  0.00    -0.429 F  
HETATM   21  C   UNL     1     -10.421   7.921  69.722  1.00  0.00    -0.233 A  
HETATM   22  C   UNL     1     -10.956   6.788  69.124  1.00  0.00    -0.244 A  
HETATM   23  C   UNL     1     -10.586   7.754  66.959  1.00  0.00    -0.396 A  
ENDBRANCH  13  17
BRANCH  13  24
HETATM   24  C   UNL     1      -9.361   9.588  65.269  1.00  0.00    -0.253 C  
HETATM   25  H2  UNL     1      -9.774   9.419  63.583  1.00  0.00     0.000 HD 
HETATM   26  N   UNL     1      -9.000   9.098  64.165  1.00  0.00    -0.426 NA 
HETATM   27  H1  UNL     1      -8.707   8.702  63.272  1.00  0.00     0.000 HD 
ENDBRANCH  13  24
ENDBRANCH   4  11
BRANCH  10  28
HETATM   28  C   UNL     1      -7.881  16.532  67.704  1.00  0.00    -0.175 A  
HETATM   29  C   UNL     1      -7.518  17.355  68.790  1.00  0.00    -0.258 A  
HETATM   30  C   UNL     1      -6.945  15.543  67.351  1.00  0.00    -0.232 A  
HETATM   31  C   UNL     1      -5.307  16.396  68.916  1.00  0.00    -0.116 A  
HETATM   32  C   UNL     1      -6.244  17.311  69.368  1.00  0.00    -0.245 A  
HETATM   33  C   UNL     1      -5.669  15.491  67.927  1.00  0.00    -0.155 A  
ENDBRANCH  10  28
TORSDOF 4
ENDMDL
MODEL       16
REMARK 921   NORMALIZED FREE ENERGY PREDICTED BY IDOCK:   -6.67 KCAL/MOL
REMARK 922        TOTAL FREE ENERGY PREDICTED BY IDOCK:   -8.43 KCAL/MOL
REMARK 923 INTER-LIGAND FREE ENERGY PREDICTED BY IDOCK:   -7.98 KCAL/MOL
REMARK 924 INTRA-LIGAND FREE ENERGY PREDICTED BY IDOCK:   -0.45 KCAL/MOL
REMARK 927      BINDING AFFINITY PREDICTED BY RF-SCORE:    0.00 PKD
ROOT
HETATM    1  C   UNL     1      -7.965  13.059  67.120  1.00  0.00    -0.095 C  
HETATM    2  C   UNL     1      -9.226  13.118  67.999  1.00  0.00    -0.211 C  
HETATM    3  C   UNL     1      -9.477  11.696  68.506  1.00  0.00    -0.173 C  
HETATM    4  N   UNL     1     -10.654  11.426  69.362  1.00  0.00    -0.119 NA 
HETATM    5  C   UNL     1     -11.834  12.174  68.927  1.00  0.00    -0.304 C  
HETATM    6  O   UNL     1      -9.392  15.907  67.961  1.00  0.00    -0.199 OA 
HETATM    7  O   UNL     1     -11.030  15.995  66.444  1.00  0.00    -0.218 OA 
HETATM    8  C   UNL     1     -11.576  13.636  68.508  1.00  0.00    -0.371 C  
HETATM    9  C   UNL     1     -10.232  15.309  67.287  1.00  0.00    -0.248 C  
HETATM   10  C   UNL     1     -10.505  13.785  67.383  1.00  0.00    -0.256 C  
ENDROOT
BRANCH   4  11
HETATM   11  C   UNL     1     -10.883   9.944  69.338  1.00  0.00    -0.237 C  
HETATM   12  C   UNL     1      -8.811   9.220  70.621  1.00  0.00    -0.287 C  
HETATM   13  C   UNL     1      -9.611   8.404  71.661  1.00  0.00    -0.288 C  
HETATM   14  C   UNL     1     -11.741   9.323  70.466  1.00  0.00    -0.225 C  
HETATM   15  C   UNL     1     -11.019   9.044  71.790  1.00  0.00    -0.443 C  
HETATM   16  C   UNL     1      -9.540   9.187  69.271  1.00  0.00    -0.159 C  
BRANCH  13  17
HETATM   17  C   UNL     1      -9.559   6.902  71.211  1.00  0.00    -0.165 A  
HETATM   18  C   UNL     1      -8.179   5.022  70.424  1.00  0.00    -0.096 A  
HETATM   19  C   UNL     1     -10.698   6.121  70.945  1.00  0.00    -0.316 A  
HETATM   20  F   UNL     1      -9.223   3.111  69.529  1.00  0.00    -0.155 F  
HETATM   21  C   UNL     1     -10.580   4.846  70.377  1.00  0.00    -0.034 A  
HETATM   22  C   UNL     1      -9.325   4.315  70.107  1.00  0.00    -0.158 A  
HETATM   23  C   UNL     1      -8.294   6.297  70.979  1.00  0.00    -0.124 A  
ENDBRANCH  13  17
BRANCH  13  24
HETATM   24  C   UNL     1      -8.962   8.447  73.035  1.00  0.00    -0.172 C  
HETATM   25  H2  UNL     1      -7.498   8.822  73.906  1.00  0.00     0.000 HD 
HETATM   26  N   UNL     1      -8.423   8.484  74.174  1.00  0.00    -0.375 NA 
HETATM   27  H1  UNL     1      -7.988   8.513  75.096  1.00  0.00     0.000 HD 
ENDBRANCH  13  24
ENDBRANCH   4  11
BRANCH  10  28
HETATM   28  C   UNL     1     -10.975  13.208  66.014  1.00  0.00    -0.295 A  
HETATM   29  C   UNL     1     -12.334  13.097  65.655  1.00  0.00    -0.519 A  
HETATM   30  C   UNL     1     -10.051  12.826  65.025  1.00  0.00    -0.239 A  
HETATM   31  C   UNL     1     -11.804  12.018  63.563  1.00  0.00    -0.587 A  
HETATM   32  C   UNL     1     -12.745  12.487  64.466  1.00  0.00    -0.440 A  
HETATM   33  C   UNL     1     -10.455  12.216  63.830  1.00  0.00    -0.470 A  
ENDBRANCH  10  28
TORSDOF 4
ENDMDL
MODEL       17
REMARK 921   NORMALIZED FREE ENERGY PREDICTED BY IDOCK:   -6.61 KCAL/MOL
REMARK 922        TOTAL FREE ENERGY PREDICTED BY IDOCK:   -8.36 KCAL/MOL
REMARK 923 INTER-LIGAND FREE ENERGY PREDICTED BY IDOCK:   -7.90 KCAL/MOL
REMARK 924 INTRA-LIGAND FREE ENERGY PREDICTED BY IDOCK:   -0.46 KCAL/MOL
REMARK 927      BINDING AFFINITY PREDICTED BY RF-SCORE:    0.00 PKD
ROOT
HETATM    1  C   UNL     1      -6.902   7.214  69.792  1.00  0.00    -0.050 C  
HETATM    2  C   UNL     1      -8.048   7.547  68.822  1.00  0.00    -0.128 C  
HETATM    3  C   UNL     1      -8.109   9.072  68.718  1.00  0.00    -0.105 C  
HETATM    4  N   UNL     1      -9.145   9.703  67.870  1.00  0.00    -0.125 NA 
HETATM    5  C   UNL     1     -10.431   9.011  67.967  1.00  0.00    -0.216 C  
HETATM    6  O   UNL     1      -8.466   4.892  68.053  1.00  0.00    -0.103 OA 
HETATM    7  O   UNL     1     -10.276   4.591  69.328  1.00  0.00    -0.122 OA 
HETATM    8  C   UNL     1     -10.357   7.471  67.976  1.00  0.00    -0.254 C  
HETATM    9  C   UNL     1      -9.324   5.380  68.789  1.00  0.00    -0.128 C  
HETATM   10  C   UNL     1      -9.446   6.894  69.105  1.00  0.00    -0.142 C  
ENDROOT
BRANCH   4  11
HETATM   11  C   UNL     1      -9.243  11.138  68.293  1.00  0.00    -0.169 C  
HETATM   12  C   UNL     1      -9.903  12.147  66.055  1.00  0.00    -0.260 C  
HETATM   13  C   UNL     1     -11.159  12.848  66.620  1.00  0.00    -0.316 C  
HETATM   14  C   UNL     1     -10.592  11.638  68.862  1.00  0.00    -0.224 C  
HETATM   15  C   UNL     1     -11.662  12.019  67.832  1.00  0.00    -0.393 C  
HETATM   16  C   UNL     1      -8.822  12.074  67.140  1.00  0.00    -0.188 C  
BRANCH  13  17
HETATM   17  C   UNL     1     -10.769  14.340  66.901  1.00  0.00    -0.290 A  
HETATM   18  C   UNL     1     -10.741  16.208  68.504  1.00  0.00    -0.300 A  
HETATM   19  C   UNL     1     -10.350  15.244  65.908  1.00  0.00    -0.346 A  
HETATM   20  F   UNL     1     -10.281  18.387  67.740  1.00  0.00    -0.320 F  
HETATM   21  C   UNL     1     -10.189  16.605  66.195  1.00  0.00    -0.360 A  
HETATM   22  C   UNL     1     -10.401  17.078  67.484  1.00  0.00    -0.329 A  
HETATM   23  C   UNL     1     -10.913  14.853  68.219  1.00  0.00    -0.268 A  
ENDBRANCH  13  17
BRANCH  13  24
HETATM   24  C   UNL     1     -12.286  12.899  65.602  1.00  0.00    -0.463 C  
HETATM   25  H2  UNL     1     -13.953  12.481  65.301  1.00  0.00     0.000 HD 
HETATM   26  N   UNL     1     -13.221  12.941  64.758  1.00  0.00    -0.686 NA 
HETATM   27  H1  UNL     1     -13.978  12.975  64.074  1.00  0.00     0.000 HD 
ENDBRANCH  13  24
ENDBRANCH   4  11
BRANCH  10  28
HETATM   28  C   UNL     1     -10.024   7.128  70.533  1.00  0.00    -0.191 A  
HETATM   29  C   UNL     1     -11.354   7.537  70.764  1.00  0.00    -0.300 A  
HETATM   30  C   UNL     1      -9.256   6.875  71.684  1.00  0.00    -0.146 A  
HETATM   31  C   UNL     1     -11.007   7.685  73.147  1.00  0.00    -0.411 A  
HETATM   32  C   UNL     1     -11.831   7.840  72.044  1.00  0.00    -0.351 A  
HETATM   33  C   UNL     1      -9.729   7.173  72.969  1.00  0.00    -0.216 A  
ENDBRANCH  10  28
TORSDOF 4
ENDMDL
MODEL       18
REMARK 921   NORMALIZED FREE ENERGY PREDICTED BY IDOCK:   -6.57 KCAL/MOL
REMARK 922        TOTAL FREE ENERGY PREDICTED BY IDOCK:   -8.32 KCAL/MOL
REMARK 923 INTER-LIGAND FREE ENERGY PREDICTED BY IDOCK:   -7.81 KCAL/MOL
REMARK 924 INTRA-LIGAND FREE ENERGY PREDICTED BY IDOCK:   -0.50 KCAL/MOL
REMARK 927      BINDING AFFINITY PREDICTED BY RF-SCORE:    0.00 PKD
ROOT
HETATM    1  C   UNL     1      -6.627   6.376  68.521  1.00  0.00    -0.055 C  
HETATM    2  C   UNL     1      -7.724   6.900  67.579  1.00  0.00    -0.111 C  
HETATM    3  C   UNL     1      -7.834   8.406  67.825  1.00  0.00    -0.107 C  
HETATM    4  N   UNL     1      -8.840   9.194  67.078  1.00  0.00    -0.122 NA 
HETATM    5  C   UNL     1     -10.103   8.471  66.926  1.00  0.00    -0.294 C  
HETATM    6  O   UNL     1      -7.998   4.488  66.194  1.00  0.00    -0.098 OA 
HETATM    7  O   UNL     1      -9.869   3.860  67.241  1.00  0.00    -0.182 OA 
HETATM    8  C   UNL     1      -9.974   6.973  66.586  1.00  0.00    -0.224 C  
HETATM    9  C   UNL     1      -8.916   4.774  66.964  1.00  0.00    -0.111 C  
HETATM   10  C   UNL     1      -9.112   6.169  67.610  1.00  0.00    -0.109 C  
ENDROOT
BRANCH   4  11
HETATM   11  C   UNL     1      -9.015  10.490  67.811  1.00  0.00    -0.132 C  
HETATM   12  C   UNL     1      -9.757  11.935  65.855  1.00  0.00    -0.258 C  
HETATM   13  C   UNL     1     -11.044  12.416  66.561  1.00  0.00    -0.346 C  
HETATM   14  C   UNL     1     -10.385  10.769  68.475  1.00  0.00    -0.202 C  
HETATM   15  C   UNL     1     -11.486  11.309  67.555  1.00  0.00    -0.324 C  
HETATM   16  C   UNL     1      -8.661  11.683  66.899  1.00  0.00    -0.185 C  
BRANCH  13  17
HETATM   17  C   UNL     1     -10.738  13.828  67.171  1.00  0.00    -0.283 A  
HETATM   18  C   UNL     1     -10.970  15.350  69.091  1.00  0.00    -0.252 A  
HETATM   19  C   UNL     1     -10.221  14.908  66.433  1.00  0.00    -0.292 A  
HETATM   20  F   UNL     1     -10.480  17.638  68.824  1.00  0.00    -0.329 F  
HETATM   21  C   UNL     1     -10.138  16.189  66.993  1.00  0.00    -0.270 A  
HETATM   22  C   UNL     1     -10.528  16.403  68.309  1.00  0.00    -0.302 A  
HETATM   23  C   UNL     1     -11.065  14.075  68.531  1.00  0.00    -0.279 A  
ENDBRANCH  13  17
BRANCH  13  24
HETATM   24  C   UNL     1     -12.183  12.628  65.577  1.00  0.00    -0.440 C  
HETATM   25  H2  UNL     1     -12.617  13.291  64.023  1.00  0.00     0.000 HD 
HETATM   26  N   UNL     1     -13.127  12.805  64.761  1.00  0.00    -0.836 NA 
HETATM   27  H1  UNL     1     -13.892  12.947  64.101  1.00  0.00     0.000 HD 
ENDBRANCH  13  24
ENDBRANCH   4  11
BRANCH  10  28
HETATM   28  C   UNL     1      -9.783   6.054  69.012  1.00  0.00    -0.161 A  
HETATM   29  C   UNL     1     -11.117   6.440  69.257  1.00  0.00    -0.437 A  
HETATM   30  C   UNL     1      -9.102   5.487  70.104  1.00  0.00    -0.162 A  
HETATM   31  C   UNL     1     -10.933   5.963  71.615  1.00  0.00    -0.327 A  
HETATM   32  C   UNL     1     -11.675   6.424  70.539  1.00  0.00    -0.385 A  
HETATM   33  C   UNL     1      -9.656   5.466  71.391  1.00  0.00    -0.202 A  
ENDBRANCH  10  28
TORSDOF 4
ENDMDL
MODEL       19
REMARK 921   NORMALIZED FREE ENERGY PREDICTED BY IDOCK:   -6.57 KCAL/MOL
REMARK 922        TOTAL FREE ENERGY PREDICTED BY IDOCK:   -8.31 KCAL/MOL
REMARK 923 INTER-LIGAND FREE ENERGY PREDICTED BY IDOCK:   -8.16 KCAL/MOL
REMARK 924 INTRA-LIGAND FREE ENERGY PREDICTED BY IDOCK:   -0.15 KCAL/MOL
REMARK 927      BINDING AFFINITY PREDICTED BY RF-SCORE:    0.00 PKD
ROOT
HETATM    1  C   UNL     1      -8.714   9.616  65.957  1.00  0.00    -0.155 C  
HETATM    2  C   UNL     1      -9.886   9.881  66.917  1.00  0.00    -0.252 C  
HETATM    3  C   UNL     1      -9.895  11.386  67.197  1.00  0.00    -0.190 C  
HETATM    4  N   UNL     1     -10.903  11.947  68.123  1.00  0.00    -0.209 NA 
HETATM    5  C   UNL     1     -11.139  11.075  69.275  1.00  0.00    -0.254 C  
HETATM    6  O   UNL     1     -10.910   7.287  66.739  1.00  0.00    -0.311 OA 
HETATM    7  O   UNL     1     -10.087   6.606  68.701  1.00  0.00    -0.150 OA 
HETATM    8  C   UNL     1     -11.220   9.568  68.959  1.00  0.00     0.026 C  
HETATM    9  C   UNL     1     -10.348   7.572  67.797  1.00  0.00    -0.216 C  
HETATM   10  C   UNL     1      -9.962   9.013  68.221  1.00  0.00    -0.198 C  
ENDROOT
BRANCH   4  11
HETATM   11  C   UNL     1     -10.414  13.304  68.533  1.00  0.00    -0.250 C  
HETATM   12  C   UNL     1      -9.719  14.164  66.244  1.00  0.00    -0.315 C  
HETATM   13  C   UNL     1     -10.573  15.447  66.349  1.00  0.00    -0.307 C  
HETATM   14  C   UNL     1     -11.443  14.457  68.601  1.00  0.00    -0.316 C  
HETATM   15  C   UNL     1     -11.783  15.141  67.271  1.00  0.00    -0.169 C  
HETATM   16  C   UNL     1      -9.237  13.751  67.640  1.00  0.00    -0.207 C  
BRANCH  13  17
HETATM   17  C   UNL     1      -9.616  16.604  66.803  1.00  0.00    -0.270 A  
HETATM   18  C   UNL     1      -9.333  18.661  68.124  1.00  0.00    -0.347 A  
HETATM   19  C   UNL     1      -8.351  16.846  66.236  1.00  0.00    -0.331 A  
HETATM   20  F   UNL     1      -7.445  20.020  67.766  1.00  0.00    -0.297 F  
HETATM   21  C   UNL     1      -7.625  17.999  66.562  1.00  0.00    -0.279 A  
HETATM   22  C   UNL     1      -8.128  18.903  67.489  1.00  0.00    -0.260 A  
HETATM   23  C   UNL     1     -10.064  17.519  67.792  1.00  0.00    -0.330 A  
ENDBRANCH  13  17
BRANCH  13  24
HETATM   24  C   UNL     1     -11.124  15.872  64.998  1.00  0.00    -0.360 C  
HETATM   25  H2  UNL     1     -12.122  15.388  63.651  1.00  0.00     0.000 HD 
HETATM   26  N   UNL     1     -11.582  16.224  63.877  1.00  0.00    -1.573 NA 
HETATM   27  H1  UNL     1     -11.952  16.509  62.970  1.00  0.00     0.000 HD 
ENDBRANCH  13  24
ENDBRANCH   4  11
BRANCH  10  28
HETATM   28  C   UNL     1      -8.683   9.017  69.110  1.00  0.00    -0.135 A  
HETATM   29  C   UNL     1      -7.382   8.891  68.582  1.00  0.00    -0.077 A  
HETATM   30  C   UNL     1      -8.758   9.217  70.501  1.00  0.00    -0.276 A  
HETATM   31  C   UNL     1      -6.376   8.885  70.775  1.00  0.00    -0.049 A  
HETATM   32  C   UNL     1      -6.249   8.796  69.398  1.00  0.00    -0.041 A  
HETATM   33  C   UNL     1      -7.628   9.127  71.324  1.00  0.00    -0.064 A  
ENDBRANCH  10  28
TORSDOF 4
ENDMDL
MODEL       20
REMARK 921   NORMALIZED FREE ENERGY PREDICTED BY IDOCK:   -6.55 KCAL/MOL
REMARK 922        TOTAL FREE ENERGY PREDICTED BY IDOCK:   -8.29 KCAL/MOL
REMARK 923 INTER-LIGAND FREE ENERGY PREDICTED BY IDOCK:   -8.35 KCAL/MOL
REMARK 924 INTRA-LIGAND FREE ENERGY PREDICTED BY IDOCK:    0.06 KCAL/MOL
REMARK 927      BINDING AFFINITY PREDICTED BY RF-SCORE:    0.00 PKD
ROOT
HETATM    1  C   UNL     1     -12.523  14.001  65.792  1.00  0.00    -0.523 C  
HETATM    2  C   UNL     1     -10.996  14.066  65.958  1.00  0.00    -0.298 C  
HETATM    3  C   UNL     1     -10.547  12.691  66.455  1.00  0.00    -0.253 C  
HETATM    4  N   UNL     1      -9.114  12.452  66.741  1.00  0.00    -0.210 NA 
HETATM    5  C   UNL     1      -8.480  13.608  67.377  1.00  0.00    -0.201 C  
HETATM    6  O   UNL     1     -10.750  16.581  64.762  1.00  0.00    -0.719 OA 
HETATM    7  O   UNL     1     -10.523  17.700  66.682  1.00  0.00    -0.335 OA 
HETATM    8  C   UNL     1      -8.873  14.982  66.800  1.00  0.00    -0.299 C  
HETATM    9  C   UNL     1     -10.598  16.549  65.984  1.00  0.00    -0.253 C  
HETATM   10  C   UNL     1     -10.411  15.248  66.808  1.00  0.00    -0.279 C  
ENDROOT
BRANCH   4  11
HETATM   11  C   UNL     1      -9.037  11.223  67.596  1.00  0.00    -0.149 C  
HETATM   12  C   UNL     1     -10.011   9.552  65.946  1.00  0.00    -0.342 C  
HETATM   13  C   UNL     1      -8.809   8.587  66.049  1.00  0.00    -0.208 C  
HETATM   14  C   UNL     1      -7.723  10.405  67.575  1.00  0.00    -0.094 C  
HETATM   15  C   UNL     1      -7.553   9.427  66.406  1.00  0.00    -0.097 C  
HETATM   16  C   UNL     1     -10.211  10.270  67.287  1.00  0.00    -0.267 C  
BRANCH  13  17
HETATM   17  C   UNL     1      -9.209   7.455  67.056  1.00  0.00    -0.169 A  
HETATM   18  C   UNL     1     -11.010   6.092  68.034  1.00  0.00    -0.399 A  
HETATM   19  C   UNL     1      -8.339   6.920  68.024  1.00  0.00    -0.121 A  
HETATM   20  F   UNL     1     -10.590   4.835  69.980  1.00  0.00    -0.318 F  
HETATM   21  C   UNL     1      -8.809   6.040  69.007  1.00  0.00    -0.121 A  
HETATM   22  C   UNL     1     -10.141   5.647  69.014  1.00  0.00    -0.195 A  
HETATM   23  C   UNL     1     -10.547   6.978  67.060  1.00  0.00    -0.412 A  
ENDBRANCH  13  17
BRANCH  13  24
HETATM   24  C   UNL     1      -8.530   7.888  64.728  1.00  0.00     0.007 C  
HETATM   25  H2  UNL     1      -9.239   7.333  63.234  1.00  0.00     0.000 HD 
HETATM   26  N   UNL     1      -8.300   7.307  63.633  1.00  0.00    -0.360 NA 
HETATM   27  H1  UNL     1      -8.113   6.838  62.747  1.00  0.00     0.000 HD 
ENDBRANCH  13  24
ENDBRANCH   4  11
BRANCH  10  28
HETATM   28  C   UNL     1     -10.995  15.400  68.244  1.00  0.00    -0.288 A  
HETATM   29  C   UNL     1     -12.033  14.583  68.739  1.00  0.00    -0.315 A  
HETATM   30  C   UNL     1     -10.464  16.330  69.156  1.00  0.00    -0.280 A  
HETATM   31  C   UNL     1     -12.138  15.797  70.822  1.00  0.00    -0.448 A  
HETATM   32  C   UNL     1     -12.616  14.794  69.993  1.00  0.00    -0.268 A  
HETATM   33  C   UNL     1     -11.041  16.544  70.415  1.00  0.00    -0.138 A  
ENDBRANCH  10  28
TORSDOF 4
ENDMDL
MODEL       21
REMARK 921   NORMALIZED FREE ENERGY PREDICTED BY IDOCK:   -6.54 KCAL/MOL
REMARK 922        TOTAL FREE ENERGY PREDICTED BY IDOCK:   -8.28 KCAL/MOL
REMARK 923 INTER-LIGAND FREE ENERGY PREDICTED BY IDOCK:   -7.71 KCAL/MOL
REMARK 924 INTRA-LIGAND FREE ENERGY PREDICTED BY IDOCK:   -0.57 KCAL/MOL
REMARK 927      BINDING AFFINITY PREDICTED BY RF-SCORE:    0.00 PKD
ROOT
HETATM    1  C   UNL     1     -12.238  13.674  65.694  1.00  0.00    -0.490 C  
HETATM    2  C   UNL     1     -10.721  13.866  65.854  1.00  0.00    -0.286 C  
HETATM    3  C   UNL     1     -10.130  12.487  66.155  1.00  0.00    -0.251 C  
HETATM    4  N   UNL     1      -8.675  12.355  66.393  1.00  0.00    -0.059 NA 
HETATM    5  C   UNL     1      -8.142  13.471  67.176  1.00  0.00    -0.082 C  
HETATM    6  O   UNL     1     -10.746  16.532  65.013  1.00  0.00    -0.662 OA 
HETATM    7  O   UNL     1     -10.587  17.397  67.066  1.00  0.00    -0.316 OA 
HETATM    8  C   UNL     1      -8.679  14.865  66.796  1.00  0.00    -0.278 C  
HETATM    9  C   UNL     1     -10.566  16.349  66.218  1.00  0.00    -0.242 C  
HETATM   10  C   UNL     1     -10.235  14.974  66.853  1.00  0.00    -0.258 C  
ENDROOT
BRANCH   4  11
HETATM   11  C   UNL     1      -8.460  11.035  67.071  1.00  0.00    -0.141 C  
HETATM   12  C   UNL     1      -9.817  11.465  69.177  1.00  0.00     0.033 C  
HETATM   13  C   UNL     1     -10.686  10.200  69.004  1.00  0.00    -0.249 C  
HETATM   14  C   UNL     1      -9.435   9.880  66.737  1.00  0.00    -0.212 C  
HETATM   15  C   UNL     1     -10.772   9.883  67.487  1.00  0.00    -0.333 C  
HETATM   16  C   UNL     1      -8.417  11.211  68.603  1.00  0.00    -0.153 C  
BRANCH  13  17
HETATM   17  C   UNL     1     -10.071   9.087  69.922  1.00  0.00    -0.213 A  
HETATM   18  C   UNL     1      -9.315   8.441  72.174  1.00  0.00    -0.339 A  
HETATM   19  C   UNL     1      -9.512   7.889  69.439  1.00  0.00    -0.156 A  
HETATM   20  F   UNL     1      -8.020   6.495  72.450  1.00  0.00    -0.099 F  
HETATM   21  C   UNL     1      -8.821   7.021  70.294  1.00  0.00    -0.148 A  
HETATM   22  C   UNL     1      -8.714   7.311  71.648  1.00  0.00    -0.117 A  
HETATM   23  C   UNL     1      -9.994   9.314  71.322  1.00  0.00    -0.341 A  
ENDBRANCH  13  17
BRANCH  13  24
HETATM   24  C   UNL     1     -12.104  10.414  69.507  1.00  0.00    -0.054 C  
HETATM   25  H2  UNL     1     -13.758  10.691  69.028  1.00  0.00     0.000 HD 
HETATM   26  N   UNL     1     -13.281  10.592  69.924  1.00  0.00    -0.420 NA 
HETATM   27  H1  UNL     1     -14.232  10.735  70.262  1.00  0.00     0.000 HD 
ENDBRANCH  13  24
ENDBRANCH   4  11
BRANCH  10  28
HETATM   28  C   UNL     1     -10.800  14.871  68.302  1.00  0.00    -0.257 A  
HETATM   29  C   UNL     1     -11.955  14.128  68.623  1.00  0.00    -0.373 A  
HETATM   30  C   UNL     1     -10.138  15.468  69.390  1.00  0.00    -0.266 A  
HETATM   31  C   UNL     1     -11.887  14.820  70.934  1.00  0.00    -0.379 A  
HETATM   32  C   UNL     1     -12.508  14.124  69.908  1.00  0.00    -0.313 A  
HETATM   33  C   UNL     1     -10.685  15.466  70.680  1.00  0.00    -0.255 A  
ENDBRANCH  10  28
TORSDOF 4
ENDMDL
MODEL       22
REMARK 921   NORMALIZED FREE ENERGY PREDICTED BY IDOCK:   -6.52 KCAL/MOL
REMARK 922        TOTAL FREE ENERGY PREDICTED BY IDOCK:   -8.25 KCAL/MOL
REMARK 923 INTER-LIGAND FREE ENERGY PREDICTED BY IDOCK:   -7.86 KCAL/MOL
REMARK 924 INTRA-LIGAND FREE ENERGY PREDICTED BY IDOCK:   -0.38 KCAL/MOL
REMARK 927      BINDING AFFINITY PREDICTED BY RF-SCORE:    0.00 PKD
ROOT
HETATM    1  C   UNL     1     -12.341   6.607  72.051  1.00  0.00    -0.316 C  
HETATM    2  C   UNL     1     -11.287   7.706  71.836  1.00  0.00    -0.308 C  
HETATM    3  C   UNL     1     -11.704   8.479  70.583  1.00  0.00    -0.144 C  
HETATM    4  N   UNL     1     -10.857   9.592  70.099  1.00  0.00    -0.259 NA 
HETATM    5  C   UNL     1      -9.430   9.295  70.229  1.00  0.00    -0.238 C  
HETATM    6  O   UNL     1      -9.991   7.249  74.270  1.00  0.00    -0.207 OA 
HETATM    7  O   UNL     1      -8.285   6.110  73.384  1.00  0.00    -0.113 OA 
HETATM    8  C   UNL     1      -9.013   8.599  71.540  1.00  0.00    -0.302 C  
HETATM    9  C   UNL     1      -9.392   6.870  73.262  1.00  0.00    -0.145 C  
HETATM   10  C   UNL     1      -9.780   7.267  71.814  1.00  0.00    -0.167 C  
ENDROOT
BRANCH   4  11
HETATM   11  C   UNL     1     -11.253   9.857  68.677  1.00  0.00    -0.068 C  
HETATM   12  C   UNL     1      -9.962  12.019  68.323  1.00  0.00    -0.203 C  
HETATM   13  C   UNL     1      -9.233  11.502  67.062  1.00  0.00    -0.180 C  
HETATM   14  C   UNL     1     -10.399   9.220  67.555  1.00  0.00    -0.323 C  
HETATM   15  C   UNL     1      -9.109   9.959  67.182  1.00  0.00    -0.154 C  
HETATM   16  C   UNL     1     -11.351  11.375  68.414  1.00  0.00    -0.346 C  
BRANCH  13  17
HETATM   17  C   UNL     1     -10.014  12.051  65.818  1.00  0.00    -0.266 A  
HETATM   18  C   UNL     1     -11.164  13.957  64.770  1.00  0.00    -0.369 A  
HETATM   19  C   UNL     1     -10.491  11.243  64.770  1.00  0.00    -0.384 A  
HETATM   20  F   UNL     1     -12.510  13.600  62.871  1.00  0.00    -0.483 F  
HETATM   21  C   UNL     1     -11.333  11.769  63.782  1.00  0.00    -0.524 A  
HETATM   22  C   UNL     1     -11.675  13.115  63.798  1.00  0.00    -0.461 A  
HETATM   23  C   UNL     1     -10.335  13.433  65.763  1.00  0.00    -0.296 A  
ENDBRANCH  13  17
BRANCH  13  24
HETATM   24  C   UNL     1      -7.826  12.066  66.950  1.00  0.00    -0.095 C  
HETATM   25  H2  UNL     1      -6.846  13.312  66.222  1.00  0.00     0.000 HD 
HETATM   26  N   UNL     1      -6.660  12.535  66.856  1.00  0.00    -0.457 NA 
HETATM   27  H1  UNL     1      -5.716  12.914  66.781  1.00  0.00     0.000 HD 
ENDBRANCH  13  24
ENDBRANCH   4  11
BRANCH  10  28
HETATM   28  C   UNL     1      -9.421   6.138  70.803  1.00  0.00    -0.184 A  
HETATM   29  C   UNL     1     -10.006   4.856  70.846  1.00  0.00    -0.287 A  
HETATM   30  C   UNL     1      -8.530   6.365  69.738  1.00  0.00    -0.127 A  
HETATM   31  C   UNL     1      -8.637   4.053  69.028  1.00  0.00    -0.113 A  
HETATM   32  C   UNL     1      -9.603   3.821  69.995  1.00  0.00    -0.259 A  
HETATM   33  C   UNL     1      -8.123   5.334  68.881  1.00  0.00    -0.086 A  
ENDBRANCH  10  28
TORSDOF 4
ENDMDL
MODEL       23
REMARK 921   NORMALIZED FREE ENERGY PREDICTED BY IDOCK:   -6.47 KCAL/MOL
REMARK 922        TOTAL FREE ENERGY PREDICTED BY IDOCK:   -8.19 KCAL/MOL
REMARK 923 INTER-LIGAND FREE ENERGY PREDICTED BY IDOCK:   -7.90 KCAL/MOL
REMARK 924 INTRA-LIGAND FREE ENERGY PREDICTED BY IDOCK:   -0.29 KCAL/MOL
REMARK 927      BINDING AFFINITY PREDICTED BY RF-SCORE:    0.00 PKD
ROOT
HETATM    1  C   UNL     1      -8.696   9.240  65.133  1.00  0.00    -0.216 C  
HETATM    2  C   UNL     1      -9.705   9.947  66.053  1.00  0.00    -0.310 C  
HETATM    3  C   UNL     1      -9.512  11.451  65.846  1.00  0.00    -0.228 C  
HETATM    4  N   UNL     1     -10.331  12.404  66.628  1.00  0.00    -0.224 NA 
HETATM    5  C   UNL     1     -10.521  11.962  68.010  1.00  0.00    -0.208 C  
HETATM    6  O   UNL     1     -11.025   7.594  66.784  1.00  0.00    -0.183 OA 
HETATM    7  O   UNL     1     -10.050   7.425  68.787  1.00  0.00    -0.169 OA 
HETATM    8  C   UNL     1     -10.807  10.458  68.193  1.00  0.00    -0.311 C  
HETATM    9  C   UNL     1     -10.310   8.101  67.649  1.00  0.00    -0.247 C  
HETATM   10  C   UNL     1      -9.718   9.532  67.566  1.00  0.00    -0.194 C  
ENDROOT
BRANCH   4  11
HETATM   11  C   UNL     1      -9.648  13.736  66.549  1.00  0.00    -0.285 C  
HETATM   12  C   UNL     1     -11.480  15.162  67.586  1.00  0.00    -0.319 C  
HETATM   13  C   UNL     1     -10.546  15.773  68.656  1.00  0.00    -0.250 C  
HETATM   14  C   UNL     1      -8.728  14.151  67.722  1.00  0.00    -0.182 C  
HETATM   15  C   UNL     1      -9.424  14.743  68.953  1.00  0.00    -0.191 C  
HETATM   16  C   UNL     1     -10.677  14.862  66.314  1.00  0.00    -0.320 C  
BRANCH  13  17
HETATM   17  C   UNL     1     -10.091  17.177  68.126  1.00  0.00    -0.311 A  
HETATM   18  C   UNL     1      -8.467  19.020  68.274  1.00  0.00    -0.366 A  
HETATM   19  C   UNL     1     -10.869  17.988  67.281  1.00  0.00    -0.214 A  
HETATM   20  F   UNL     1      -8.955  21.082  67.247  1.00  0.00    -0.442 F  
HETATM   21  C   UNL     1     -10.484  19.303  66.989  1.00  0.00    -0.556 A  
HETATM   22  C   UNL     1      -9.297  19.813  67.500  1.00  0.00    -0.340 A  
HETATM   23  C   UNL     1      -8.855  17.714  68.575  1.00  0.00    -0.285 A  
ENDBRANCH  13  17
BRANCH  13  24
HETATM   24  C   UNL     1     -11.279  16.040  69.960  1.00  0.00    -0.362 C  
HETATM   25  H2  UNL     1     -12.821  15.950  70.772  1.00  0.00     0.000 HD 
HETATM   26  N   UNL     1     -11.887  16.261  71.042  1.00  0.00    -0.590 NA 
HETATM   27  H1  UNL     1     -12.379  16.441  71.918  1.00  0.00     0.000 HD 
ENDBRANCH  13  24
ENDBRANCH   4  11
BRANCH  10  28
HETATM   28  C   UNL     1      -8.347   9.620  68.302  1.00  0.00    -0.117 A  
HETATM   29  C   UNL     1      -8.194  10.223  69.567  1.00  0.00    -0.165 A  
HETATM   30  C   UNL     1      -7.188   9.034  67.762  1.00  0.00    -0.083 A  
HETATM   31  C   UNL     1      -5.804   9.891  69.554  1.00  0.00    -0.037 A  
HETATM   32  C   UNL     1      -6.943  10.384  70.172  1.00  0.00    -0.146 A  
HETATM   33  C   UNL     1      -5.932   9.188  68.364  1.00  0.00    -0.045 A  
ENDBRANCH  10  28
TORSDOF 4
ENDMDL
MODEL       24
REMARK 921   NORMALIZED FREE ENERGY PREDICTED BY IDOCK:   -6.43 KCAL/MOL
REMARK 922        TOTAL FREE ENERGY PREDICTED BY IDOCK:   -8.15 KCAL/MOL
REMARK 923 INTER-LIGAND FREE ENERGY PREDICTED BY IDOCK:   -7.67 KCAL/MOL
REMARK 924 INTRA-LIGAND FREE ENERGY PREDICTED BY IDOCK:   -0.48 KCAL/MOL
REMARK 927      BINDING AFFINITY PREDICTED BY RF-SCORE:    0.00 PKD
ROOT
HETATM    1  C   UNL     1      -5.891   8.128  67.336  1.00  0.00    -0.043 C  
HETATM    2  C   UNL     1      -6.917   8.905  66.495  1.00  0.00    -0.080 C  
HETATM    3  C   UNL     1      -7.461  10.024  67.386  1.00  0.00    -0.091 C  
HETATM    4  N   UNL     1      -8.502  10.934  66.858  1.00  0.00    -0.131 NA 
HETATM    5  C   UNL     1      -9.486  10.227  66.037  1.00  0.00    -0.185 C  
HETATM    6  O   UNL     1      -6.311   7.571  64.115  1.00  0.00    -0.047 OA 
HETATM    7  O   UNL     1      -8.095   6.227  64.173  1.00  0.00    -0.118 OA 
HETATM    8  C   UNL     1      -8.911   9.167  65.077  1.00  0.00    -0.230 C  
HETATM    9  C   UNL     1      -7.386   7.275  64.639  1.00  0.00    -0.079 C  
HETATM   10  C   UNL     1      -8.048   8.078  65.788  1.00  0.00    -0.121 C  
ENDROOT
BRANCH   4  11
HETATM   11  C   UNL     1      -9.132  11.611  68.039  1.00  0.00    -0.177 C  
HETATM   12  C   UNL     1     -10.048  13.664  66.853  1.00  0.00    -0.260 C  
HETATM   13  C   UNL     1     -11.490  13.449  67.365  1.00  0.00    -0.368 C  
HETATM   14  C   UNL     1     -10.588  11.231  68.402  1.00  0.00    -0.226 C  
HETATM   15  C   UNL     1     -11.691  11.927  67.597  1.00  0.00    -0.346 C  
HETATM   16  C   UNL     1      -9.049  13.145  67.894  1.00  0.00    -0.207 C  
BRANCH  13  17
HETATM   17  C   UNL     1     -11.684  14.382  68.610  1.00  0.00    -0.367 A  
HETATM   18  C   UNL     1     -11.157  16.529  69.691  1.00  0.00    -0.235 A  
HETATM   19  C   UNL     1     -12.282  13.972  69.815  1.00  0.00    -0.396 A  
HETATM   20  F   UNL     1     -11.642  16.829  71.976  1.00  0.00    -0.502 F  
HETATM   21  C   UNL     1     -12.264  14.799  70.945  1.00  0.00    -0.384 A  
HETATM   22  C   UNL     1     -11.688  16.061  70.880  1.00  0.00    -0.402 A  
HETATM   23  C   UNL     1     -11.163  15.703  68.566  1.00  0.00    -0.342 A  
ENDBRANCH  13  17
BRANCH  13  24
HETATM   24  C   UNL     1     -12.526  13.896  66.346  1.00  0.00    -0.370 C  
HETATM   25  H2  UNL     1     -13.914  14.919  66.083  1.00  0.00     0.000 HD 
HETATM   26  N   UNL     1     -13.385  14.268  65.502  1.00  0.00    -0.615 NA 
HETATM   27  H1  UNL     1     -14.080  14.569  64.819  1.00  0.00     0.000 HD 
ENDBRANCH  13  24
ENDBRANCH   4  11
BRANCH  10  28
HETATM   28  C   UNL     1      -8.885   7.149  66.718  1.00  0.00    -0.137 A  
HETATM   29  C   UNL     1     -10.295   7.165  66.748  1.00  0.00    -0.297 A  
HETATM   30  C   UNL     1      -8.269   6.187  67.538  1.00  0.00    -0.109 A  
HETATM   31  C   UNL     1     -10.381   5.540  68.530  1.00  0.00    -0.247 A  
HETATM   32  C   UNL     1     -11.032   6.398  67.657  1.00  0.00    -0.441 A  
HETATM   33  C   UNL     1      -9.001   5.413  68.449  1.00  0.00    -0.113 A  
ENDBRANCH  10  28
TORSDOF 4
ENDMDL
MODEL       25
REMARK 921   NORMALIZED FREE ENERGY PREDICTED BY IDOCK:   -6.38 KCAL/MOL
REMARK 922        TOTAL FREE ENERGY PREDICTED BY IDOCK:   -8.08 KCAL/MOL
REMARK 923 INTER-LIGAND FREE ENERGY PREDICTED BY IDOCK:   -7.61 KCAL/MOL
REMARK 924 INTRA-LIGAND FREE ENERGY PREDICTED BY IDOCK:   -0.47 KCAL/MOL
REMARK 927      BINDING AFFINITY PREDICTED BY RF-SCORE:    0.00 PKD
ROOT
HETATM    1  C   UNL     1      -9.871   8.642  66.116  1.00  0.00    -0.269 C  
HETATM    2  C   UNL     1     -10.528   9.325  67.327  1.00  0.00    -0.334 C  
HETATM    3  C   UNL     1     -11.050  10.679  66.842  1.00  0.00    -0.090 C  
HETATM    4  N   UNL     1     -11.713  11.590  67.801  1.00  0.00    -0.577 NA 
HETATM    5  C   UNL     1     -11.058  11.582  69.110  1.00  0.00    -0.259 C  
HETATM    6  O   UNL     1     -10.340   7.077  68.977  1.00  0.00    -0.187 OA 
HETATM    7  O   UNL     1      -8.573   7.814  70.129  1.00  0.00    -0.135 OA 
HETATM    8  C   UNL     1     -10.623  10.196  69.626  1.00  0.00    -0.286 C  
HETATM    9  C   UNL     1      -9.566   7.999  69.234  1.00  0.00    -0.157 C  
HETATM   10  C   UNL     1      -9.683   9.428  68.645  1.00  0.00    -0.160 C  
ENDROOT
BRANCH   4  11
HETATM   11  C   UNL     1     -11.717  12.954  67.179  1.00  0.00    -0.377 C  
HETATM   12  C   UNL     1     -10.601  14.235  69.071  1.00  0.00    -0.243 C  
HETATM   13  C   UNL     1      -9.499  14.827  68.163  1.00  0.00    -0.208 C  
HETATM   14  C   UNL     1     -10.523  13.344  66.276  1.00  0.00    -0.289 C  
HETATM   15  C   UNL     1      -9.260  13.834  66.995  1.00  0.00    -0.256 C  
HETATM   16  C   UNL     1     -11.889  14.043  68.259  1.00  0.00    -0.406 C  
BRANCH  13  17
HETATM   17  C   UNL     1      -9.950  16.277  67.774  1.00  0.00    -0.246 A  
HETATM   18  C   UNL     1     -10.396  17.895  65.974  1.00  0.00    -0.318 A  
HETATM   19  C   UNL     1     -10.096  17.329  68.696  1.00  0.00    -0.341 A  
HETATM   20  F   UNL     1     -10.642  20.177  66.498  1.00  0.00    -0.538 F  
HETATM   21  C   UNL     1     -10.327  18.641  68.262  1.00  0.00    -0.388 A  
HETATM   22  C   UNL     1     -10.458  18.916  66.906  1.00  0.00    -0.427 A  
HETATM   23  C   UNL     1     -10.154  16.590  66.403  1.00  0.00    -0.323 A  
ENDBRANCH  13  17
BRANCH  13  24
HETATM   24  C   UNL     1      -8.182  14.987  68.904  1.00  0.00    -0.178 C  
HETATM   25  H2  UNL     1      -6.899  14.138  69.727  1.00  0.00     0.000 HD 
HETATM   26  N   UNL     1      -7.089  15.119  69.518  1.00  0.00    -0.183 NA 
HETATM   27  H1  UNL     1      -6.204  15.227  70.015  1.00  0.00     0.000 HD 
ENDBRANCH  13  24
ENDBRANCH   4  11
BRANCH  10  28
HETATM   28  C   UNL     1      -8.282  10.095  68.497  1.00  0.00    -0.111 A  
HETATM   29  C   UNL     1      -7.707  10.902  69.500  1.00  0.00    -0.022 A  
HETATM   30  C   UNL     1      -7.479   9.867  67.365  1.00  0.00    -0.091 A  
HETATM   31  C   UNL     1      -5.784  11.414  68.137  1.00  0.00    -0.045 A  
HETATM   32  C   UNL     1      -6.495  11.575  69.316  1.00  0.00    -0.103 A  
HETATM   33  C   UNL     1      -6.262  10.535  67.174  1.00  0.00    -0.063 A  
ENDBRANCH  10  28
TORSDOF 4
ENDMDL
MODEL       26
REMARK 921   NORMALIZED FREE ENERGY PREDICTED BY IDOCK:   -6.35 KCAL/MOL
REMARK 922        TOTAL FREE ENERGY PREDICTED BY IDOCK:   -8.04 KCAL/MOL
REMARK 923 INTER-LIGAND FREE ENERGY PREDICTED BY IDOCK:   -7.47 KCAL/MOL
REMARK 924 INTRA-LIGAND FREE ENERGY PREDICTED BY IDOCK:   -0.57 KCAL/MOL
REMARK 927      BINDING AFFINITY PREDICTED BY RF-SCORE:    0.00 PKD
ROOT
HETATM    1  C   UNL     1      -6.634   6.760  69.333  1.00  0.00    -0.048 C  
HETATM    2  C   UNL     1      -7.749   6.614  68.284  1.00  0.00    -0.105 C  
HETATM    3  C   UNL     1      -7.715   7.881  67.426  1.00  0.00    -0.109 C  
HETATM    4  N   UNL     1      -8.704   8.049  66.337  1.00  0.00    -0.143 NA 
HETATM    5  C   UNL     1     -10.030   7.562  66.718  1.00  0.00    -0.237 C  
HETATM    6  O   UNL     1      -8.321   3.957  68.935  1.00  0.00    -0.072 OA 
HETATM    7  O   UNL     1     -10.157   4.427  70.118  1.00  0.00    -0.217 OA 
HETATM    8  C   UNL     1     -10.050   6.235  67.502  1.00  0.00    -0.186 C  
HETATM    9  C   UNL     1      -9.154   4.791  69.293  1.00  0.00    -0.105 C  
HETATM   10  C   UNL     1      -9.187   6.261  68.802  1.00  0.00    -0.125 C  
ENDROOT
BRANCH   4  11
HETATM   11  C   UNL     1      -8.717   9.505  65.978  1.00  0.00    -0.147 C  
HETATM   12  C   UNL     1     -10.946  10.132  67.027  1.00  0.00    -0.162 C  
HETATM   13  C   UNL     1     -10.348  11.284  67.866  1.00  0.00    -0.205 C  
HETATM   14  C   UNL     1      -8.035  10.498  66.948  1.00  0.00    -0.121 C  
HETATM   15  C   UNL     1      -8.864  10.938  68.161  1.00  0.00    -0.137 C  
HETATM   16  C   UNL     1     -10.160   9.987  65.718  1.00  0.00    -0.320 C  
BRANCH  13  17
HETATM   17  C   UNL     1     -10.619  12.616  67.083  1.00  0.00    -0.252 A  
HETATM   18  C   UNL     1     -12.207  13.960  65.768  1.00  0.00    -0.488 A  
HETATM   19  C   UNL     1      -9.621  13.549  66.750  1.00  0.00    -0.268 A  
HETATM   20  F   UNL     1     -11.428  15.824  64.559  1.00  0.00    -0.419 F  
HETATM   21  C   UNL     1      -9.898  14.626  65.899  1.00  0.00    -0.358 A  
HETATM   22  C   UNL     1     -11.181  14.813  65.402  1.00  0.00    -0.347 A  
HETATM   23  C   UNL     1     -11.931  12.879  66.606  1.00  0.00    -0.436 A  
ENDBRANCH  13  17
BRANCH  13  24
HETATM   24  C   UNL     1     -11.056  11.438  69.202  1.00  0.00    -0.258 C  
HETATM   25  H2  UNL     1     -12.170  12.419  70.118  1.00  0.00     0.000 HD 
HETATM   26  N   UNL     1     -11.644  11.566  70.310  1.00  0.00    -0.504 NA 
HETATM   27  H1  UNL     1     -12.119  11.669  71.206  1.00  0.00     0.000 HD 
ENDBRANCH  13  24
ENDBRANCH   4  11
BRANCH  10  28
HETATM   28  C   UNL     1      -9.762   7.210  69.896  1.00  0.00    -0.170 A  
HETATM   29  C   UNL     1      -8.950   8.055  70.681  1.00  0.00    -0.148 A  
HETATM   30  C   UNL     1     -11.147   7.323  70.113  1.00  0.00    -0.281 A  
HETATM   31  C   UNL     1     -10.830   8.826  71.983  1.00  0.00    -0.428 A  
HETATM   32  C   UNL     1      -9.467   8.827  71.726  1.00  0.00    -0.363 A  
HETATM   33  C   UNL     1     -11.672   8.097  71.156  1.00  0.00    -0.309 A  
ENDBRANCH  10  28
TORSDOF 4
ENDMDL
MODEL       27
REMARK 921   NORMALIZED FREE ENERGY PREDICTED BY IDOCK:   -6.33 KCAL/MOL
REMARK 922        TOTAL FREE ENERGY PREDICTED BY IDOCK:   -8.01 KCAL/MOL
REMARK 923 INTER-LIGAND FREE ENERGY PREDICTED BY IDOCK:   -8.55 KCAL/MOL
REMARK 924 INTRA-LIGAND FREE ENERGY PREDICTED BY IDOCK:    0.54 KCAL/MOL
REMARK 927      BINDING AFFINITY PREDICTED BY RF-SCORE:    0.00 PKD
ROOT
HETATM    1  C   UNL     1     -12.250  13.745  68.720  1.00  0.00    -0.221 C  
HETATM    2  C   UNL     1     -11.957  12.685  67.646  1.00  0.00    -0.309 C  
HETATM    3  C   UNL     1     -11.249  11.526  68.353  1.00  0.00    -0.255 C  
HETATM    4  N   UNL     1     -10.807  10.354  67.564  1.00  0.00    -0.291 NA 
HETATM    5  C   UNL     1     -10.269  10.740  66.259  1.00  0.00    -0.245 C  
HETATM    6  O   UNL     1     -13.436  13.970  65.654  1.00  0.00    -0.604 OA 
HETATM    7  O   UNL     1     -11.661  14.830  64.602  1.00  0.00    -0.409 OA 
HETATM    8  C   UNL     1     -11.050  11.845  65.519  1.00  0.00    -0.356 C  
HETATM    9  C   UNL     1     -12.211  14.024  65.534  1.00  0.00    -0.439 C  
HETATM   10  C   UNL     1     -11.215  13.158  66.347  1.00  0.00    -0.328 C  
ENDROOT
BRANCH   4  11
HETATM   11  C   UNL     1      -9.799   9.621  68.397  1.00  0.00    -0.153 C  
HETATM   12  C   UNL     1     -11.102   9.533  70.578  1.00  0.00    -0.342 C  
HETATM   13  C   UNL     1     -10.976   8.000  70.716  1.00  0.00    -0.259 C  
HETATM   14  C   UNL     1      -9.826   8.074  68.375  1.00  0.00    -0.184 C  
HETATM   15  C   UNL     1     -10.857   7.401  69.289  1.00  0.00    -0.153 C  
HETATM   16  C   UNL     1      -9.862  10.090  69.866  1.00  0.00    -0.266 C  
BRANCH  13  17
HETATM   17  C   UNL     1      -9.787   7.719  71.699  1.00  0.00    -0.201 A  
HETATM   18  C   UNL     1      -7.741   6.432  72.162  1.00  0.00    -0.099 A  
HETATM   19  C   UNL     1      -9.719   8.216  73.013  1.00  0.00    -0.327 A  
HETATM   20  F   UNL     1      -6.824   6.449  74.330  1.00  0.00    -0.082 F  
HETATM   21  C   UNL     1      -8.721   7.784  73.896  1.00  0.00    -0.322 A  
HETATM   22  C   UNL     1      -7.752   6.885  73.469  1.00  0.00    -0.082 A  
HETATM   23  C   UNL     1      -8.741   6.852  71.284  1.00  0.00    -0.134 A  
ENDBRANCH  13  17
BRANCH  13  24
HETATM   24  C   UNL     1     -12.205   7.387  71.368  1.00  0.00    -0.342 C  
HETATM   25  H2  UNL     1     -13.286   7.477  72.734  1.00  0.00     0.000 HD 
HETATM   26  N   UNL     1     -13.224   6.880  71.909  1.00  0.00    -0.523 NA 
HETATM   27  H1  UNL     1     -14.049   6.469  72.346  1.00  0.00     0.000 HD 
ENDBRANCH  13  24
ENDBRANCH   4  11
BRANCH  10  28
HETATM   28  C   UNL     1      -9.868  13.908  66.574  1.00  0.00    -0.296 A  
HETATM   29  C   UNL     1      -8.743  13.300  67.168  1.00  0.00    -0.215 A  
HETATM   30  C   UNL     1      -9.683  15.230  66.131  1.00  0.00    -0.343 A  
HETATM   31  C   UNL     1      -7.470  15.349  67.104  1.00  0.00    -0.224 A  
HETATM   32  C   UNL     1      -7.574  14.012  67.457  1.00  0.00    -0.195 A  
HETATM   33  C   UNL     1      -8.514  15.949  66.413  1.00  0.00    -0.348 A  
ENDBRANCH  10  28
TORSDOF 4
ENDMDL
MODEL       28
REMARK 921   NORMALIZED FREE ENERGY PREDICTED BY IDOCK:   -6.32 KCAL/MOL
REMARK 922        TOTAL FREE ENERGY PREDICTED BY IDOCK:   -8.00 KCAL/MOL
REMARK 923 INTER-LIGAND FREE ENERGY PREDICTED BY IDOCK:   -8.49 KCAL/MOL
REMARK 924 INTRA-LIGAND FREE ENERGY PREDICTED BY IDOCK:    0.48 KCAL/MOL
REMARK 927      BINDING AFFINITY PREDICTED BY RF-SCORE:    0.00 PKD
ROOT
HETATM    1  C   UNL     1      -9.786  16.187  69.485  1.00  0.00    -0.198 C  
HETATM    2  C   UNL     1     -10.310  16.900  68.228  1.00  0.00    -0.335 C  
HETATM    3  C   UNL     1     -10.607  15.811  67.194  1.00  0.00    -0.313 C  
HETATM    4  N   UNL     1     -11.103  16.196  65.853  1.00  0.00    -0.051 NA 
HETATM    5  C   UNL     1     -10.445  17.403  65.349  1.00  0.00     0.001 C  
HETATM    6  O   UNL     1     -10.478  19.408  69.449  1.00  0.00     0.030 OA 
HETATM    7  O   UNL     1      -8.603  20.208  68.535  1.00  0.00    -0.088 OA 
HETATM    8  C   UNL     1     -10.238  18.528  66.384  1.00  0.00    -0.449 C  
HETATM    9  C   UNL     1      -9.560  19.264  68.641  1.00  0.00    -0.418 C  
HETATM   10  C   UNL     1      -9.446  18.076  67.651  1.00  0.00    -0.264 C  
ENDROOT
BRANCH   4  11
HETATM   11  C   UNL     1     -10.889  15.018  64.952  1.00  0.00    -0.411 C  
HETATM   12  C   UNL     1     -10.171  13.324  66.707  1.00  0.00    -0.254 C  
HETATM   13  C   UNL     1     -11.239  12.286  66.295  1.00  0.00    -0.367 C  
HETATM   14  C   UNL     1     -12.103  14.110  64.642  1.00  0.00    -0.469 C  
HETATM   15  C   UNL     1     -12.448  13.055  65.700  1.00  0.00    -0.452 C  
HETATM   16  C   UNL     1      -9.739  14.133  65.477  1.00  0.00    -0.166 C  
BRANCH  13  17
HETATM   17  C   UNL     1     -10.535  11.245  65.357  1.00  0.00    -0.326 A  
HETATM   18  C   UNL     1      -8.995   9.334  65.168  1.00  0.00    -0.257 A  
HETATM   19  C   UNL     1     -10.539  11.324  63.952  1.00  0.00    -0.455 A  
HETATM   20  F   UNL     1      -8.183   8.702  63.050  1.00  0.00    -0.157 F  
HETATM   21  C   UNL     1      -9.745  10.467  63.180  1.00  0.00    -0.351 A  
HETATM   22  C   UNL     1      -8.968   9.492  63.793  1.00  0.00    -0.175 A  
HETATM   23  C   UNL     1      -9.777  10.195  65.940  1.00  0.00    -0.292 A  
ENDBRANCH  13  17
BRANCH  13  24
HETATM   24  C   UNL     1     -11.745  11.491  67.488  1.00  0.00    -0.184 C  
HETATM   25  H2  UNL     1     -11.275  10.460  68.814  1.00  0.00     0.000 HD 
HETATM   26  N   UNL     1     -12.164  10.832  68.477  1.00  0.00    -0.822 NA 
HETATM   27  H1  UNL     1     -12.504  10.298  69.278  1.00  0.00     0.000 HD 
ENDBRANCH  13  24
ENDBRANCH   4  11
BRANCH  10  28
HETATM   28  C   UNL     1      -7.957  17.733  67.348  1.00  0.00    -0.221 A  
HETATM   29  C   UNL     1      -7.171  16.921  68.191  1.00  0.00    -0.171 A  
HETATM   30  C   UNL     1      -7.331  18.168  66.165  1.00  0.00    -0.309 A  
HETATM   31  C   UNL     1      -5.198  17.243  66.839  1.00  0.00    -0.195 A  
HETATM   32  C   UNL     1      -5.808  16.702  67.960  1.00  0.00    -0.127 A  
HETATM   33  C   UNL     1      -5.968  17.951  65.926  1.00  0.00    -0.243 A  
ENDBRANCH  10  28
TORSDOF 4
ENDMDL
MODEL       29
REMARK 921   NORMALIZED FREE ENERGY PREDICTED BY IDOCK:   -6.31 KCAL/MOL
REMARK 922        TOTAL FREE ENERGY PREDICTED BY IDOCK:   -8.00 KCAL/MOL
REMARK 923 INTER-LIGAND FREE ENERGY PREDICTED BY IDOCK:   -7.71 KCAL/MOL
REMARK 924 INTRA-LIGAND FREE ENERGY PREDICTED BY IDOCK:   -0.28 KCAL/MOL
REMARK 927      BINDING AFFINITY PREDICTED BY RF-SCORE:    0.00 PKD
ROOT
HETATM    1  C   UNL     1     -10.671  17.376  68.885  1.00  0.00    -0.139 C  
HETATM    2  C   UNL     1     -10.704  16.542  67.593  1.00  0.00    -0.311 C  
HETATM    3  C   UNL     1     -11.325  15.191  67.956  1.00  0.00    -0.337 C  
HETATM    4  N   UNL     1     -11.463  14.150  66.913  1.00  0.00    -0.340 NA 
HETATM    5  C   UNL     1     -10.305  14.110  66.019  1.00  0.00    -0.309 C  
HETATM    6  O   UNL     1      -9.916  18.656  65.944  1.00  0.00    -0.517 OA 
HETATM    7  O   UNL     1      -7.793  17.986  65.751  1.00  0.00    -0.534 OA 
HETATM    8  C   UNL     1      -9.750  15.482  65.589  1.00  0.00    -0.355 C  
HETATM    9  C   UNL     1      -9.067  17.788  66.148  1.00  0.00    -0.102 C  
HETATM   10  C   UNL     1      -9.366  16.407  66.786  1.00  0.00    -0.265 C  
ENDROOT
BRANCH   4  11
HETATM   11  C   UNL     1     -11.677  12.846  67.621  1.00  0.00    -0.370 C  
HETATM   12  C   UNL     1     -10.308  11.353  66.085  1.00  0.00    -0.294 C  
HETATM   13  C   UNL     1      -9.442  10.785  67.232  1.00  0.00    -0.177 C  
HETATM   14  C   UNL     1     -10.707  12.474  68.768  1.00  0.00    -0.235 C  
HETATM   15  C   UNL     1      -9.366  11.861  68.349  1.00  0.00    -0.184 C  
HETATM   16  C   UNL     1     -11.711  11.679  66.612  1.00  0.00    -0.066 C  
BRANCH  13  17
HETATM   17  C   UNL     1     -10.055   9.398  67.632  1.00  0.00    -0.262 A  
HETATM   18  C   UNL     1     -10.708   7.866  69.444  1.00  0.00    -0.174 A  
HETATM   19  C   UNL     1     -10.297   8.354  66.721  1.00  0.00    -0.357 A  
HETATM   20  F   UNL     1     -11.190   5.616  68.945  1.00  0.00    -0.325 F  
HETATM   21  C   UNL     1     -10.677   7.082  67.168  1.00  0.00    -0.433 A  
HETATM   22  C   UNL     1     -10.863   6.844  68.524  1.00  0.00    -0.180 A  
HETATM   23  C   UNL     1     -10.318   9.131  69.002  1.00  0.00    -0.229 A  
ENDBRANCH  13  17
BRANCH  13  24
HETATM   24  C   UNL     1      -8.021  10.495  66.779  1.00  0.00    -0.121 C  
HETATM   25  H2  UNL     1      -6.684  11.081  65.824  1.00  0.00     0.000 HD 
HETATM   26  N   UNL     1      -6.842  10.255  66.402  1.00  0.00    -0.099 NA 
HETATM   27  H1  UNL     1      -5.888  10.061  66.098  1.00  0.00     0.000 HD 
ENDBRANCH  13  24
ENDBRANCH   4  11
BRANCH  10  28
HETATM   28  C   UNL     1      -8.141  15.880  67.594  1.00  0.00    -0.160 A  
HETATM   29  C   UNL     1      -7.600  16.568  68.699  1.00  0.00    -0.213 A  
HETATM   30  C   UNL     1      -7.547  14.640  67.297  1.00  0.00    -0.173 A  
HETATM   31  C   UNL     1      -5.816  14.963  68.959  1.00  0.00    -0.096 A  
HETATM   32  C   UNL     1      -6.441  16.136  69.353  1.00  0.00    -0.185 A  
HETATM   33  C   UNL     1      -6.388  14.200  67.950  1.00  0.00    -0.173 A  
ENDBRANCH  10  28
TORSDOF 4
ENDMDL
MODEL       30
REMARK 921   NORMALIZED FREE ENERGY PREDICTED BY IDOCK:   -6.29 KCAL/MOL
REMARK 922        TOTAL FREE ENERGY PREDICTED BY IDOCK:   -7.97 KCAL/MOL
REMARK 923 INTER-LIGAND FREE ENERGY PREDICTED BY IDOCK:   -8.01 KCAL/MOL
REMARK 924 INTRA-LIGAND FREE ENERGY PREDICTED BY IDOCK:    0.04 KCAL/MOL
REMARK 927      BINDING AFFINITY PREDICTED BY RF-SCORE:    0.00 PKD
ROOT
HETATM    1  C   UNL     1     -12.585  13.903  65.752  1.00  0.00    -0.533 C  
HETATM    2  C   UNL     1     -11.055  13.961  65.896  1.00  0.00    -0.291 C  
HETATM    3  C   UNL     1     -10.605  12.583  66.384  1.00  0.00    -0.247 C  
HETATM    4  N   UNL     1      -9.170  12.337  66.649  1.00  0.00    -0.206 NA 
HETATM    5  C   UNL     1      -8.521  13.488  67.278  1.00  0.00    -0.193 C  
HETATM    6  O   UNL     1     -10.815  16.477  64.702  1.00  0.00    -0.741 OA 
HETATM    7  O   UNL     1     -10.555  17.591  66.621  1.00  0.00    -0.295 OA 
HETATM    8  C   UNL     1      -8.916  14.865  66.709  1.00  0.00    -0.295 C  
HETATM    9  C   UNL     1     -10.646  16.442  65.922  1.00  0.00    -0.285 C  
HETATM   10  C   UNL     1     -10.453  15.139  66.740  1.00  0.00    -0.283 C  
ENDROOT
BRANCH   4  11
HETATM   11  C   UNL     1      -9.086  11.105  67.500  1.00  0.00    -0.146 C  
HETATM   12  C   UNL     1      -9.940   9.414  65.805  1.00  0.00    -0.278 C  
HETATM   13  C   UNL     1      -8.712   8.488  65.949  1.00  0.00    -0.203 C  
HETATM   14  C   UNL     1      -7.746  10.330  67.526  1.00  0.00    -0.094 C  
HETATM   15  C   UNL     1      -7.499   9.366  66.360  1.00  0.00    -0.093 C  
HETATM   16  C   UNL     1     -10.215  10.117  67.140  1.00  0.00    -0.278 C  
BRANCH  13  17
HETATM   17  C   UNL     1      -9.113   7.337  66.935  1.00  0.00    -0.162 A  
HETATM   18  C   UNL     1      -8.365   5.634  68.547  1.00  0.00    -0.106 A  
HETATM   19  C   UNL     1     -10.399   6.770  67.000  1.00  0.00    -0.338 A  
HETATM   20  F   UNL     1      -9.859   3.949  69.233  1.00  0.00    -0.255 F  
HETATM   21  C   UNL     1     -10.645   5.629  67.774  1.00  0.00    -0.274 A  
HETATM   22  C   UNL     1      -9.625   5.061  68.526  1.00  0.00    -0.146 A  
HETATM   23  C   UNL     1      -8.115   6.765  67.768  1.00  0.00    -0.113 A  
ENDBRANCH  13  17
BRANCH  13  24
HETATM   24  C   UNL     1      -8.359   7.806  64.638  1.00  0.00    -0.018 C  
HETATM   25  H2  UNL     1      -8.812   7.620  62.963  1.00  0.00     0.000 HD 
HETATM   26  N   UNL     1      -8.068   7.241  63.549  1.00  0.00    -0.313 NA 
HETATM   27  H1  UNL     1      -7.831   6.783  62.669  1.00  0.00     0.000 HD 
ENDBRANCH  13  24
ENDBRANCH   4  11
BRANCH  10  28
HETATM   28  C   UNL     1     -11.016  15.290  68.185  1.00  0.00    -0.292 A  
HETATM   29  C   UNL     1     -12.037  14.465  68.700  1.00  0.00    -0.274 A  
HETATM   30  C   UNL     1     -10.479  16.228  69.085  1.00  0.00    -0.280 A  
HETATM   31  C   UNL     1     -12.120  15.685  70.780  1.00  0.00    -0.454 A  
HETATM   32  C   UNL     1     -12.602  14.675  69.962  1.00  0.00    -0.276 A  
HETATM   33  C   UNL     1     -11.038  16.442  70.352  1.00  0.00    -0.246 A  
ENDBRANCH  10  28
TORSDOF 4
ENDMDL
MODEL       31
REMARK 921   NORMALIZED FREE ENERGY PREDICTED BY IDOCK:   -6.25 KCAL/MOL
REMARK 922        TOTAL FREE ENERGY PREDICTED BY IDOCK:   -7.92 KCAL/MOL
REMARK 923 INTER-LIGAND FREE ENERGY PREDICTED BY IDOCK:   -8.06 KCAL/MOL
REMARK 924 INTRA-LIGAND FREE ENERGY PREDICTED BY IDOCK:    0.15 KCAL/MOL
REMARK 927      BINDING AFFINITY PREDICTED BY RF-SCORE:    0.00 PKD
ROOT
HETATM    1  C   UNL     1     -12.160  13.619  68.418  1.00  0.00    -0.312 C  
HETATM    2  C   UNL     1     -11.810  12.710  67.228  1.00  0.00    -0.395 C  
HETATM    3  C   UNL     1     -11.132  11.467  67.807  1.00  0.00    -0.265 C  
HETATM    4  N   UNL     1     -10.647  10.409  66.892  1.00  0.00    -0.246 NA 
HETATM    5  C   UNL     1     -10.048  10.965  65.678  1.00  0.00    -0.261 C  
HETATM    6  O   UNL     1     -13.197  14.253  65.356  1.00  0.00    -0.688 OA 
HETATM    7  O   UNL     1     -11.378  15.242  64.516  1.00  0.00    -0.366 OA 
HETATM    8  C   UNL     1     -10.798  12.160  65.055  1.00  0.00    -0.344 C  
HETATM    9  C   UNL     1     -11.968  14.320  65.303  1.00  0.00    -0.389 C  
HETATM   10  C   UNL     1     -11.009  13.351  66.041  1.00  0.00    -0.281 C  
ENDROOT
BRANCH   4  11
HETATM   11  C   UNL     1      -9.677   9.569  67.667  1.00  0.00    -0.154 C  
HETATM   12  C   UNL     1     -11.020   7.411  67.740  1.00  0.00    -0.099 C  
HETATM   13  C   UNL     1      -9.877   6.556  67.147  1.00  0.00    -0.187 C  
HETATM   14  C   UNL     1      -8.585   8.807  66.880  1.00  0.00    -0.120 C  
HETATM   15  C   UNL     1      -9.010   7.476  66.248  1.00  0.00    -0.199 C  
HETATM   16  C   UNL     1     -10.427   8.561  68.564  1.00  0.00    -0.205 C  
BRANCH  13  17
HETATM   17  C   UNL     1      -9.151   5.857  68.348  1.00  0.00    -0.115 A  
HETATM   18  C   UNL     1      -9.368   4.609  70.458  1.00  0.00    -0.222 A  
HETATM   19  C   UNL     1      -7.774   5.975  68.611  1.00  0.00    -0.095 A  
HETATM   20  F   UNL     1      -7.494   4.369  71.863  1.00  0.00    -0.061 F  
HETATM   21  C   UNL     1      -7.222   5.474  69.796  1.00  0.00    -0.065 A  
HETATM   22  C   UNL     1      -8.024   4.811  70.716  1.00  0.00    -0.081 A  
HETATM   23  C   UNL     1      -9.924   5.118  69.283  1.00  0.00    -0.280 A  
ENDBRANCH  13  17
BRANCH  13  24
HETATM   24  C   UNL     1     -10.408   5.431  66.273  1.00  0.00    -0.200 C  
HETATM   25  H2  UNL     1      -9.979   3.980  65.405  1.00  0.00     0.000 HD 
HETATM   26  N   UNL     1     -10.846   4.498  65.548  1.00  0.00    -0.783 NA 
HETATM   27  H1  UNL     1     -11.202   3.743  64.962  1.00  0.00     0.000 HD 
ENDBRANCH  13  24
ENDBRANCH   4  11
BRANCH  10  28
HETATM   28  C   UNL     1      -9.678  14.062  66.432  1.00  0.00    -0.309 A  
HETATM   29  C   UNL     1      -8.624  13.403  67.098  1.00  0.00    -0.201 A  
HETATM   30  C   UNL     1      -9.430  15.399  66.074  1.00  0.00    -0.381 A  
HETATM   31  C   UNL     1      -7.318  15.426  67.257  1.00  0.00    -0.239 A  
HETATM   32  C   UNL     1      -7.477  14.076  67.531  1.00  0.00    -0.186 A  
HETATM   33  C   UNL     1      -8.282  16.079  66.501  1.00  0.00    -0.334 A  
ENDBRANCH  10  28
TORSDOF 4
ENDMDL
MODEL       32
REMARK 921   NORMALIZED FREE ENERGY PREDICTED BY IDOCK:   -6.25 KCAL/MOL
REMARK 922        TOTAL FREE ENERGY PREDICTED BY IDOCK:   -7.91 KCAL/MOL
REMARK 923 INTER-LIGAND FREE ENERGY PREDICTED BY IDOCK:   -7.94 KCAL/MOL
REMARK 924 INTRA-LIGAND FREE ENERGY PREDICTED BY IDOCK:    0.02 KCAL/MOL
REMARK 927      BINDING AFFINITY PREDICTED BY RF-SCORE:    0.00 PKD
ROOT
HETATM    1  C   UNL     1      -8.438  13.761  67.412  1.00  0.00    -0.209 C  
HETATM    2  C   UNL     1      -9.653  13.010  67.980  1.00  0.00    -0.224 C  
HETATM    3  C   UNL     1      -9.112  11.762  68.682  1.00  0.00    -0.071 C  
HETATM    4  N   UNL     1     -10.058  10.812  69.309  1.00  0.00    -0.207 NA 
HETATM    5  C   UNL     1     -11.266  10.626  68.504  1.00  0.00    -0.282 C  
HETATM    6  O   UNL     1     -11.472  15.046  67.384  1.00  0.00    -0.341 OA 
HETATM    7  O   UNL     1     -12.311  14.048  65.569  1.00  0.00    -0.430 OA 
HETATM    8  C   UNL     1     -11.851  11.909  67.880  1.00  0.00    -0.308 C  
HETATM    9  C   UNL     1     -11.538  14.041  66.674  1.00  0.00    -0.382 C  
HETATM   10  C   UNL     1     -10.834  12.697  66.996  1.00  0.00    -0.282 C  
ENDROOT
BRANCH   4  11
HETATM   11  C   UNL     1      -9.314   9.526  69.517  1.00  0.00    -0.190 C  
HETATM   12  C   UNL     1     -10.410   8.803  71.694  1.00  0.00    -0.391 C  
HETATM   13  C   UNL     1     -10.819   7.415  71.151  1.00  0.00    -0.258 C  
HETATM   14  C   UNL     1      -9.882   8.245  68.861  1.00  0.00    -0.183 C  
HETATM   15  C   UNL     1     -11.016   7.542  69.616  1.00  0.00    -0.164 C  
HETATM   16  C   UNL     1      -9.107   9.255  71.022  1.00  0.00    -0.253 C  
BRANCH  13  17
HETATM   17  C   UNL     1      -9.737   6.390  71.639  1.00  0.00    -0.174 A  
HETATM   18  C   UNL     1      -8.346   5.574  73.498  1.00  0.00    -0.113 A  
HETATM   19  C   UNL     1      -9.004   5.552  70.780  1.00  0.00    -0.157 A  
HETATM   20  F   UNL     1      -6.550   4.118  73.052  1.00  0.00    -0.033 F  
HETATM   21  C   UNL     1      -7.931   4.790  71.260  1.00  0.00    -0.096 A  
HETATM   22  C   UNL     1      -7.601   4.820  72.609  1.00  0.00    -0.091 A  
HETATM   23  C   UNL     1      -9.408   6.343  73.020  1.00  0.00    -0.141 A  
ENDBRANCH  13  17
BRANCH  13  24
HETATM   24  C   UNL     1     -12.135   6.941  71.743  1.00  0.00    -0.346 C  
HETATM   25  H2  UNL     1     -13.755   6.412  71.370  1.00  0.00     0.000 HD 
HETATM   26  N   UNL     1     -13.228   6.548  72.233  1.00  0.00    -0.492 NA 
HETATM   27  H1  UNL     1     -14.112   6.229  72.631  1.00  0.00     0.000 HD 
ENDBRANCH  13  24
ENDBRANCH   4  11
BRANCH  10  28
HETATM   28  C   UNL     1     -10.444  11.937  65.693  1.00  0.00    -0.302 A  
HETATM   29  C   UNL     1     -10.090  10.572  65.679  1.00  0.00    -0.333 A  
HETATM   30  C   UNL     1     -10.490  12.568  64.437  1.00  0.00    -0.384 A  
HETATM   31  C   UNL     1      -9.598  10.616  63.317  1.00  0.00    -0.382 A  
HETATM   32  C   UNL     1      -9.646   9.928  64.519  1.00  0.00    -0.290 A  
HETATM   33  C   UNL     1     -10.050  11.928  63.270  1.00  0.00    -0.427 A  
ENDBRANCH  10  28
TORSDOF 4
ENDMDL
MODEL       33
REMARK 921   NORMALIZED FREE ENERGY PREDICTED BY IDOCK:   -6.23 KCAL/MOL
REMARK 922        TOTAL FREE ENERGY PREDICTED BY IDOCK:   -7.89 KCAL/MOL
REMARK 923 INTER-LIGAND FREE ENERGY PREDICTED BY IDOCK:   -8.26 KCAL/MOL
REMARK 924 INTRA-LIGAND FREE ENERGY PREDICTED BY IDOCK:    0.37 KCAL/MOL
REMARK 927      BINDING AFFINITY PREDICTED BY RF-SCORE:    0.00 PKD
ROOT
HETATM    1  C   UNL     1     -11.943  12.462  66.349  1.00  0.00    -0.346 C  
HETATM    2  C   UNL     1     -10.450  12.652  66.662  1.00  0.00    -0.261 C  
HETATM    3  C   UNL     1     -10.011  11.434  67.478  1.00  0.00    -0.182 C  
HETATM    4  N   UNL     1      -8.615  11.345  67.960  1.00  0.00    -0.140 NA 
HETATM    5  C   UNL     1      -8.104  12.642  68.409  1.00  0.00    -0.137 C  
HETATM    6  O   UNL     1     -10.158  14.886  65.007  1.00  0.00    -0.360 OA 
HETATM    7  O   UNL     1     -10.203  16.380  66.668  1.00  0.00    -0.277 OA 
HETATM    8  C   UNL     1      -8.477  13.846  67.521  1.00  0.00    -0.200 C  
HETATM    9  C   UNL     1     -10.151  15.109  66.218  1.00  0.00    -0.283 C  
HETATM   10  C   UNL     1     -10.014  14.014  67.308  1.00  0.00    -0.242 C  
ENDROOT
BRANCH   4  11
HETATM   11  C   UNL     1      -8.593  10.320  69.053  1.00  0.00    -0.162 C  
HETATM   12  C   UNL     1     -10.715   9.063  68.435  1.00  0.00    -0.145 C  
HETATM   13  C   UNL     1     -10.011   7.688  68.382  1.00  0.00    -0.192 C  
HETATM   14  C   UNL     1      -7.803   9.012  68.807  1.00  0.00    -0.096 C  
HETATM   15  C   UNL     1      -8.526   7.926  68.000  1.00  0.00    -0.123 C  
HETATM   16  C   UNL     1     -10.029   9.950  69.482  1.00  0.00    -0.240 C  
BRANCH  13  17
HETATM   17  C   UNL     1     -10.281   6.976  69.753  1.00  0.00    -0.213 A  
HETATM   18  C   UNL     1     -11.922   6.361  71.481  1.00  0.00    -0.331 A  
HETATM   19  C   UNL     1      -9.267   6.525  70.618  1.00  0.00    -0.163 A  
HETATM   20  F   UNL     1     -11.170   5.588  73.574  1.00  0.00    -0.308 F  
HETATM   21  C   UNL     1      -9.571   6.061  71.903  1.00  0.00    -0.166 A  
HETATM   22  C   UNL     1     -10.892   5.998  72.330  1.00  0.00    -0.245 A  
HETATM   23  C   UNL     1     -11.621   6.835  70.203  1.00  0.00    -0.397 A  
ENDBRANCH  13  17
BRANCH  13  24
HETATM   24  C   UNL     1     -10.616   6.784  67.320  1.00  0.00    -0.320 C  
HETATM   25  H2  UNL     1     -11.499   6.748  65.816  1.00  0.00     0.000 HD 
HETATM   26  N   UNL     1     -11.119   6.035  66.439  1.00  0.00    -0.736 NA 
HETATM   27  H1  UNL     1     -11.524   5.428  65.726  1.00  0.00     0.000 HD 
ENDBRANCH  13  24
ENDBRANCH   4  11
BRANCH  10  28
HETATM   28  C   UNL     1     -10.770  14.415  68.610  1.00  0.00    -0.258 A  
HETATM   29  C   UNL     1     -10.305  15.415  69.489  1.00  0.00    -0.269 A  
HETATM   30  C   UNL     1     -12.008  13.838  68.945  1.00  0.00    -0.394 A  
HETATM   31  C   UNL     1     -12.099  15.024  71.054  1.00  0.00    -0.381 A  
HETATM   32  C   UNL     1     -10.939  15.696  70.704  1.00  0.00    -0.364 A  
HETATM   33  C   UNL     1     -12.650  14.117  70.159  1.00  0.00    -0.325 A  
ENDBRANCH  10  28
TORSDOF 4
ENDMDL
MODEL       34
REMARK 921   NORMALIZED FREE ENERGY PREDICTED BY IDOCK:   -6.22 KCAL/MOL
REMARK 922        TOTAL FREE ENERGY PREDICTED BY IDOCK:   -7.88 KCAL/MOL
REMARK 923 INTER-LIGAND FREE ENERGY PREDICTED BY IDOCK:   -8.44 KCAL/MOL
REMARK 924 INTRA-LIGAND FREE ENERGY PREDICTED BY IDOCK:    0.56 KCAL/MOL
REMARK 927      BINDING AFFINITY PREDICTED BY RF-SCORE:    0.00 PKD
ROOT
HETATM    1  C   UNL     1     -12.864  14.078  65.492  1.00  0.00    -0.453 C  
HETATM    2  C   UNL     1     -11.418  13.625  65.751  1.00  0.00    -0.326 C  
HETATM    3  C   UNL     1     -11.461  12.110  65.961  1.00  0.00    -0.370 C  
HETATM    4  N   UNL     1     -10.209  11.382  66.265  1.00  0.00    -0.225 NA 
HETATM    5  C   UNL     1      -9.340  12.135  67.172  1.00  0.00    -0.193 C  
HETATM    6  O   UNL     1     -10.296  16.113  65.147  1.00  0.00    -0.560 OA 
HETATM    7  O   UNL     1      -9.977  16.717  67.275  1.00  0.00    -0.258 OA 
HETATM    8  C   UNL     1      -9.236  13.647  66.887  1.00  0.00    -0.257 C  
HETATM    9  C   UNL     1     -10.307  15.803  66.339  1.00  0.00    -0.299 C  
HETATM   10  C   UNL     1     -10.615  14.378  66.869  1.00  0.00    -0.278 C  
ENDROOT
BRANCH   4  11
HETATM   11  C   UNL     1     -10.603  10.052  66.835  1.00  0.00    -0.192 C  
HETATM   12  C   UNL     1      -8.334   9.339  67.734  1.00  0.00    -0.116 C  
HETATM   13  C   UNL     1      -8.863   9.079  69.163  1.00  0.00    -0.142 C  
HETATM   14  C   UNL     1     -11.137  10.013  68.287  1.00  0.00    -0.247 C  
HETATM   15  C   UNL     1     -10.080  10.013  69.398  1.00  0.00    -0.235 C  
HETATM   16  C   UNL     1      -9.441   9.043  66.714  1.00  0.00    -0.238 C  
BRANCH  13  17
HETATM   17  C   UNL     1      -9.124   7.538  69.287  1.00  0.00    -0.138 A  
HETATM   18  C   UNL     1     -10.578   5.745  70.139  1.00  0.00    -0.377 A  
HETATM   19  C   UNL     1      -8.183   6.551  68.942  1.00  0.00    -0.119 A  
HETATM   20  F   UNL     1      -9.789   3.526  70.171  1.00  0.00    -0.260 F  
HETATM   21  C   UNL     1      -8.410   5.202  69.243  1.00  0.00    -0.087 A  
HETATM   22  C   UNL     1      -9.596   4.813  69.853  1.00  0.00    -0.181 A  
HETATM   23  C   UNL     1     -10.348   7.091  69.851  1.00  0.00    -0.225 A  
ENDBRANCH  13  17
BRANCH  13  24
HETATM   24  C   UNL     1      -7.823   9.410  70.220  1.00  0.00    -0.156 C  
HETATM   25  H2  UNL     1      -6.519  10.488  70.647  1.00  0.00     0.000 HD 
HETATM   26  N   UNL     1      -6.959   9.685  71.097  1.00  0.00    -0.326 NA 
HETATM   27  H1  UNL     1      -6.261   9.907  71.807  1.00  0.00     0.000 HD 
ENDBRANCH  13  24
ENDBRANCH   4  11
BRANCH  10  28
HETATM   28  C   UNL     1     -11.295  14.430  68.270  1.00  0.00    -0.311 A  
HETATM   29  C   UNL     1     -11.494  13.285  69.068  1.00  0.00    -0.350 A  
HETATM   30  C   UNL     1     -11.689  15.651  68.847  1.00  0.00    -0.396 A  
HETATM   31  C   UNL     1     -12.668  14.540  70.762  1.00  0.00    -0.425 A  
HETATM   32  C   UNL     1     -12.194  13.330  70.278  1.00  0.00    -0.391 A  
HETATM   33  C   UNL     1     -12.388  15.704  70.060  1.00  0.00    -0.304 A  
ENDBRANCH  10  28
TORSDOF 4
ENDMDL
MODEL       35
REMARK 921   NORMALIZED FREE ENERGY PREDICTED BY IDOCK:   -6.20 KCAL/MOL
REMARK 922        TOTAL FREE ENERGY PREDICTED BY IDOCK:   -7.86 KCAL/MOL
REMARK 923 INTER-LIGAND FREE ENERGY PREDICTED BY IDOCK:   -7.23 KCAL/MOL
REMARK 924 INTRA-LIGAND FREE ENERGY PREDICTED BY IDOCK:   -0.63 KCAL/MOL
REMARK 927      BINDING AFFINITY PREDICTED BY RF-SCORE:    0.00 PKD
ROOT
HETATM    1  C   UNL     1     -12.419  13.875  66.478  1.00  0.00    -0.364 C  
HETATM    2  C   UNL     1     -11.170  13.685  67.354  1.00  0.00    -0.323 C  
HETATM    3  C   UNL     1     -10.169  14.764  66.936  1.00  0.00    -0.257 C  
HETATM    4  N   UNL     1      -8.842  14.818  67.589  1.00  0.00    -0.173 NA 
HETATM    5  C   UNL     1      -8.290  13.483  67.824  1.00  0.00    -0.181 C  
HETATM    6  O   UNL     1     -12.350  11.766  69.008  1.00  0.00    -0.254 OA 
HETATM    7  O   UNL     1     -11.348  10.017  68.042  1.00  0.00    -0.203 OA 
HETATM    8  C   UNL     1      -9.294  12.430  68.335  1.00  0.00    -0.158 C  
HETATM    9  C   UNL     1     -11.509  11.346  68.212  1.00  0.00    -0.299 C  
HETATM   10  C   UNL     1     -10.538  12.249  67.409  1.00  0.00    -0.247 C  
ENDROOT
BRANCH   4  11
HETATM   11  C   UNL     1      -7.955  15.649  66.711  1.00  0.00    -0.211 C  
HETATM   12  C   UNL     1      -8.514  17.937  67.667  1.00  0.00    -0.234 C  
HETATM   13  C   UNL     1      -7.038  18.300  67.944  1.00  0.00    -0.224 C  
HETATM   14  C   UNL     1      -6.491  15.872  67.160  1.00  0.00    -0.096 C  
HETATM   15  C   UNL     1      -6.261  16.980  68.195  1.00  0.00    -0.132 C  
HETATM   16  C   UNL     1      -8.597  17.025  66.436  1.00  0.00    -0.311 C  
BRANCH  13  17
HETATM   17  C   UNL     1      -6.547  19.190  66.749  1.00  0.00    -0.197 A  
HETATM   18  C   UNL     1      -7.021  21.073  65.238  1.00  0.00     0.188 A  
HETATM   19  C   UNL     1      -5.429  18.888  65.951  1.00  0.00    -0.185 A  
HETATM   20  F   UNL     1      -5.704  21.374  63.309  1.00  0.00    -0.257 F  
HETATM   21  C   UNL     1      -5.151  19.625  64.793  1.00  0.00    -0.188 A  
HETATM   22  C   UNL     1      -5.956  20.699  64.438  1.00  0.00    -0.283 A  
HETATM   23  C   UNL     1      -7.308  20.334  66.386  1.00  0.00    -0.300 A  
ENDBRANCH  13  17
BRANCH  13  24
HETATM   24  C   UNL     1      -6.891  19.160  69.188  1.00  0.00    -0.326 C  
HETATM   25  H2  UNL     1      -7.446  19.405  70.824  1.00  0.00     0.000 HD 
HETATM   26  N   UNL     1      -6.769  19.873  70.221  1.00  0.00    -0.200 NA 
HETATM   27  H1  UNL     1      -6.670  20.451  71.056  1.00  0.00     0.000 HD 
ENDBRANCH  13  24
ENDBRANCH   4  11
BRANCH  10  28
HETATM   28  C   UNL     1     -10.184  11.614  66.031  1.00  0.00    -0.270 A  
HETATM   29  C   UNL     1      -9.025  10.841  65.818  1.00  0.00    -0.203 A  
HETATM   30  C   UNL     1     -11.051  11.727  64.929  1.00  0.00    -0.345 A  
HETATM   31  C   UNL     1      -9.495  10.588  63.465  1.00  0.00    -0.352 A  
HETATM   32  C   UNL     1      -8.668  10.360  64.554  1.00  0.00    -0.205 A  
HETATM   33  C   UNL     1     -10.702  11.245  63.660  1.00  0.00    -0.438 A  
ENDBRANCH  10  28
TORSDOF 4
ENDMDL
MODEL       36
REMARK 921   NORMALIZED FREE ENERGY PREDICTED BY IDOCK:   -6.13 KCAL/MOL
REMARK 922        TOTAL FREE ENERGY PREDICTED BY IDOCK:   -7.77 KCAL/MOL
REMARK 923 INTER-LIGAND FREE ENERGY PREDICTED BY IDOCK:   -7.40 KCAL/MOL
REMARK 924 INTRA-LIGAND FREE ENERGY PREDICTED BY IDOCK:   -0.37 KCAL/MOL
REMARK 927      BINDING AFFINITY PREDICTED BY RF-SCORE:    0.00 PKD
ROOT
HETATM    1  C   UNL     1      -7.014   7.111  70.222  1.00  0.00    -0.061 C  
HETATM    2  C   UNL     1      -7.933   6.282  69.310  1.00  0.00    -0.109 C  
HETATM    3  C   UNL     1      -8.316   7.182  68.133  1.00  0.00    -0.124 C  
HETATM    4  N   UNL     1      -9.230   6.667  67.089  1.00  0.00    -0.123 NA 
HETATM    5  C   UNL     1     -10.306   5.850  67.654  1.00  0.00    -0.212 C  
HETATM    6  O   UNL     1      -7.527   3.891  70.700  1.00  0.00    -0.041 OA 
HETATM    7  O   UNL     1      -9.475   3.956  71.793  1.00  0.00    -0.125 OA 
HETATM    8  C   UNL     1      -9.883   4.880  68.776  1.00  0.00    -0.231 C  
HETATM    9  C   UNL     1      -8.628   4.422  70.852  1.00  0.00    -0.092 C  
HETATM   10  C   UNL     1      -9.169   5.580  69.974  1.00  0.00    -0.172 C  
ENDROOT
BRANCH   4  11
HETATM   11  C   UNL     1      -9.756   7.855  66.341  1.00  0.00    -0.165 C  
HETATM   12  C   UNL     1      -9.836   9.510  68.269  1.00  0.00    -0.174 C  
HETATM   13  C   UNL     1      -8.989  10.572  67.533  1.00  0.00    -0.137 C  
HETATM   14  C   UNL     1      -8.734   8.786  65.647  1.00  0.00    -0.215 C  
HETATM   15  C   UNL     1      -8.054   9.831  66.540  1.00  0.00    -0.116 C  
HETATM   16  C   UNL     1     -10.661   8.713  67.250  1.00  0.00    -0.308 C  
BRANCH  13  17
HETATM   17  C   UNL     1      -9.986  11.614  66.917  1.00  0.00    -0.225 A  
HETATM   18  C   UNL     1     -11.848  13.177  67.301  1.00  0.00    -0.420 A  
HETATM   19  C   UNL     1     -10.158  11.817  65.536  1.00  0.00    -0.285 A  
HETATM   20  F   UNL     1     -13.039  14.039  65.461  1.00  0.00    -0.550 F  
HETATM   21  C   UNL     1     -11.188  12.632  65.051  1.00  0.00    -0.331 A  
HETATM   22  C   UNL     1     -12.034  13.291  65.934  1.00  0.00    -0.419 A  
HETATM   23  C   UNL     1     -10.830  12.356  67.787  1.00  0.00    -0.257 A  
ENDBRANCH  13  17
BRANCH  13  24
HETATM   24  C   UNL     1      -8.108  11.357  68.490  1.00  0.00    -0.149 C  
HETATM   25  H2  UNL     1      -6.800  11.244  69.638  1.00  0.00     0.000 HD 
HETATM   26  N   UNL     1      -7.377  12.008  69.285  1.00  0.00    -0.331 NA 
HETATM   27  H1  UNL     1      -6.786  12.535  69.928  1.00  0.00     0.000 HD 
ENDBRANCH  13  24
ENDBRANCH   4  11
BRANCH  10  28
HETATM   28  C   UNL     1     -10.117   6.511  70.788  1.00  0.00    -0.211 A  
HETATM   29  C   UNL     1     -11.521   6.471  70.667  1.00  0.00    -0.433 A  
HETATM   30  C   UNL     1      -9.614   7.407  71.749  1.00  0.00    -0.168 A  
HETATM   31  C   UNL     1     -11.812   8.324  72.184  1.00  0.00    -0.431 A  
HETATM   32  C   UNL     1     -12.355   7.379  71.328  1.00  0.00    -0.380 A  
HETATM   33  C   UNL     1     -10.444   8.317  72.418  1.00  0.00    -0.404 A  
ENDBRANCH  10  28
TORSDOF 4
ENDMDL
MODEL       37
REMARK 921   NORMALIZED FREE ENERGY PREDICTED BY IDOCK:   -6.03 KCAL/MOL
REMARK 922        TOTAL FREE ENERGY PREDICTED BY IDOCK:   -7.64 KCAL/MOL
REMARK 923 INTER-LIGAND FREE ENERGY PREDICTED BY IDOCK:   -7.18 KCAL/MOL
REMARK 924 INTRA-LIGAND FREE ENERGY PREDICTED BY IDOCK:   -0.47 KCAL/MOL
REMARK 927      BINDING AFFINITY PREDICTED BY RF-SCORE:    0.00 PKD
ROOT
HETATM    1  C   UNL     1      -7.874  14.904  67.317  1.00  0.00    -0.235 C  
HETATM    2  C   UNL     1      -8.717  13.892  68.109  1.00  0.00    -0.182 C  
HETATM    3  C   UNL     1      -8.271  12.499  67.660  1.00  0.00    -0.172 C  
HETATM    4  N   UNL     1      -8.932  11.304  68.231  1.00  0.00    -0.166 NA 
HETATM    5  C   UNL     1     -10.373  11.498  68.397  1.00  0.00    -0.202 C  
HETATM    6  O   UNL     1      -9.862  15.817  69.781  1.00  0.00    -0.273 OA 
HETATM    7  O   UNL     1     -11.821  15.882  68.709  1.00  0.00    -0.393 OA 
HETATM    8  C   UNL     1     -10.799  12.877  68.939  1.00  0.00    -0.239 C  
HETATM    9  C   UNL     1     -10.605  15.339  68.923  1.00  0.00    -0.242 C  
HETATM   10  C   UNL     1     -10.275  14.075  68.087  1.00  0.00    -0.243 C  
ENDROOT
BRANCH   4  11
HETATM   11  C   UNL     1      -8.617  10.153  67.323  1.00  0.00    -0.125 C  
HETATM   12  C   UNL     1      -8.669   8.286  69.048  1.00  0.00    -0.143 C  
HETATM   13  C   UNL     1      -9.694   7.441  68.258  1.00  0.00    -0.159 C  
HETATM   14  C   UNL     1      -9.794   9.455  66.602  1.00  0.00    -0.309 C  
HETATM   15  C   UNL     1     -10.566   8.411  67.418  1.00  0.00    -0.313 C  
HETATM   16  C   UNL     1      -7.795   9.081  68.069  1.00  0.00    -0.101 C  
BRANCH  13  17
HETATM   17  C   UNL     1      -8.886   6.355  67.466  1.00  0.00    -0.111 A  
HETATM   18  C   UNL     1      -8.632   5.074  65.380  1.00  0.00    -0.143 A  
HETATM   19  C   UNL     1      -7.911   5.522  68.044  1.00  0.00    -0.096 A  
HETATM   20  F   UNL     1      -7.224   3.187  65.340  1.00  0.00    -0.060 F  
HETATM   21  C   UNL     1      -7.356   4.456  67.326  1.00  0.00    -0.073 A  
HETATM   22  C   UNL     1      -7.732   4.231  66.007  1.00  0.00    -0.090 A  
HETATM   23  C   UNL     1      -9.195   6.130  66.098  1.00  0.00    -0.150 A  
ENDBRANCH  13  17
BRANCH  13  24
HETATM   24  C   UNL     1     -10.625   6.672  69.181  1.00  0.00    -0.244 C  
HETATM   25  H2  UNL     1     -12.128   6.739  70.064  1.00  0.00     0.000 HD 
HETATM   26  N   UNL     1     -11.398   6.036  69.947  1.00  0.00    -0.378 NA 
HETATM   27  H1  UNL     1     -12.023   5.520  70.567  1.00  0.00     0.000 HD 
ENDBRANCH  13  24
ENDBRANCH   4  11
BRANCH  10  28
HETATM   28  C   UNL     1     -10.926  14.148  66.673  1.00  0.00    -0.303 A  
HETATM   29  C   UNL     1     -10.642  15.175  65.750  1.00  0.00    -0.364 A  
HETATM   30  C   UNL     1     -11.792  13.139  66.214  1.00  0.00    -0.455 A  
HETATM   31  C   UNL     1     -12.240  14.328  64.153  1.00  0.00    -0.410 A  
HETATM   32  C   UNL     1     -11.307  15.283  64.524  1.00  0.00    -0.307 A  
HETATM   33  C   UNL     1     -12.459  13.239  64.986  1.00  0.00    -0.498 A  
ENDBRANCH  10  28
TORSDOF 4
ENDMDL
MODEL       38
REMARK 921   NORMALIZED FREE ENERGY PREDICTED BY IDOCK:   -5.99 KCAL/MOL
REMARK 922        TOTAL FREE ENERGY PREDICTED BY IDOCK:   -7.60 KCAL/MOL
REMARK 923 INTER-LIGAND FREE ENERGY PREDICTED BY IDOCK:   -7.03 KCAL/MOL
REMARK 924 INTRA-LIGAND FREE ENERGY PREDICTED BY IDOCK:   -0.57 KCAL/MOL
REMARK 927      BINDING AFFINITY PREDICTED BY RF-SCORE:    0.00 PKD
ROOT
HETATM    1  C   UNL     1      -6.347   7.111  69.726  1.00  0.00    -0.035 C  
HETATM    2  C   UNL     1      -7.301   6.939  68.533  1.00  0.00    -0.090 C  
HETATM    3  C   UNL     1      -7.302   8.268  67.775  1.00  0.00    -0.093 C  
HETATM    4  N   UNL     1      -8.161   8.423  66.579  1.00  0.00    -0.103 NA 
HETATM    5  C   UNL     1      -9.463   7.775  66.749  1.00  0.00    -0.197 C  
HETATM    6  O   UNL     1      -7.650   4.193  68.921  1.00  0.00    -0.055 OA 
HETATM    7  O   UNL     1      -9.659   4.376  69.882  1.00  0.00    -0.168 OA 
HETATM    8  C   UNL     1      -9.432   6.393  67.431  1.00  0.00    -0.123 C  
HETATM    9  C   UNL     1      -8.609   4.906  69.222  1.00  0.00    -0.087 C  
HETATM   10  C   UNL     1      -8.743   6.400  68.832  1.00  0.00    -0.126 C  
ENDROOT
BRANCH   4  11
HETATM   11  C   UNL     1      -8.292   9.895  66.321  1.00  0.00    -0.125 C  
HETATM   12  C   UNL     1     -10.812  10.102  66.584  1.00  0.00    -0.084 C  
HETATM   13  C   UNL     1     -10.716  11.225  67.641  1.00  0.00    -0.270 C  
HETATM   14  C   UNL     1      -8.135  10.859  67.521  1.00  0.00    -0.116 C  
HETATM   15  C   UNL     1      -9.375  11.051  68.403  1.00  0.00    -0.179 C  
HETATM   16  C   UNL     1      -9.628  10.206  65.615  1.00  0.00    -0.302 C  
BRANCH  13  17
HETATM   17  C   UNL     1     -10.928  12.586  66.891  1.00  0.00    -0.296 A  
HETATM   18  C   UNL     1     -12.177  13.835  65.177  1.00  0.00    -0.453 A  
HETATM   19  C   UNL     1     -10.052  13.682  66.989  1.00  0.00    -0.248 A  
HETATM   20  F   UNL     1     -11.365  15.915  64.433  1.00  0.00    -0.445 F  
HETATM   21  C   UNL     1     -10.202  14.800  66.158  1.00  0.00    -0.310 A  
HETATM   22  C   UNL     1     -11.251  14.860  65.249  1.00  0.00    -0.369 A  
HETATM   23  C   UNL     1     -12.023  12.715  65.996  1.00  0.00    -0.478 A  
ENDBRANCH  13  17
BRANCH  13  24
HETATM   24  C   UNL     1     -11.837  11.137  68.664  1.00  0.00    -0.287 C  
HETATM   25  H2  UNL     1     -12.216  10.821  70.337  1.00  0.00     0.000 HD 
HETATM   26  N   UNL     1     -12.766  11.064  69.513  1.00  0.00    -0.407 NA 
HETATM   27  H1  UNL     1     -13.519  11.005  70.199  1.00  0.00     0.000 HD 
ENDBRANCH  13  24
ENDBRANCH   4  11
BRANCH  10  28
HETATM   28  C   UNL     1      -9.551   7.194  69.903  1.00  0.00    -0.163 A  
HETATM   29  C   UNL     1     -10.956   7.307  69.874  1.00  0.00    -0.262 A  
HETATM   30  C   UNL     1      -8.915   7.789  71.007  1.00  0.00    -0.147 A  
HETATM   31  C   UNL     1     -10.984   8.769  71.794  1.00  0.00    -0.415 A  
HETATM   32  C   UNL     1     -11.660   8.104  70.783  1.00  0.00    -0.249 A  
HETATM   33  C   UNL     1      -9.614   8.585  71.924  1.00  0.00    -0.353 A  
ENDBRANCH  10  28
TORSDOF 4
ENDMDL
MODEL       39
REMARK 921   NORMALIZED FREE ENERGY PREDICTED BY IDOCK:   -5.99 KCAL/MOL
REMARK 922        TOTAL FREE ENERGY PREDICTED BY IDOCK:   -7.60 KCAL/MOL
REMARK 923 INTER-LIGAND FREE ENERGY PREDICTED BY IDOCK:   -7.54 KCAL/MOL
REMARK 924 INTRA-LIGAND FREE ENERGY PREDICTED BY IDOCK:   -0.06 KCAL/MOL
REMARK 927      BINDING AFFINITY PREDICTED BY RF-SCORE:    0.00 PKD
ROOT
HETATM    1  C   UNL     1      -7.786  12.838  67.508  1.00  0.00    -0.171 C  
HETATM    2  C   UNL     1      -8.955  12.253  68.317  1.00  0.00    -0.182 C  
HETATM    3  C   UNL     1      -8.701  10.748  68.433  1.00  0.00    -0.142 C  
HETATM    4  N   UNL     1      -9.683   9.897  69.140  1.00  0.00    -0.187 NA 
HETATM    5  C   UNL     1     -11.063  10.299  68.861  1.00  0.00    -0.231 C  
HETATM    6  O   UNL     1     -10.031  14.744  68.988  1.00  0.00    -0.228 OA 
HETATM    7  O   UNL     1     -11.674  14.672  67.476  1.00  0.00    -0.365 OA 
HETATM    8  C   UNL     1     -11.319  11.820  68.842  1.00  0.00    -0.326 C  
HETATM    9  C   UNL     1     -10.657  14.095  68.149  1.00  0.00    -0.246 C  
HETATM   10  C   UNL     1     -10.409  12.596  67.839  1.00  0.00    -0.221 C  
ENDROOT
BRANCH   4  11
HETATM   11  C   UNL     1      -9.414   8.481  68.728  1.00  0.00    -0.143 C  
HETATM   12  C   UNL     1      -9.471   7.399  71.027  1.00  0.00    -0.157 C  
HETATM   13  C   UNL     1     -10.531   6.349  70.625  1.00  0.00    -0.269 C  
HETATM   14  C   UNL     1     -10.621   7.596  68.334  1.00  0.00    -0.166 C  
HETATM   15  C   UNL     1     -11.399   6.958  69.491  1.00  0.00    -0.218 C  
HETATM   16  C   UNL     1      -8.601   7.743  69.813  1.00  0.00    -0.134 C  
BRANCH  13  17
HETATM   17  C   UNL     1      -9.765   5.023  70.289  1.00  0.00    -0.285 A  
HETATM   18  C   UNL     1      -8.132   3.332  71.019  1.00  0.00    -0.068 A  
HETATM   19  C   UNL     1      -9.755   4.420  69.018  1.00  0.00    -0.223 A  
HETATM   20  F   UNL     1      -7.262   1.805  69.451  1.00  0.00    -0.036 F  
HETATM   21  C   UNL     1      -8.910   3.339  68.740  1.00  0.00    -0.165 A  
HETATM   22  C   UNL     1      -8.094   2.815  69.736  1.00  0.00    -0.041 A  
HETATM   23  C   UNL     1      -8.964   4.417  71.295  1.00  0.00    -0.166 A  
ENDBRANCH  13  17
BRANCH  13  24
HETATM   24  C   UNL     1     -11.460   6.010  71.779  1.00  0.00    -0.253 C  
HETATM   25  H2  UNL     1     -12.597   4.839  72.395  1.00  0.00     0.000 HD 
HETATM   26  N   UNL     1     -12.230   5.728  72.736  1.00  0.00    -0.517 NA 
HETATM   27  H1  UNL     1     -12.853   5.500  73.511  1.00  0.00     0.000 HD 
ENDBRANCH  13  24
ENDBRANCH   4  11
BRANCH  10  28
HETATM   28  C   UNL     1     -10.725  12.267  66.349  1.00  0.00    -0.284 A  
HETATM   29  C   UNL     1      -9.789  11.667  65.482  1.00  0.00    -0.264 A  
HETATM   30  C   UNL     1     -12.002  12.493  65.805  1.00  0.00    -0.482 A  
HETATM   31  C   UNL     1     -11.286  11.808  63.595  1.00  0.00    -0.525 A  
HETATM   32  C   UNL     1     -10.050  11.468  64.123  1.00  0.00    -0.354 A  
HETATM   33  C   UNL     1     -12.272  12.293  64.444  1.00  0.00    -0.488 A  
ENDBRANCH  10  28
TORSDOF 4
ENDMDL
MODEL       40
REMARK 921   NORMALIZED FREE ENERGY PREDICTED BY IDOCK:   -5.97 KCAL/MOL
REMARK 922        TOTAL FREE ENERGY PREDICTED BY IDOCK:   -7.58 KCAL/MOL
REMARK 923 INTER-LIGAND FREE ENERGY PREDICTED BY IDOCK:   -7.22 KCAL/MOL
REMARK 924 INTRA-LIGAND FREE ENERGY PREDICTED BY IDOCK:   -0.36 KCAL/MOL
REMARK 927      BINDING AFFINITY PREDICTED BY RF-SCORE:    0.00 PKD
ROOT
HETATM    1  C   UNL     1      -7.420  12.588  67.699  1.00  0.00    -0.139 C  
HETATM    2  C   UNL     1      -8.846  12.032  67.845  1.00  0.00    -0.174 C  
HETATM    3  C   UNL     1      -8.762  10.853  68.816  1.00  0.00    -0.158 C  
HETATM    4  N   UNL     1      -9.986  10.085  69.136  1.00  0.00    -0.192 NA 
HETATM    5  C   UNL     1     -10.839   9.895  67.961  1.00  0.00    -0.243 C  
HETATM    6  O   UNL     1     -10.043  14.116  66.419  1.00  0.00    -0.276 OA 
HETATM    7  O   UNL     1     -10.300  12.951  64.530  1.00  0.00    -0.351 OA 
HETATM    8  C   UNL     1     -10.987  11.124  67.043  1.00  0.00    -0.348 C  
HETATM    9  C   UNL     1      -9.983  13.032  65.838  1.00  0.00    -0.267 C  
HETATM   10  C   UNL     1      -9.626  11.690  66.528  1.00  0.00    -0.226 C  
ENDROOT
BRANCH   4  11
HETATM   11  C   UNL     1      -9.544   8.781  69.730  1.00  0.00    -0.172 C  
HETATM   12  C   UNL     1     -11.096   8.735  71.742  1.00  0.00    -0.417 C  
HETATM   13  C   UNL     1     -11.667   7.339  71.405  1.00  0.00    -0.317 C  
HETATM   14  C   UNL     1     -10.229   7.486  69.232  1.00  0.00    -0.201 C  
HETATM   15  C   UNL     1     -11.584   7.149  69.866  1.00  0.00    -0.097 C  
HETATM   16  C   UNL     1      -9.640   8.824  71.269  1.00  0.00    -0.323 C  
BRANCH  13  17
HETATM   17  C   UNL     1     -10.893   6.298  72.286  1.00  0.00    -0.276 A  
HETATM   18  C   UNL     1      -9.838   4.079  72.424  1.00  0.00    -0.220 A  
HETATM   19  C   UNL     1     -10.724   6.417  73.677  1.00  0.00    -0.233 A  
HETATM   20  F   UNL     1      -9.273   3.191  74.530  1.00  0.00    -0.089 F  
HETATM   21  C   UNL     1     -10.180   5.368  74.428  1.00  0.00    -0.299 A  
HETATM   22  C   UNL     1      -9.758   4.203  73.800  1.00  0.00    -0.110 A  
HETATM   23  C   UNL     1     -10.391   5.118  71.674  1.00  0.00    -0.274 A  
ENDBRANCH  13  17
BRANCH  13  24
HETATM   24  C   UNL     1     -13.128   7.214  71.802  1.00  0.00    -0.314 C  
HETATM   25  H2  UNL     1     -14.225   6.980  73.139  1.00  0.00     0.000 HD 
HETATM   26  N   UNL     1     -14.340   7.109  72.134  1.00  0.00    -0.644 NA 
HETATM   27  H1  UNL     1     -15.321   7.025  72.400  1.00  0.00     0.000 HD 
ENDBRANCH  13  24
ENDBRANCH   4  11
BRANCH  10  28
HETATM   28  C   UNL     1      -8.899  10.724  65.544  1.00  0.00    -0.203 A  
HETATM   29  C   UNL     1      -7.505  10.510  65.571  1.00  0.00    -0.111 A  
HETATM   30  C   UNL     1      -9.615   9.955  64.610  1.00  0.00    -0.320 A  
HETATM   31  C   UNL     1      -7.583   9.064  63.641  1.00  0.00    -0.115 A  
HETATM   32  C   UNL     1      -6.853   9.719  64.620  1.00  0.00    -0.123 A  
HETATM   33  C   UNL     1      -8.969   9.158  63.656  1.00  0.00     0.015 A  
ENDBRANCH  10  28
TORSDOF 4
ENDMDL
MODEL       41
REMARK 921   NORMALIZED FREE ENERGY PREDICTED BY IDOCK:   -5.95 KCAL/MOL
REMARK 922        TOTAL FREE ENERGY PREDICTED BY IDOCK:   -7.54 KCAL/MOL
REMARK 923 INTER-LIGAND FREE ENERGY PREDICTED BY IDOCK:   -7.92 KCAL/MOL
REMARK 924 INTRA-LIGAND FREE ENERGY PREDICTED BY IDOCK:    0.38 KCAL/MOL
REMARK 927      BINDING AFFINITY PREDICTED BY RF-SCORE:    0.00 PKD
ROOT
HETATM    1  C   UNL     1     -11.172  11.256  68.831  1.00  0.00    -0.315 C  
HETATM    2  C   UNL     1      -9.690  11.131  68.440  1.00  0.00    -0.191 C  
HETATM    3  C   UNL     1      -9.102  12.543  68.483  1.00  0.00    -0.061 C  
HETATM    4  N   UNL     1      -7.682  12.751  68.121  1.00  0.00    -0.126 NA 
HETATM    5  C   UNL     1      -7.274  11.916  66.990  1.00  0.00    -0.118 C  
HETATM    6  O   UNL     1      -9.688   8.337  68.472  1.00  0.00    -0.150 OA 
HETATM    7  O   UNL     1      -9.793   8.106  66.252  1.00  0.00    -0.213 OA 
HETATM    8  C   UNL     1      -7.800  10.467  67.012  1.00  0.00    -0.112 C  
HETATM    9  C   UNL     1      -9.645   8.862  67.358  1.00  0.00    -0.157 C  
HETATM   10  C   UNL     1      -9.354  10.366  67.113  1.00  0.00    -0.177 C  
ENDROOT
BRANCH   4  11
HETATM   11  C   UNL     1      -7.512  14.213  67.833  1.00  0.00    -0.152 C  
HETATM   12  C   UNL     1      -9.936  14.934  68.099  1.00  0.00    -0.222 C  
HETATM   13  C   UNL     1      -9.606  16.035  69.133  1.00  0.00    -0.257 C  
HETATM   14  C   UNL     1      -7.155  15.149  69.013  1.00  0.00    -0.140 C  
HETATM   15  C   UNL     1      -8.323  15.605  69.894  1.00  0.00     0.242 C  
HETATM   16  C   UNL     1      -8.762  14.777  67.124  1.00  0.00    -0.241 C  
BRANCH  13  17
HETATM   17  C   UNL     1      -9.542  17.395  68.356  1.00  0.00    -0.292 A  
HETATM   18  C   UNL     1     -10.596  18.896  66.715  1.00  0.00    -0.480 A  
HETATM   19  C   UNL     1      -8.416  18.238  68.337  1.00  0.00    -0.319 A  
HETATM   20  F   UNL     1      -9.365  20.696  65.829  1.00  0.00    -0.180 F  
HETATM   21  C   UNL     1      -8.360  19.346  67.483  1.00  0.00    -0.326 A  
HETATM   22  C   UNL     1      -9.441  19.657  66.669  1.00  0.00    -0.375 A  
HETATM   23  C   UNL     1     -10.650  17.784  67.556  1.00  0.00    -0.365 A  
ENDBRANCH  13  17
BRANCH  13  24
HETATM   24  C   UNL     1     -10.714  16.196  70.160  1.00  0.00    -0.289 C  
HETATM   25  H2  UNL     1     -11.343  17.217  71.428  1.00  0.00     0.000 HD 
HETATM   26  N   UNL     1     -11.633  16.331  71.013  1.00  0.00    -0.578 NA 
HETATM   27  H1  UNL     1     -12.378  16.440  71.702  1.00  0.00     0.000 HD 
ENDBRANCH  13  24
ENDBRANCH   4  11
BRANCH  10  28
HETATM   28  C   UNL     1     -10.082  10.880  65.835  1.00  0.00    -0.307 A  
HETATM   29  C   UNL     1      -9.681  10.526  64.530  1.00  0.00    -0.375 A  
HETATM   30  C   UNL     1     -11.235  11.682  65.921  1.00  0.00    -0.296 A  
HETATM   31  C   UNL     1     -11.345  11.951  63.518  1.00  0.00    -0.516 A  
HETATM   32  C   UNL     1     -10.280  11.073  63.390  1.00  0.00    -0.404 A  
HETATM   33  C   UNL     1     -11.842  12.231  64.784  1.00  0.00    -0.428 A  
ENDBRANCH  10  28
TORSDOF 4
ENDMDL
MODEL       42
REMARK 921   NORMALIZED FREE ENERGY PREDICTED BY IDOCK:   -5.90 KCAL/MOL
REMARK 922        TOTAL FREE ENERGY PREDICTED BY IDOCK:   -7.49 KCAL/MOL
REMARK 923 INTER-LIGAND FREE ENERGY PREDICTED BY IDOCK:   -7.68 KCAL/MOL
REMARK 924 INTRA-LIGAND FREE ENERGY PREDICTED BY IDOCK:    0.20 KCAL/MOL
REMARK 927      BINDING AFFINITY PREDICTED BY RF-SCORE:    0.00 PKD
ROOT
HETATM    1  C   UNL     1      -6.521   8.735  71.235  1.00  0.00    -0.071 C  
HETATM    2  C   UNL     1      -6.814   7.867  70.001  1.00  0.00    -0.045 C  
HETATM    3  C   UNL     1      -6.885   8.814  68.801  1.00  0.00    -0.062 C  
HETATM    4  N   UNL     1      -7.187   8.267  67.460  1.00  0.00    -0.087 NA 
HETATM    5  C   UNL     1      -8.201   7.213  67.511  1.00  0.00    -0.117 C  
HETATM    6  O   UNL     1      -6.495   5.443  71.356  1.00  0.00    -0.033 OA 
HETATM    7  O   UNL     1      -8.681   5.034  71.564  1.00  0.00    -0.127 OA 
HETATM    8  C   UNL     1      -8.059   6.211  68.674  1.00  0.00    -0.108 C  
HETATM    9  C   UNL     1      -7.652   5.748  71.065  1.00  0.00    -0.096 C  
HETATM   10  C   UNL     1      -8.035   6.885  70.082  1.00  0.00    -0.115 C  
ENDROOT
BRANCH   4  11
HETATM   11  C   UNL     1      -7.614   9.421  66.602  1.00  0.00    -0.094 C  
HETATM   12  C   UNL     1     -10.131   9.107  66.771  1.00  0.00    -0.341 C  
HETATM   13  C   UNL     1     -10.387  10.553  67.250  1.00  0.00    -0.275 C  
HETATM   14  C   UNL     1      -7.789  10.802  67.278  1.00  0.00    -0.113 C  
HETATM   15  C   UNL     1      -9.119  11.037  68.004  1.00  0.00    -0.152 C  
HETATM   16  C   UNL     1      -8.912   9.081  65.840  1.00  0.00    -0.233 C  
BRANCH  13  17
HETATM   17  C   UNL     1     -10.821  11.387  65.995  1.00  0.00    -0.306 A  
HETATM   18  C   UNL     1     -12.218  13.203  65.096  1.00  0.00    -0.497 A  
HETATM   19  C   UNL     1     -10.489  11.046  64.672  1.00  0.00    -0.398 A  
HETATM   20  F   UNL     1     -12.492  13.413  62.767  1.00  0.00    -0.462 F  
HETATM   21  C   UNL     1     -11.055  11.730  63.588  1.00  0.00    -0.518 A  
HETATM   22  C   UNL     1     -11.926  12.790  63.808  1.00  0.00    -0.510 A  
HETATM   23  C   UNL     1     -11.664  12.516  66.177  1.00  0.00    -0.466 A  
ENDBRANCH  13  17
BRANCH  13  24
HETATM   24  C   UNL     1     -11.553  10.630  68.222  1.00  0.00    -0.167 C  
HETATM   25  H2  UNL     1     -12.394  11.651  69.360  1.00  0.00     0.000 HD 
HETATM   26  N   UNL     1     -12.520  10.694  69.028  1.00  0.00    -0.740 NA 
HETATM   27  H1  UNL     1     -13.303  10.746  69.680  1.00  0.00     0.000 HD 
ENDBRANCH  13  24
ENDBRANCH   4  11
BRANCH  10  28
HETATM   28  C   UNL     1      -9.398   7.533  70.470  1.00  0.00    -0.160 A  
HETATM   29  C   UNL     1      -9.495   8.698  71.258  1.00  0.00    -0.289 A  
HETATM   30  C   UNL     1     -10.616   7.018  69.992  1.00  0.00    -0.251 A  
HETATM   31  C   UNL     1     -11.906   8.610  71.281  1.00  0.00    -0.344 A  
HETATM   32  C   UNL     1     -10.724   9.213  71.683  1.00  0.00    -0.441 A  
HETATM   33  C   UNL     1     -11.851   7.530  70.410  1.00  0.00    -0.062 A  
ENDBRANCH  10  28
TORSDOF 4
ENDMDL
MODEL       43
REMARK 921   NORMALIZED FREE ENERGY PREDICTED BY IDOCK:   -5.87 KCAL/MOL
REMARK 922        TOTAL FREE ENERGY PREDICTED BY IDOCK:   -7.45 KCAL/MOL
REMARK 923 INTER-LIGAND FREE ENERGY PREDICTED BY IDOCK:   -7.06 KCAL/MOL
REMARK 924 INTRA-LIGAND FREE ENERGY PREDICTED BY IDOCK:   -0.39 KCAL/MOL
REMARK 927      BINDING AFFINITY PREDICTED BY RF-SCORE:    0.00 PKD
ROOT
HETATM    1  C   UNL     1     -10.350  18.130  69.267  1.00  0.00     0.094 C  
HETATM    2  C   UNL     1     -10.411  17.270  67.994  1.00  0.00    -0.353 C  
HETATM    3  C   UNL     1     -10.434  15.809  68.449  1.00  0.00    -0.245 C  
HETATM    4  N   UNL     1     -10.461  14.731  67.436  1.00  0.00    -0.254 NA 
HETATM    5  C   UNL     1      -9.607  15.035  66.286  1.00  0.00    -0.307 C  
HETATM    6  O   UNL     1     -10.801  19.440  66.277  1.00  0.00    -0.404 OA 
HETATM    7  O   UNL     1      -8.690  19.510  65.550  1.00  0.00    -0.225 OA 
HETATM    8  C   UNL     1      -9.668  16.491  65.782  1.00  0.00    -0.237 C  
HETATM    9  C   UNL     1      -9.687  18.917  66.238  1.00  0.00    -0.344 C  
HETATM   10  C   UNL     1      -9.341  17.549  66.881  1.00  0.00    -0.275 C  
ENDROOT
BRANCH   4  11
HETATM   11  C   UNL     1     -10.047  13.467  68.128  1.00  0.00    -0.250 C  
HETATM   12  C   UNL     1     -10.989  11.795  66.461  1.00  0.00    -0.342 C  
HETATM   13  C   UNL     1      -9.644  11.056  66.281  1.00  0.00    -0.231 C  
HETATM   14  C   UNL     1      -8.638  12.902  67.827  1.00  0.00    -0.185 C  
HETATM   15  C   UNL     1      -8.501  12.072  66.545  1.00  0.00    -0.065 C  
HETATM   16  C   UNL     1     -11.084  12.350  67.888  1.00  0.00    -0.283 C  
BRANCH  13  17
HETATM   17  C   UNL     1      -9.686   9.788  67.204  1.00  0.00    -0.223 A  
HETATM   18  C   UNL     1      -8.546   8.430  68.910  1.00  0.00    -0.135 A  
HETATM   19  C   UNL     1     -10.641   8.763  67.089  1.00  0.00    -0.303 A  
HETATM   20  F   UNL     1      -9.332   6.261  69.384  1.00  0.00    -0.137 F  
HETATM   21  C   UNL     1     -10.517   7.577  67.823  1.00  0.00    -0.288 A  
HETATM   22  C   UNL     1      -9.464   7.413  68.714  1.00  0.00    -0.143 A  
HETATM   23  C   UNL     1      -8.661   9.608  68.171  1.00  0.00    -0.119 A  
ENDBRANCH  13  17
BRANCH  13  24
HETATM   24  C   UNL     1      -9.471  10.531  64.865  1.00  0.00    -0.252 C  
HETATM   25  H2  UNL     1      -8.773  10.860  63.301  1.00  0.00     0.000 HD 
HETATM   26  N   UNL     1      -9.328  10.097  63.690  1.00  0.00    -0.283 NA 
HETATM   27  H1  UNL     1      -9.212   9.745  62.740  1.00  0.00     0.000 HD 
ENDBRANCH  13  24
ENDBRANCH   4  11
BRANCH  10  28
HETATM   28  C   UNL     1      -7.854  17.504  67.348  1.00  0.00    -0.217 A  
HETATM   29  C   UNL     1      -6.929  16.555  66.866  1.00  0.00    -0.258 A  
HETATM   30  C   UNL     1      -7.336  18.463  68.236  1.00  0.00    -0.285 A  
HETATM   31  C   UNL     1      -5.184  17.359  68.326  1.00  0.00    -0.133 A  
HETATM   32  C   UNL     1      -5.626  16.462  67.365  1.00  0.00    -0.176 A  
HETATM   33  C   UNL     1      -6.031  18.379  68.738  1.00  0.00    -0.203 A  
ENDBRANCH  10  28
TORSDOF 4
ENDMDL
MODEL       44
REMARK 921   NORMALIZED FREE ENERGY PREDICTED BY IDOCK:   -5.81 KCAL/MOL
REMARK 922        TOTAL FREE ENERGY PREDICTED BY IDOCK:   -7.37 KCAL/MOL
REMARK 923 INTER-LIGAND FREE ENERGY PREDICTED BY IDOCK:   -7.59 KCAL/MOL
REMARK 924 INTRA-LIGAND FREE ENERGY PREDICTED BY IDOCK:    0.22 KCAL/MOL
REMARK 927      BINDING AFFINITY PREDICTED BY RF-SCORE:    0.00 PKD
ROOT
HETATM    1  C   UNL     1     -10.524  17.005  69.495  1.00  0.00    -0.182 C  
HETATM    2  C   UNL     1     -10.772  16.913  67.980  1.00  0.00    -0.364 C  
HETATM    3  C   UNL     1     -10.736  15.427  67.617  1.00  0.00    -0.292 C  
HETATM    4  N   UNL     1     -10.914  15.018  66.206  1.00  0.00    -0.336 NA 
HETATM    5  C   UNL     1     -10.234  15.925  65.280  1.00  0.00    -0.251 C  
HETATM    6  O   UNL     1     -11.395  19.622  67.692  1.00  0.00    -0.076 OA 
HETATM    7  O   UNL     1      -9.410  20.201  66.845  1.00  0.00    -0.358 OA 
HETATM    8  C   UNL     1     -10.359  17.426  65.610  1.00  0.00    -0.161 C  
HETATM    9  C   UNL     1     -10.300  19.272  67.249  1.00  0.00    -0.436 C  
HETATM   10  C   UNL     1      -9.872  17.795  67.046  1.00  0.00    -0.309 C  
ENDROOT
BRANCH   4  11
HETATM   11  C   UNL     1     -10.410  13.611  66.090  1.00  0.00    -0.297 C  
HETATM   12  C   UNL     1     -10.101  13.115  68.564  1.00  0.00    -0.203 C  
HETATM   13  C   UNL     1     -10.968  11.837  68.526  1.00  0.00    -0.270 C  
HETATM   14  C   UNL     1     -11.453  12.468  66.041  1.00  0.00    -0.423 C  
HETATM   15  C   UNL     1     -12.013  12.003  67.390  1.00  0.00    -0.125 C  
HETATM   16  C   UNL     1      -9.399  13.301  67.213  1.00  0.00    -0.226 C  
BRANCH  13  17
HETATM   17  C   UNL     1      -9.990  10.617  68.410  1.00  0.00    -0.176 A  
HETATM   18  C   UNL     1      -9.490   8.456  67.343  1.00  0.00    -0.185 A  
HETATM   19  C   UNL     1      -8.924  10.376  69.296  1.00  0.00    -0.176 A  
HETATM   20  F   UNL     1      -7.828   7.064  68.261  1.00  0.00    -0.107 F  
HETATM   21  C   UNL     1      -8.201   9.178  69.244  1.00  0.00    -0.118 A  
HETATM   22  C   UNL     1      -8.500   8.222  68.280  1.00  0.00    -0.136 A  
HETATM   23  C   UNL     1     -10.220   9.643  67.401  1.00  0.00    -0.283 A  
ENDBRANCH  13  17
BRANCH  13  24
HETATM   24  C   UNL     1     -11.732  11.632  69.824  1.00  0.00    -0.352 C  
HETATM   25  H2  UNL     1     -12.857  12.357  70.943  1.00  0.00     0.000 HD 
HETATM   26  N   UNL     1     -12.366  11.463  70.900  1.00  0.00    -0.392 NA 
HETATM   27  H1  UNL     1     -12.879  11.326  71.771  1.00  0.00     0.000 HD 
ENDBRANCH  13  24
ENDBRANCH   4  11
BRANCH  10  28
HETATM   28  C   UNL     1      -8.334  17.623  67.231  1.00  0.00    -0.225 A  
HETATM   29  C   UNL     1      -7.705  17.659  68.492  1.00  0.00    -0.281 A  
HETATM   30  C   UNL     1      -7.492  17.351  66.138  1.00  0.00    -0.331 A  
HETATM   31  C   UNL     1      -5.507  17.446  67.521  1.00  0.00    -0.136 A  
HETATM   32  C   UNL     1      -6.315  17.602  68.636  1.00  0.00    -0.192 A  
HETATM   33  C   UNL     1      -6.098  17.289  66.274  1.00  0.00    -0.188 A  
ENDBRANCH  10  28
TORSDOF 4
ENDMDL
MODEL       45
REMARK 921   NORMALIZED FREE ENERGY PREDICTED BY IDOCK:   -5.78 KCAL/MOL
REMARK 922        TOTAL FREE ENERGY PREDICTED BY IDOCK:   -7.33 KCAL/MOL
REMARK 923 INTER-LIGAND FREE ENERGY PREDICTED BY IDOCK:   -6.87 KCAL/MOL
REMARK 924 INTRA-LIGAND FREE ENERGY PREDICTED BY IDOCK:   -0.47 KCAL/MOL
REMARK 927      BINDING AFFINITY PREDICTED BY RF-SCORE:    0.00 PKD
ROOT
HETATM    1  C   UNL     1     -12.004  12.532  68.558  1.00  0.00    -0.266 C  
HETATM    2  C   UNL     1     -11.525  11.347  67.703  1.00  0.00    -0.348 C  
HETATM    3  C   UNL     1     -11.063  10.260  68.676  1.00  0.00    -0.239 C  
HETATM    4  N   UNL     1     -10.512   8.993  68.144  1.00  0.00    -0.219 NA 
HETATM    5  C   UNL     1      -9.666   9.212  66.970  1.00  0.00    -0.188 C  
HETATM    6  O   UNL     1     -12.430  12.432  65.292  1.00  0.00    -0.611 OA 
HETATM    7  O   UNL     1     -10.417  13.118  64.606  1.00  0.00    -0.357 OA 
HETATM    8  C   UNL     1     -10.194  10.243  65.953  1.00  0.00    -0.293 C  
HETATM    9  C   UNL     1     -11.210  12.439  65.461  1.00  0.00    -0.325 C  
HETATM   10  C   UNL     1     -10.478  11.647  66.574  1.00  0.00    -0.276 C  
ENDROOT
BRANCH   4  11
HETATM   11  C   UNL     1      -9.766   8.335  69.265  1.00  0.00    -0.177 C  
HETATM   12  C   UNL     1     -10.806   6.021  69.104  1.00  0.00    -0.422 C  
HETATM   13  C   UNL     1      -9.445   5.299  68.992  1.00  0.00    -0.182 C  
HETATM   14  C   UNL     1      -8.397   7.689  68.944  1.00  0.00    -0.129 C  
HETATM   15  C   UNL     1      -8.437   6.281  68.337  1.00  0.00    -0.115 C  
HETATM   16  C   UNL     1     -10.652   7.282  69.963  1.00  0.00    -0.247 C  
BRANCH  13  17
HETATM   17  C   UNL     1      -9.083   4.769  70.423  1.00  0.00    -0.170 A  
HETATM   18  C   UNL     1      -7.313   4.130  72.010  1.00  0.00    -0.064 A  
HETATM   19  C   UNL     1     -10.023   4.246  71.329  1.00  0.00    -0.230 A  
HETATM   20  F   UNL     1      -7.876   2.934  73.958  1.00  0.00    -0.058 F  
HETATM   21  C   UNL     1      -9.612   3.628  72.517  1.00  0.00    -0.192 A  
HETATM   22  C   UNL     1      -8.263   3.560  72.839  1.00  0.00    -0.081 A  
HETATM   23  C   UNL     1      -7.719   4.737  70.820  1.00  0.00    -0.069 A  
ENDBRANCH  13  17
BRANCH  13  24
HETATM   24  C   UNL     1      -9.527   4.069  68.104  1.00  0.00    -0.158 C  
HETATM   25  H2  UNL     1      -8.829   2.506  67.769  1.00  0.00     0.000 HD 
HETATM   26  N   UNL     1      -9.595   3.048  67.368  1.00  0.00    -0.369 NA 
HETATM   27  H1  UNL     1      -9.651   2.222  66.772  1.00  0.00     0.000 HD 
ENDBRANCH  13  24
ENDBRANCH   4  11
BRANCH  10  28
HETATM   28  C   UNL     1      -9.183  12.383  67.033  1.00  0.00    -0.208 A  
HETATM   29  C   UNL     1      -9.178  13.723  67.472  1.00  0.00    -0.216 A  
HETATM   30  C   UNL     1      -7.946  11.717  67.098  1.00  0.00    -0.163 A  
HETATM   31  C   UNL     1      -6.779  13.742  67.729  1.00  0.00    -0.180 A  
HETATM   32  C   UNL     1      -7.996  14.403  67.786  1.00  0.00    -0.166 A  
HETATM   33  C   UNL     1      -6.759  12.390  67.415  1.00  0.00    -0.152 A  
ENDBRANCH  10  28
TORSDOF 4
ENDMDL
MODEL       46
REMARK 921   NORMALIZED FREE ENERGY PREDICTED BY IDOCK:   -5.74 KCAL/MOL
REMARK 922        TOTAL FREE ENERGY PREDICTED BY IDOCK:   -7.29 KCAL/MOL
REMARK 923 INTER-LIGAND FREE ENERGY PREDICTED BY IDOCK:   -7.79 KCAL/MOL
REMARK 924 INTRA-LIGAND FREE ENERGY PREDICTED BY IDOCK:    0.50 KCAL/MOL
REMARK 927      BINDING AFFINITY PREDICTED BY RF-SCORE:    0.00 PKD
ROOT
HETATM    1  C   UNL     1     -12.926  13.914  65.619  1.00  0.00    -0.361 C  
HETATM    2  C   UNL     1     -11.468  13.490  65.858  1.00  0.00    -0.338 C  
HETATM    3  C   UNL     1     -11.484  11.981  66.115  1.00  0.00    -0.339 C  
HETATM    4  N   UNL     1     -10.215  11.280  66.412  1.00  0.00    -0.223 NA 
HETATM    5  C   UNL     1      -9.337  12.073  67.275  1.00  0.00    -0.180 C  
HETATM    6  O   UNL     1     -10.396  15.972  65.153  1.00  0.00    -0.523 OA 
HETATM    7  O   UNL     1     -10.039  16.646  67.253  1.00  0.00    -0.266 OA 
HETATM    8  C   UNL     1      -9.261  13.576  66.942  1.00  0.00    -0.254 C  
HETATM    9  C   UNL     1     -10.376  15.699  66.354  1.00  0.00    -0.296 C  
HETATM   10  C   UNL     1     -10.651  14.288  66.934  1.00  0.00    -0.273 C  
ENDROOT
BRANCH   4  11
HETATM   11  C   UNL     1     -10.576   9.963  67.031  1.00  0.00    -0.203 C  
HETATM   12  C   UNL     1      -8.230   9.036  67.345  1.00  0.00    -0.108 C  
HETATM   13  C   UNL     1      -8.425   8.760  68.853  1.00  0.00    -0.131 C  
HETATM   14  C   UNL     1     -10.752   9.906  68.567  1.00  0.00    -0.260 C  
HETATM   15  C   UNL     1      -9.467   9.777  69.393  1.00  0.00    -0.212 C  
HETATM   16  C   UNL     1      -9.568   8.872  66.614  1.00  0.00    -0.281 C  
BRANCH  13  17
HETATM   17  C   UNL     1      -8.782   7.241  69.003  1.00  0.00    -0.132 A  
HETATM   18  C   UNL     1      -8.253   4.918  68.384  1.00  0.00    -0.084 A  
HETATM   19  C   UNL     1      -9.957   6.765  69.612  1.00  0.00    -0.184 A  
HETATM   20  F   UNL     1      -9.808   3.211  68.847  1.00  0.00    -0.206 F  
HETATM   21  C   UNL     1     -10.299   5.408  69.555  1.00  0.00    -0.350 A  
HETATM   22  C   UNL     1      -9.455   4.500  68.929  1.00  0.00    -0.160 A  
HETATM   23  C   UNL     1      -7.916   6.271  68.430  1.00  0.00    -0.105 A  
ENDBRANCH  13  17
BRANCH  13  24
HETATM   24  C   UNL     1      -7.139   8.963  69.637  1.00  0.00    -0.054 C  
HETATM   25  H2  UNL     1      -5.417   8.685  69.644  1.00  0.00     0.000 HD 
HETATM   26  N   UNL     1      -6.072   9.131  70.287  1.00  0.00    -0.038 NA 
HETATM   27  H1  UNL     1      -5.209   9.268  70.813  1.00  0.00     0.000 HD 
ENDBRANCH  13  24
ENDBRANCH   4  11
BRANCH  10  28
HETATM   28  C   UNL     1     -11.300  14.374  68.348  1.00  0.00    -0.312 A  
HETATM   29  C   UNL     1     -11.667  13.234  69.092  1.00  0.00    -0.379 A  
HETATM   30  C   UNL     1     -11.493  15.610  68.990  1.00  0.00    -0.369 A  
HETATM   31  C   UNL     1     -12.614  14.568  70.867  1.00  0.00    -0.414 A  
HETATM   32  C   UNL     1     -12.339  13.326  70.316  1.00  0.00    -0.334 A  
HETATM   33  C   UNL     1     -12.162  15.709  70.217  1.00  0.00    -0.416 A  
ENDBRANCH  10  28
TORSDOF 4
ENDMDL
MODEL       47
REMARK 921   NORMALIZED FREE ENERGY PREDICTED BY IDOCK:   -5.73 KCAL/MOL
REMARK 922        TOTAL FREE ENERGY PREDICTED BY IDOCK:   -7.27 KCAL/MOL
REMARK 923 INTER-LIGAND FREE ENERGY PREDICTED BY IDOCK:   -6.64 KCAL/MOL
REMARK 924 INTRA-LIGAND FREE ENERGY PREDICTED BY IDOCK:   -0.63 KCAL/MOL
REMARK 927      BINDING AFFINITY PREDICTED BY RF-SCORE:    0.00 PKD
ROOT
HETATM    1  C   UNL     1      -6.990   6.235  65.181  1.00  0.00    -0.056 C  
HETATM    2  C   UNL     1      -8.441   6.638  65.490  1.00  0.00    -0.135 C  
HETATM    3  C   UNL     1      -8.410   8.109  65.910  1.00  0.00    -0.132 C  
HETATM    4  N   UNL     1      -9.670   8.780  66.304  1.00  0.00    -0.267 NA 
HETATM    5  C   UNL     1     -10.539   7.902  67.090  1.00  0.00    -0.313 C  
HETATM    6  O   UNL     1      -9.542   4.253  64.535  1.00  0.00    -0.159 OA 
HETATM    7  O   UNL     1      -9.870   3.355  66.555  1.00  0.00    -0.047 OA 
HETATM    8  C   UNL     1     -10.631   6.444  66.595  1.00  0.00    -0.253 C  
HETATM    9  C   UNL     1      -9.540   4.393  65.759  1.00  0.00    -0.188 C  
HETATM   10  C   UNL     1      -9.247   5.731  66.485  1.00  0.00    -0.150 C  
ENDROOT
BRANCH   4  11
HETATM   11  C   UNL     1      -9.289  10.019  67.058  1.00  0.00    -0.154 C  
HETATM   12  C   UNL     1      -9.995  11.744  65.329  1.00  0.00    -0.284 C  
HETATM   13  C   UNL     1     -10.892  12.523  66.316  1.00  0.00    -0.299 C  
HETATM   14  C   UNL     1     -10.331  10.631  68.023  1.00  0.00    -0.208 C  
HETATM   15  C   UNL     1     -11.404  11.522  67.386  1.00  0.00    -0.367 C  
HETATM   16  C   UNL     1      -8.816  11.121  66.087  1.00  0.00    -0.195 C  
BRANCH  13  17
HETATM   17  C   UNL     1     -10.058  13.745  66.836  1.00  0.00    -0.260 A  
HETATM   18  C   UNL     1      -9.403  15.141  68.754  1.00  0.00    -0.200 A  
HETATM   19  C   UNL     1      -9.423  14.677  65.996  1.00  0.00    -0.273 A  
HETATM   20  F   UNL     1      -8.334  17.204  68.377  1.00  0.00    -0.213 F  
HETATM   21  C   UNL     1      -8.845  15.841  66.519  1.00  0.00    -0.345 A  
HETATM   22  C   UNL     1      -8.855  16.071  67.889  1.00  0.00    -0.180 A  
HETATM   23  C   UNL     1      -9.990  13.986  68.234  1.00  0.00    -0.236 A  
ENDBRANCH  13  17
BRANCH  13  24
HETATM   24  C   UNL     1     -12.110  13.117  65.626  1.00  0.00    -0.449 C  
HETATM   25  H2  UNL     1     -13.803  13.495  65.804  1.00  0.00     0.000 HD 
HETATM   26  N   UNL     1     -13.120  13.609  65.055  1.00  0.00    -0.727 NA 
HETATM   27  H1  UNL     1     -13.937  14.008  64.592  1.00  0.00     0.000 HD 
ENDBRANCH  13  24
ENDBRANCH   4  11
BRANCH  10  28
HETATM   28  C   UNL     1      -8.575   5.487  67.870  1.00  0.00    -0.104 A  
HETATM   29  C   UNL     1      -9.279   5.574  69.089  1.00  0.00    -0.142 A  
HETATM   30  C   UNL     1      -7.228   5.096  67.971  1.00  0.00    -0.067 A  
HETATM   31  C   UNL     1      -7.287   5.175  70.391  1.00  0.00    -0.062 A  
HETATM   32  C   UNL     1      -8.644   5.451  70.329  1.00  0.00    -0.126 A  
HETATM   33  C   UNL     1      -6.586   4.968  69.210  1.00  0.00    -0.047 A  
ENDBRANCH  10  28
TORSDOF 4
ENDMDL
MODEL       48
REMARK 921   NORMALIZED FREE ENERGY PREDICTED BY IDOCK:   -5.66 KCAL/MOL
REMARK 922        TOTAL FREE ENERGY PREDICTED BY IDOCK:   -7.19 KCAL/MOL
REMARK 923 INTER-LIGAND FREE ENERGY PREDICTED BY IDOCK:   -7.09 KCAL/MOL
REMARK 924 INTRA-LIGAND FREE ENERGY PREDICTED BY IDOCK:   -0.10 KCAL/MOL
REMARK 927      BINDING AFFINITY PREDICTED BY RF-SCORE:    0.00 PKD
ROOT
HETATM    1  C   UNL     1     -12.283  14.301  68.202  1.00  0.00    -0.164 C  
HETATM    2  C   UNL     1     -11.647  13.326  67.197  1.00  0.00    -0.402 C  
HETATM    3  C   UNL     1     -10.812  12.336  68.012  1.00  0.00    -0.220 C  
HETATM    4  N   UNL     1     -10.045  11.282  67.311  1.00  0.00    -0.184 NA 
HETATM    5  C   UNL     1      -9.438  11.774  66.073  1.00  0.00    -0.230 C  
HETATM    6  O   UNL     1     -13.096  14.287  65.009  1.00  0.00    -0.682 OA 
HETATM    7  O   UNL     1     -11.417  15.495  64.165  1.00  0.00    -0.240 OA 
HETATM    8  C   UNL     1     -10.329  12.696  65.218  1.00  0.00    -0.309 C  
HETATM    9  C   UNL     1     -11.903  14.591  65.039  1.00  0.00    -0.399 C  
HETATM   10  C   UNL     1     -10.861  13.945  65.989  1.00  0.00    -0.290 C  
ENDROOT
BRANCH   4  11
HETATM   11  C   UNL     1      -9.021  10.768  68.278  1.00  0.00    -0.143 C  
HETATM   12  C   UNL     1     -10.552   9.355  69.735  1.00  0.00    -0.247 C  
HETATM   13  C   UNL     1      -9.704   8.074  69.570  1.00  0.00    -0.170 C  
HETATM   14  C   UNL     1      -8.258   9.474  67.908  1.00  0.00    -0.114 C  
HETATM   15  C   UNL     1      -8.982   8.154  68.198  1.00  0.00    -0.135 C  
HETATM   16  C   UNL     1      -9.640  10.587  69.680  1.00  0.00    -0.062 C  
BRANCH  13  17
HETATM   17  C   UNL     1      -8.791   7.957  70.840  1.00  0.00    -0.141 A  
HETATM   18  C   UNL     1      -8.620   8.112  73.290  1.00  0.00    -0.308 A  
HETATM   19  C   UNL     1      -7.390   7.842  70.793  1.00  0.00    -0.065 A  
HETATM   20  F   UNL     1      -6.496   8.182  74.304  1.00  0.00    -0.099 F  
HETATM   21  C   UNL     1      -6.621   7.920  71.961  1.00  0.00    -0.059 A  
HETATM   22  C   UNL     1      -7.240   8.071  73.196  1.00  0.00    -0.116 A  
HETATM   23  C   UNL     1      -9.387   8.046  72.126  1.00  0.00    -0.251 A  
ENDBRANCH  13  17
BRANCH  13  24
HETATM   24  C   UNL     1     -10.565   6.822  69.562  1.00  0.00    -0.232 C  
HETATM   25  H2  UNL     1     -12.114   6.157  70.012  1.00  0.00     0.000 HD 
HETATM   26  N   UNL     1     -11.280   5.784  69.556  1.00  0.00    -0.244 NA 
HETATM   27  H1  UNL     1     -11.859   4.944  69.550  1.00  0.00     0.000 HD 
ENDBRANCH  13  24
ENDBRANCH   4  11
BRANCH  10  28
HETATM   28  C   UNL     1      -9.734  14.955  66.363  1.00  0.00    -0.306 A  
HETATM   29  C   UNL     1      -9.907  16.353  66.298  1.00  0.00    -0.336 A  
HETATM   30  C   UNL     1      -8.492  14.517  66.856  1.00  0.00    -0.179 A  
HETATM   31  C   UNL     1      -7.612  16.772  66.916  1.00  0.00    -0.252 A  
HETATM   32  C   UNL     1      -8.858  17.247  66.540  1.00  0.00    -0.290 A  
HETATM   33  C   UNL     1      -7.438  15.407  67.104  1.00  0.00    -0.224 A  
ENDBRANCH  10  28
TORSDOF 4
ENDMDL
MODEL       49
REMARK 921   NORMALIZED FREE ENERGY PREDICTED BY IDOCK:   -5.62 KCAL/MOL
REMARK 922        TOTAL FREE ENERGY PREDICTED BY IDOCK:   -7.14 KCAL/MOL
REMARK 923 INTER-LIGAND FREE ENERGY PREDICTED BY IDOCK:   -6.98 KCAL/MOL
REMARK 924 INTRA-LIGAND FREE ENERGY PREDICTED BY IDOCK:   -0.16 KCAL/MOL
REMARK 927      BINDING AFFINITY PREDICTED BY RF-SCORE:    0.00 PKD
ROOT
HETATM    1  C   UNL     1      -7.077   6.877  69.515  1.00  0.00    -0.075 C  
HETATM    2  C   UNL     1      -8.205   6.519  68.534  1.00  0.00    -0.121 C  
HETATM    3  C   UNL     1      -8.429   7.749  67.651  1.00  0.00    -0.121 C  
HETATM    4  N   UNL     1      -9.487   7.720  66.617  1.00  0.00    -0.193 NA 
HETATM    5  C   UNL     1     -10.692   7.031  67.082  1.00  0.00    -0.363 C  
HETATM    6  O   UNL     1      -8.291   3.824  69.267  1.00  0.00    -0.063 OA 
HETATM    7  O   UNL     1     -10.115   4.015  70.543  1.00  0.00    -0.135 OA 
HETATM    8  C   UNL     1     -10.449   5.742  67.890  1.00  0.00    -0.290 C  
HETATM    9  C   UNL     1      -9.232   4.517  69.656  1.00  0.00    -0.130 C  
HETATM   10  C   UNL     1      -9.535   5.947  69.139  1.00  0.00    -0.151 C  
ENDROOT
BRANCH   4  11
HETATM   11  C   UNL     1      -9.762   9.143  66.231  1.00  0.00    -0.274 C  
HETATM   12  C   UNL     1      -9.567  10.203  68.533  1.00  0.00    -0.158 C  
HETATM   13  C   UNL     1      -8.519  11.245  68.082  1.00  0.00    -0.145 C  
HETATM   14  C   UNL     1      -8.568  10.017  65.780  1.00  0.00    -0.156 C  
HETATM   15  C   UNL     1      -7.721  10.636  66.898  1.00  0.00    -0.122 C  
HETATM   16  C   UNL     1     -10.506   9.879  67.365  1.00  0.00    -0.325 C  
BRANCH  13  17
HETATM   17  C   UNL     1      -9.286  12.583  67.800  1.00  0.00    -0.198 A  
HETATM   18  C   UNL     1      -9.267  14.795  66.721  1.00  0.00    -0.282 A  
HETATM   19  C   UNL     1     -10.477  12.958  68.448  1.00  0.00    -0.260 A  
HETATM   20  F   UNL     1     -10.898  16.388  67.310  1.00  0.00    -0.319 F  
HETATM   21  C   UNL     1     -11.015  14.240  68.281  1.00  0.00    -0.261 A  
HETATM   22  C   UNL     1     -10.398  15.152  67.434  1.00  0.00    -0.244 A  
HETATM   23  C   UNL     1      -8.723  13.521  66.894  1.00  0.00    -0.158 A  
ENDBRANCH  13  17
BRANCH  13  24
HETATM   24  C   UNL     1      -7.525  11.563  69.187  1.00  0.00    -0.025 C  
HETATM   25  H2  UNL     1      -6.831  10.997  70.684  1.00  0.00     0.000 HD 
HETATM   26  N   UNL     1      -6.701  11.826  70.104  1.00  0.00    -0.454 NA 
HETATM   27  H1  UNL     1      -6.034  12.040  70.846  1.00  0.00     0.000 HD 
ENDBRANCH  13  24
ENDBRANCH   4  11
BRANCH  10  28
HETATM   28  C   UNL     1     -10.202   6.819  70.245  1.00  0.00    -0.216 A  
HETATM   29  C   UNL     1      -9.469   7.672  71.095  1.00  0.00    -0.163 A  
HETATM   30  C   UNL     1     -11.599   6.849  70.410  1.00  0.00    -0.385 A  
HETATM   31  C   UNL     1     -11.435   8.288  72.350  1.00  0.00    -0.463 A  
HETATM   32  C   UNL     1     -10.066   8.373  72.148  1.00  0.00    -0.376 A  
HETATM   33  C   UNL     1     -12.205   7.550  71.461  1.00  0.00    -0.359 A  
ENDBRANCH  10  28
TORSDOF 4
ENDMDL
MODEL       50
REMARK 921   NORMALIZED FREE ENERGY PREDICTED BY IDOCK:   -5.61 KCAL/MOL
REMARK 922        TOTAL FREE ENERGY PREDICTED BY IDOCK:   -7.13 KCAL/MOL
REMARK 923 INTER-LIGAND FREE ENERGY PREDICTED BY IDOCK:   -6.96 KCAL/MOL
REMARK 924 INTRA-LIGAND FREE ENERGY PREDICTED BY IDOCK:   -0.18 KCAL/MOL
REMARK 927      BINDING AFFINITY PREDICTED BY RF-SCORE:    0.00 PKD
ROOT
HETATM    1  C   UNL     1      -8.138  13.580  67.124  1.00  0.00    -0.097 C  
HETATM    2  C   UNL     1      -9.498  13.547  67.840  1.00  0.00    -0.215 C  
HETATM    3  C   UNL     1      -9.595  12.191  68.541  1.00  0.00    -0.133 C  
HETATM    4  N   UNL     1     -10.820  11.849  69.298  1.00  0.00    -0.160 NA 
HETATM    5  C   UNL     1     -12.032  12.315  68.622  1.00  0.00    -0.227 C  
HETATM    6  O   UNL     1     -10.081  16.233  67.331  1.00  0.00    -0.249 OA 
HETATM    7  O   UNL     1     -11.497  15.822  65.653  1.00  0.00    -0.024 OA 
HETATM    8  C   UNL     1     -11.947  13.723  68.002  1.00  0.00    -0.390 C  
HETATM    9  C   UNL     1     -10.723  15.410  66.677  1.00  0.00    -0.309 C  
HETATM   10  C   UNL     1     -10.771  13.892  66.989  1.00  0.00    -0.283 C  
ENDROOT
BRANCH   4  11
HETATM   11  C   UNL     1     -10.816  10.362  69.490  1.00  0.00    -0.255 C  
HETATM   12  C   UNL     1      -9.969   9.686  67.190  1.00  0.00    -0.249 C  
HETATM   13  C   UNL     1      -8.802   8.842  67.750  1.00  0.00    -0.136 C  
HETATM   14  C   UNL     1      -9.549   9.711  70.095  1.00  0.00    -0.300 C  
HETATM   15  C   UNL     1      -8.395   9.443  69.122  1.00  0.00    -0.125 C  
HETATM   16  C   UNL     1     -11.151   9.642  68.167  1.00  0.00    -0.109 C  
BRANCH  13  17
HETATM   17  C   UNL     1      -9.270   7.345  67.749  1.00  0.00    -0.133 A  
HETATM   18  C   UNL     1      -8.991   5.086  68.684  1.00  0.00    -0.127 A  
HETATM   19  C   UNL     1     -10.132   6.792  66.785  1.00  0.00    -0.250 A  
HETATM   20  F   UNL     1      -9.986   3.249  67.598  1.00  0.00    -0.182 F  
HETATM   21  C   UNL     1     -10.369   5.413  66.737  1.00  0.00    -0.321 A  
HETATM   22  C   UNL     1      -9.784   4.570  67.674  1.00  0.00    -0.157 A  
HETATM   23  C   UNL     1      -8.744   6.459  68.726  1.00  0.00    -0.122 A  
ENDBRANCH  13  17
BRANCH  13  24
HETATM   24  C   UNL     1      -7.581   8.895  66.847  1.00  0.00    -0.087 C  
HETATM   25  H2  UNL     1      -6.387   7.937  66.010  1.00  0.00     0.000 HD 
HETATM   26  N   UNL     1      -6.568   8.938  66.098  1.00  0.00    -0.065 NA 
HETATM   27  H1  UNL     1      -5.749   8.973  65.491  1.00  0.00     0.000 HD 
ENDBRANCH  13  24
ENDBRANCH   4  11
BRANCH  10  28
HETATM   28  C   UNL     1     -10.961  13.054  65.690  1.00  0.00    -0.296 A  
HETATM   29  C   UNL     1      -9.887  12.451  65.002  1.00  0.00    -0.136 A  
HETATM   30  C   UNL     1     -12.241  12.795  65.166  1.00  0.00    -0.530 A  
HETATM   31  C   UNL     1     -11.327  11.648  63.240  1.00  0.00    -0.288 A  
HETATM   32  C   UNL     1     -10.059  11.786  63.784  1.00  0.00    -0.421 A  
HETATM   33  C   UNL     1     -12.421  12.127  63.948  1.00  0.00    -0.581 A  
ENDBRANCH  10  28
TORSDOF 4
ENDMDL
MODEL       51
REMARK 921   NORMALIZED FREE ENERGY PREDICTED BY IDOCK:   -5.61 KCAL/MOL
REMARK 922        TOTAL FREE ENERGY PREDICTED BY IDOCK:   -7.13 KCAL/MOL
REMARK 923 INTER-LIGAND FREE ENERGY PREDICTED BY IDOCK:   -6.53 KCAL/MOL
REMARK 924 INTRA-LIGAND FREE ENERGY PREDICTED BY IDOCK:   -0.60 KCAL/MOL
REMARK 927      BINDING AFFINITY PREDICTED BY RF-SCORE:    0.00 PKD
ROOT
HETATM    1  C   UNL     1      -6.819   6.711  68.225  1.00  0.00    -0.074 C  
HETATM    2  C   UNL     1      -8.131   7.023  67.488  1.00  0.00    -0.113 C  
HETATM    3  C   UNL     1      -8.027   8.468  66.993  1.00  0.00    -0.100 C  
HETATM    4  N   UNL     1      -9.165   9.072  66.265  1.00  0.00    -0.189 NA 
HETATM    5  C   UNL     1     -10.454   8.676  66.833  1.00  0.00    -0.258 C  
HETATM    6  O   UNL     1      -9.068   4.392  67.577  1.00  0.00    -0.116 OA 
HETATM    7  O   UNL     1     -10.494   4.738  69.262  1.00  0.00    -0.086 OA 
HETATM    8  C   UNL     1     -10.573   7.193  67.240  1.00  0.00    -0.398 C  
HETATM    9  C   UNL     1      -9.630   5.188  68.329  1.00  0.00    -0.135 C  
HETATM   10  C   UNL     1      -9.473   6.729  68.245  1.00  0.00    -0.125 C  
ENDROOT
BRANCH   4  11
HETATM   11  C   UNL     1      -8.966  10.558  66.296  1.00  0.00    -0.158 C  
HETATM   12  C   UNL     1     -11.236  11.224  67.227  1.00  0.00    -0.364 C  
HETATM   13  C   UNL     1     -10.637  12.039  68.395  1.00  0.00    -0.236 C  
HETATM   14  C   UNL     1      -8.320  11.178  67.558  1.00  0.00    -0.122 C  
HETATM   15  C   UNL     1      -9.256  11.424  68.747  1.00  0.00    -0.108 C  
HETATM   16  C   UNL     1     -10.295  11.290  66.017  1.00  0.00    -0.302 C  
BRANCH  13  17
HETATM   17  C   UNL     1     -10.646  13.546  67.960  1.00  0.00    -0.247 A  
HETATM   18  C   UNL     1      -9.558  15.749  68.099  1.00  0.00    -0.199 A  
HETATM   19  C   UNL     1     -11.722  14.168  67.301  1.00  0.00    -0.421 A  
HETATM   20  F   UNL     1     -10.710  17.662  67.353  1.00  0.00    -0.346 F  
HETATM   21  C   UNL     1     -11.739  15.554  67.100  1.00  0.00     0.132 A  
HETATM   22  C   UNL     1     -10.667  16.334  67.515  1.00  0.00    -0.300 A  
HETATM   23  C   UNL     1      -9.543  14.370  68.310  1.00  0.00    -0.211 A  
ENDBRANCH  13  17
BRANCH  13  24
HETATM   24  C   UNL     1     -11.503  11.963  69.641  1.00  0.00    -0.266 C  
HETATM   25  H2  UNL     1     -12.893  12.636  70.452  1.00  0.00     0.000 HD 
HETATM   26  N   UNL     1     -12.222  11.901  70.675  1.00  0.00    -0.374 NA 
HETATM   27  H1  UNL     1     -12.803  11.849  71.512  1.00  0.00     0.000 HD 
ENDBRANCH  13  24
ENDBRANCH   4  11
BRANCH  10  28
HETATM   28  C   UNL     1      -9.614   7.389  69.650  1.00  0.00    -0.156 A  
HETATM   29  C   UNL     1      -8.611   7.311  70.637  1.00  0.00    -0.142 A  
HETATM   30  C   UNL     1     -10.739   8.164  69.985  1.00  0.00    -0.243 A  
HETATM   31  C   UNL     1      -9.963   8.484  72.255  1.00  0.00    -0.385 A  
HETATM   32  C   UNL     1      -8.790   7.822  71.927  1.00  0.00    -0.155 A  
HETATM   33  C   UNL     1     -10.924   8.682  71.274  1.00  0.00    -0.333 A  
ENDBRANCH  10  28
TORSDOF 4
ENDMDL
MODEL       52
REMARK 921   NORMALIZED FREE ENERGY PREDICTED BY IDOCK:   -5.58 KCAL/MOL
REMARK 922        TOTAL FREE ENERGY PREDICTED BY IDOCK:   -7.09 KCAL/MOL
REMARK 923 INTER-LIGAND FREE ENERGY PREDICTED BY IDOCK:   -6.97 KCAL/MOL
REMARK 924 INTRA-LIGAND FREE ENERGY PREDICTED BY IDOCK:   -0.12 KCAL/MOL
REMARK 927      BINDING AFFINITY PREDICTED BY RF-SCORE:    0.00 PKD
ROOT
HETATM    1  C   UNL     1     -10.839   7.699  66.907  1.00  0.00    -0.127 C  
HETATM    2  C   UNL     1      -9.977   8.435  67.946  1.00  0.00    -0.228 C  
HETATM    3  C   UNL     1     -10.540   9.853  68.061  1.00  0.00    -0.242 C  
HETATM    4  N   UNL     1      -9.891  10.822  68.973  1.00  0.00    -0.203 NA 
HETATM    5  C   UNL     1      -8.432  10.706  68.952  1.00  0.00    -0.154 C  
HETATM    6  O   UNL     1      -8.570   6.150  68.726  1.00  0.00    -0.120 OA 
HETATM    7  O   UNL     1      -6.726   6.636  67.562  1.00  0.00    -0.061 OA 
HETATM    8  C   UNL     1      -7.881   9.266  68.930  1.00  0.00    -0.087 C  
HETATM    9  C   UNL     1      -7.942   6.962  68.046  1.00  0.00    -0.115 C  
HETATM   10  C   UNL     1      -8.421   8.406  67.745  1.00  0.00    -0.131 C  
ENDROOT
BRANCH   4  11
HETATM   11  C   UNL     1     -10.356  12.188  68.565  1.00  0.00    -0.221 C  
HETATM   12  C   UNL     1      -9.222  12.309  66.292  1.00  0.00    -0.171 C  
HETATM   13  C   UNL     1     -10.529  12.639  65.539  1.00  0.00    -0.304 C  
HETATM   14  C   UNL     1     -11.717  12.304  67.838  1.00  0.00    -0.410 C  
HETATM   15  C   UNL     1     -11.708  12.015  66.332  1.00  0.00    -0.326 C  
HETATM   16  C   UNL     1      -9.283  12.894  67.709  1.00  0.00    -0.200 C  
BRANCH  13  17
HETATM   17  C   UNL     1     -10.565  14.193  65.332  1.00  0.00    -0.358 A  
HETATM   18  C   UNL     1      -9.726  16.397  66.037  1.00  0.00    -0.356 A  
HETATM   19  C   UNL     1     -11.508  14.859  64.528  1.00  0.00    -0.328 A  
HETATM   20  F   UNL     1     -10.832  18.346  65.314  1.00  0.00    -0.462 F  
HETATM   21  C   UNL     1     -11.596  16.256  64.527  1.00  0.00    -0.091 A  
HETATM   22  C   UNL     1     -10.717  17.012  65.292  1.00  0.00    -0.096 A  
HETATM   23  C   UNL     1      -9.645  15.004  66.049  1.00  0.00    -0.359 A  
ENDBRANCH  13  17
BRANCH  13  24
HETATM   24  C   UNL     1     -10.547  12.036  64.144  1.00  0.00    -0.355 C  
HETATM   25  H2  UNL     1     -11.518  11.177  62.976  1.00  0.00     0.000 HD 
HETATM   26  N   UNL     1     -10.562  11.534  62.987  1.00  0.00    -0.674 NA 
HETATM   27  H1  UNL     1     -10.574  11.129  62.051  1.00  0.00     0.000 HD 
ENDBRANCH  13  24
ENDBRANCH   4  11
BRANCH  10  28
HETATM   28  C   UNL     1      -7.911   8.893  66.356  1.00  0.00    -0.103 A  
HETATM   29  C   UNL     1      -6.705   9.605  66.190  1.00  0.00    -0.083 A  
HETATM   30  C   UNL     1      -8.604   8.584  65.172  1.00  0.00    -0.179 A  
HETATM   31  C   UNL     1      -7.078   9.893  63.823  1.00  0.00    -0.126 A  
HETATM   32  C   UNL     1      -6.308  10.123  64.952  1.00  0.00    -0.128 A  
HETATM   33  C   UNL     1      -8.210   9.097  63.929  1.00  0.00    -0.172 A  
ENDBRANCH  10  28
TORSDOF 4
ENDMDL
MODEL       53
REMARK 921   NORMALIZED FREE ENERGY PREDICTED BY IDOCK:   -5.56 KCAL/MOL
REMARK 922        TOTAL FREE ENERGY PREDICTED BY IDOCK:   -7.07 KCAL/MOL
REMARK 923 INTER-LIGAND FREE ENERGY PREDICTED BY IDOCK:   -6.79 KCAL/MOL
REMARK 924 INTRA-LIGAND FREE ENERGY PREDICTED BY IDOCK:   -0.28 KCAL/MOL
REMARK 927      BINDING AFFINITY PREDICTED BY RF-SCORE:    0.00 PKD
ROOT
HETATM    1  C   UNL     1     -12.062  14.341  68.354  1.00  0.00    -0.297 C  
HETATM    2  C   UNL     1     -11.967  12.921  67.771  1.00  0.00    -0.336 C  
HETATM    3  C   UNL     1     -11.734  11.974  68.950  1.00  0.00    -0.326 C  
HETATM    4  N   UNL     1     -11.567  10.525  68.698  1.00  0.00    -0.267 NA 
HETATM    5  C   UNL     1     -10.778  10.263  67.494  1.00  0.00    -0.294 C  
HETATM    6  O   UNL     1     -12.730  13.688  65.194  1.00  0.00    -0.611 OA 
HETATM    7  O   UNL     1     -10.662  13.655  64.349  1.00  0.00    -0.410 OA 
HETATM    8  C   UNL     1     -11.093  11.166  66.285  1.00  0.00    -0.176 C  
HETATM    9  C   UNL     1     -11.541  13.404  65.341  1.00  0.00    -0.314 C  
HETATM   10  C   UNL     1     -10.960  12.691  66.590  1.00  0.00    -0.292 C  
ENDROOT
BRANCH   4  11
HETATM   11  C   UNL     1     -10.939   9.937  69.926  1.00  0.00    -0.281 C  
HETATM   12  C   UNL     1     -10.627   7.557  69.086  1.00  0.00    -0.204 C  
HETATM   13  C   UNL     1      -9.117   7.526  69.412  1.00  0.00    -0.142 C  
HETATM   14  C   UNL     1      -9.401  10.035  70.072  1.00  0.00    -0.165 C  
HETATM   15  C   UNL     1      -8.580   8.980  69.322  1.00  0.00    -0.136 C  
HETATM   16  C   UNL     1     -11.352   8.459  70.093  1.00  0.00    -0.065 C  
BRANCH  13  17
HETATM   17  C   UNL     1      -8.956   6.800  70.792  1.00  0.00    -0.151 A  
HETATM   18  C   UNL     1      -9.669   4.959  72.261  1.00  0.00    -0.207 A  
HETATM   19  C   UNL     1      -8.230   7.325  71.877  1.00  0.00    -0.106 A  
HETATM   20  F   UNL     1      -9.069   4.990  74.538  1.00  0.00    -0.112 F  
HETATM   21  C   UNL     1      -8.273   6.713  73.136  1.00  0.00    -0.117 A  
HETATM   22  C   UNL     1      -9.004   5.547  73.322  1.00  0.00    -0.123 A  
HETATM   23  C   UNL     1      -9.638   5.573  71.008  1.00  0.00    -0.217 A  
ENDBRANCH  13  17
BRANCH  13  24
HETATM   24  C   UNL     1      -8.339   6.689  68.410  1.00  0.00    -0.122 C  
HETATM   25  H2  UNL     1      -6.780   6.439  67.670  1.00  0.00     0.000 HD 
HETATM   26  N   UNL     1      -7.693   5.994  67.580  1.00  0.00    -0.096 NA 
HETATM   27  H1  UNL     1      -7.171   5.432  66.907  1.00  0.00     0.000 HD 
ENDBRANCH  13  24
ENDBRANCH   4  11
BRANCH  10  28
HETATM   28  C   UNL     1      -9.491  13.133  66.860  1.00  0.00    -0.244 A  
HETATM   29  C   UNL     1      -8.430  12.216  67.007  1.00  0.00    -0.183 A  
HETATM   30  C   UNL     1      -9.131  14.492  66.906  1.00  0.00    -0.274 A  
HETATM   31  C   UNL     1      -6.843  13.966  67.495  1.00  0.00    -0.148 A  
HETATM   32  C   UNL     1      -7.134  12.619  67.348  1.00  0.00    -0.138 A  
HETATM   33  C   UNL     1      -7.835  14.904  67.244  1.00  0.00    -0.235 A  
ENDBRANCH  10  28
TORSDOF 4
ENDMDL
MODEL       54
REMARK 921   NORMALIZED FREE ENERGY PREDICTED BY IDOCK:   -5.56 KCAL/MOL
REMARK 922        TOTAL FREE ENERGY PREDICTED BY IDOCK:   -7.06 KCAL/MOL
REMARK 923 INTER-LIGAND FREE ENERGY PREDICTED BY IDOCK:   -6.52 KCAL/MOL
REMARK 924 INTRA-LIGAND FREE ENERGY PREDICTED BY IDOCK:   -0.54 KCAL/MOL
REMARK 927      BINDING AFFINITY PREDICTED BY RF-SCORE:    0.00 PKD
ROOT
HETATM    1  C   UNL     1     -10.656   5.202  66.158  1.00  0.00    -0.293 C  
HETATM    2  C   UNL     1      -9.617   5.949  67.010  1.00  0.00    -0.144 C  
HETATM    3  C   UNL     1      -9.763   7.436  66.682  1.00  0.00    -0.194 C  
HETATM    4  N   UNL     1      -8.865   8.416  67.332  1.00  0.00    -0.134 NA 
HETATM    5  C   UNL     1      -7.496   7.913  67.452  1.00  0.00    -0.093 C  
HETATM    6  O   UNL     1      -8.894   3.697  68.500  1.00  0.00    -0.097 OA 
HETATM    7  O   UNL     1      -6.995   3.314  67.385  1.00  0.00    -0.049 OA 
HETATM    8  C   UNL     1      -7.366   6.437  67.874  1.00  0.00    -0.089 C  
HETATM    9  C   UNL     1      -8.070   4.079  67.667  1.00  0.00    -0.090 C  
HETATM   10  C   UNL     1      -8.132   5.447  66.941  1.00  0.00    -0.105 C  
ENDROOT
BRANCH   4  11
HETATM   11  C   UNL     1      -8.935   9.678  66.525  1.00  0.00    -0.147 C  
HETATM   12  C   UNL     1     -11.136  10.580  67.424  1.00  0.00    -0.322 C  
HETATM   13  C   UNL     1     -10.536  11.949  67.817  1.00  0.00    -0.233 C  
HETATM   14  C   UNL     1      -8.242  10.941  67.089  1.00  0.00    -0.126 C  
HETATM   15  C   UNL     1      -9.032  11.738  68.134  1.00  0.00    -0.181 C  
HETATM   16  C   UNL     1     -10.401  10.031  66.194  1.00  0.00    -0.225 C  
BRANCH  13  17
HETATM   17  C   UNL     1     -10.878  12.953  66.662  1.00  0.00    -0.288 A  
HETATM   18  C   UNL     1     -10.238  14.981  65.423  1.00  0.00    -0.411 A  
HETATM   19  C   UNL     1     -12.106  12.974  65.976  1.00  0.00    -0.493 A  
HETATM   20  F   UNL     1     -11.802  16.012  63.996  1.00  0.00    -0.486 F  
HETATM   21  C   UNL     1     -12.413  14.007  65.081  1.00  0.00    -0.472 A  
HETATM   22  C   UNL     1     -11.485  15.009  64.824  1.00  0.00    -0.403 A  
HETATM   23  C   UNL     1      -9.934  13.960  66.324  1.00  0.00    -0.315 A  
ENDBRANCH  13  17
BRANCH  13  24
HETATM   24  C   UNL     1     -11.191  12.516  69.066  1.00  0.00    -0.268 C  
HETATM   25  H2  UNL     1     -10.900  13.317  70.588  1.00  0.00     0.000 HD 
HETATM   26  N   UNL     1     -11.734  12.987  70.102  1.00  0.00    -0.532 NA 
HETATM   27  H1  UNL     1     -12.174  13.367  70.940  1.00  0.00     0.000 HD 
ENDBRANCH  13  24
ENDBRANCH   4  11
BRANCH  10  28
HETATM   28  C   UNL     1      -7.516   5.357  65.512  1.00  0.00    -0.077 A  
HETATM   29  C   UNL     1      -8.161   4.710  64.439  1.00  0.00    -0.112 A  
HETATM   30  C   UNL     1      -6.296   5.985  65.200  1.00  0.00    -0.038 A  
HETATM   31  C   UNL     1      -6.299   5.087  62.952  1.00  0.00    -0.025 A  
HETATM   32  C   UNL     1      -7.554   4.549  63.189  1.00  0.00    -0.058 A  
HETATM   33  C   UNL     1      -5.684   5.832  63.949  1.00  0.00    -0.021 A  
ENDBRANCH  10  28
TORSDOF 4
ENDMDL
MODEL       55
REMARK 921   NORMALIZED FREE ENERGY PREDICTED BY IDOCK:   -5.52 KCAL/MOL
REMARK 922        TOTAL FREE ENERGY PREDICTED BY IDOCK:   -7.02 KCAL/MOL
REMARK 923 INTER-LIGAND FREE ENERGY PREDICTED BY IDOCK:   -7.35 KCAL/MOL
REMARK 924 INTRA-LIGAND FREE ENERGY PREDICTED BY IDOCK:    0.33 KCAL/MOL
REMARK 927      BINDING AFFINITY PREDICTED BY RF-SCORE:    0.00 PKD
ROOT
HETATM    1  C   UNL     1      -7.791  18.097  69.427  1.00  0.00     0.288 C  
HETATM    2  C   UNL     1      -8.963  17.860  68.460  1.00  0.00    -0.291 C  
HETATM    3  C   UNL     1      -8.848  16.414  67.973  1.00  0.00    -0.184 C  
HETATM    4  N   UNL     1      -9.830  15.896  66.994  1.00  0.00    -0.228 NA 
HETATM    5  C   UNL     1     -10.177  16.894  65.981  1.00  0.00    -0.336 C  
HETATM    6  O   UNL     1     -10.206  20.301  69.017  1.00  0.00    -0.276 OA 
HETATM    7  O   UNL     1      -9.505  21.318  67.156  1.00  0.00    -0.147 OA 
HETATM    8  C   UNL     1     -10.381  18.329  66.505  1.00  0.00    -0.410 C  
HETATM    9  C   UNL     1      -9.653  20.217  67.920  1.00  0.00    -0.341 C  
HETATM   10  C   UNL     1      -9.155  18.890  67.292  1.00  0.00    -0.301 C  
ENDROOT
BRANCH   4  11
HETATM   11  C   UNL     1      -9.236  14.659  66.390  1.00  0.00    -0.249 C  
HETATM   12  C   UNL     1      -9.726  13.039  68.287  1.00  0.00    -0.221 C  
HETATM   13  C   UNL     1     -10.457  12.027  67.376  1.00  0.00    -0.239 C  
HETATM   14  C   UNL     1     -10.137  13.791  65.479  1.00  0.00    -0.303 C  
HETATM   15  C   UNL     1     -11.080  12.815  66.192  1.00  0.00    -0.322 C  
HETATM   16  C   UNL     1      -8.632  13.755  67.485  1.00  0.00    -0.194 C  
BRANCH  13  17
HETATM   17  C   UNL     1      -9.426  10.904  67.009  1.00  0.00    -0.184 A  
HETATM   18  C   UNL     1      -8.703   9.206  65.381  1.00  0.00    -0.217 A  
HETATM   19  C   UNL     1      -8.483  10.378  67.911  1.00  0.00    -0.114 A  
HETATM   20  F   UNL     1      -7.129   7.577  66.024  1.00  0.00    -0.063 F  
HETATM   21  C   UNL     1      -7.714   9.257  67.575  1.00  0.00    -0.092 A  
HETATM   22  C   UNL     1      -7.841   8.671  66.322  1.00  0.00    -0.102 A  
HETATM   23  C   UNL     1      -9.480  10.315  65.717  1.00  0.00    -0.255 A  
ENDBRANCH  13  17
BRANCH  13  24
HETATM   24  C   UNL     1     -11.591  11.326  68.105  1.00  0.00    -0.289 C  
HETATM   25  H2  UNL     1     -12.236   9.775  68.579  1.00  0.00     0.000 HD 
HETATM   26  N   UNL     1     -12.532  10.743  68.710  1.00  0.00    -0.721 NA 
HETATM   27  H1  UNL     1     -13.293  10.272  69.199  1.00  0.00     0.000 HD 
ENDBRANCH  13  24
ENDBRANCH   4  11
BRANCH  10  28
HETATM   28  C   UNL     1      -7.907  19.125  66.388  1.00  0.00    -0.296 A  
HETATM   29  C   UNL     1      -7.514  20.404  65.943  1.00  0.00    -0.157 A  
HETATM   30  C   UNL     1      -7.059  18.065  66.021  1.00  0.00    -0.330 A  
HETATM   31  C   UNL     1      -5.706  19.505  64.622  1.00  0.00    -0.282 A  
HETATM   32  C   UNL     1      -6.451  20.591  65.053  1.00  0.00    -0.321 A  
HETATM   33  C   UNL     1      -5.992  18.245  65.131  1.00  0.00    -0.170 A  
ENDBRANCH  10  28
TORSDOF 4
ENDMDL
MODEL       56
REMARK 921   NORMALIZED FREE ENERGY PREDICTED BY IDOCK:   -5.52 KCAL/MOL
REMARK 922        TOTAL FREE ENERGY PREDICTED BY IDOCK:   -7.02 KCAL/MOL
REMARK 923 INTER-LIGAND FREE ENERGY PREDICTED BY IDOCK:   -6.35 KCAL/MOL
REMARK 924 INTRA-LIGAND FREE ENERGY PREDICTED BY IDOCK:   -0.67 KCAL/MOL
REMARK 927      BINDING AFFINITY PREDICTED BY RF-SCORE:    0.00 PKD
ROOT
HETATM    1  C   UNL     1      -5.821   7.403  68.523  1.00  0.00    -0.023 C  
HETATM    2  C   UNL     1      -6.053   7.153  67.024  1.00  0.00    -0.041 C  
HETATM    3  C   UNL     1      -6.287   8.520  66.379  1.00  0.00    -0.058 C  
HETATM    4  N   UNL     1      -6.573   8.601  64.929  1.00  0.00    -0.068 NA 
HETATM    5  C   UNL     1      -7.446   7.516  64.478  1.00  0.00    -0.098 C  
HETATM    6  O   UNL     1      -5.383   4.442  67.147  1.00  0.00    -0.011 OA 
HETATM    7  O   UNL     1      -7.492   3.706  67.103  1.00  0.00    -0.070 OA 
HETATM    8  C   UNL     1      -7.135   6.126  65.068  1.00  0.00    -0.061 C  
HETATM    9  C   UNL     1      -6.580   4.694  67.001  1.00  0.00    -0.050 C  
HETATM   10  C   UNL     1      -7.139   6.092  66.628  1.00  0.00    -0.072 C  
ENDROOT
BRANCH   4  11
HETATM   11  C   UNL     1      -7.172   9.952  64.675  1.00  0.00    -0.137 C  
HETATM   12  C   UNL     1      -9.589   9.406  65.243  1.00  0.00    -0.251 C  
HETATM   13  C   UNL     1      -9.719  10.553  66.270  1.00  0.00    -0.254 C  
HETATM   14  C   UNL     1      -7.180  10.973  65.838  1.00  0.00     0.037 C  
HETATM   15  C   UNL     1      -8.311  10.824  66.863  1.00  0.00    -0.132 C  
HETATM   16  C   UNL     1      -8.611   9.815  64.135  1.00  0.00    -0.207 C  
BRANCH  13  17
HETATM   17  C   UNL     1     -10.418  11.751  65.539  1.00  0.00    -0.311 A  
HETATM   18  C   UNL     1     -10.793  14.182  65.437  1.00  0.00    -0.341 A  
HETATM   19  C   UNL     1     -11.415  11.601  64.558  1.00  0.00    -0.272 A  
HETATM   20  F   UNL     1     -12.525  15.034  64.089  1.00  0.00    -0.525 F  
HETATM   21  C   UNL     1     -12.123  12.708  64.075  1.00  0.00    -0.542 A  
HETATM   22  C   UNL     1     -11.818  13.985  64.529  1.00  0.00    -0.434 A  
HETATM   23  C   UNL     1     -10.095  13.079  65.930  1.00  0.00    -0.291 A  
ENDBRANCH  13  17
BRANCH  13  24
HETATM   24  C   UNL     1     -10.636  10.180  67.423  1.00  0.00    -0.272 C  
HETATM   25  H2  UNL     1     -11.974  10.712  68.408  1.00  0.00     0.000 HD 
HETATM   26  N   UNL     1     -11.398   9.871  68.379  1.00  0.00    -0.525 NA 
HETATM   27  H1  UNL     1     -12.013   9.620  69.153  1.00  0.00     0.000 HD 
ENDBRANCH  13  24
ENDBRANCH   4  11
BRANCH  10  28
HETATM   28  C   UNL     1      -8.555   6.315  67.239  1.00  0.00    -0.107 A  
HETATM   29  C   UNL     1      -8.760   6.675  68.587  1.00  0.00    -0.124 A  
HETATM   30  C   UNL     1      -9.714   6.234  66.447  1.00  0.00    -0.146 A  
HETATM   31  C   UNL     1     -11.160   6.577  68.359  1.00  0.00    -0.340 A  
HETATM   32  C   UNL     1     -10.037   6.776  69.148  1.00  0.00    -0.180 A  
HETATM   33  C   UNL     1     -10.997   6.336  67.001  1.00  0.00    -0.442 A  
ENDBRANCH  10  28
TORSDOF 4
ENDMDL
MODEL       57
REMARK 921   NORMALIZED FREE ENERGY PREDICTED BY IDOCK:   -5.50 KCAL/MOL
REMARK 922        TOTAL FREE ENERGY PREDICTED BY IDOCK:   -6.99 KCAL/MOL
REMARK 923 INTER-LIGAND FREE ENERGY PREDICTED BY IDOCK:   -7.21 KCAL/MOL
REMARK 924 INTRA-LIGAND FREE ENERGY PREDICTED BY IDOCK:    0.22 KCAL/MOL
REMARK 927      BINDING AFFINITY PREDICTED BY RF-SCORE:    0.00 PKD
ROOT
HETATM    1  C   UNL     1      -8.036  12.744  67.329  1.00  0.00    -0.172 C  
HETATM    2  C   UNL     1      -9.302  12.538  68.177  1.00  0.00    -0.210 C  
HETATM    3  C   UNL     1      -9.468  11.028  68.362  1.00  0.00    -0.182 C  
HETATM    4  N   UNL     1     -10.630  10.511  69.119  1.00  0.00    -0.214 NA 
HETATM    5  C   UNL     1     -11.852  11.265  68.835  1.00  0.00    -0.345 C  
HETATM    6  O   UNL     1      -9.639  15.255  68.738  1.00  0.00    -0.196 OA 
HETATM    7  O   UNL     1     -11.273  15.572  67.247  1.00  0.00    -0.308 OA 
HETATM    8  C   UNL     1     -11.682  12.795  68.745  1.00  0.00    -0.363 C  
HETATM    9  C   UNL     1     -10.438  14.768  67.937  1.00  0.00    -0.246 C  
HETATM   10  C   UNL     1     -10.617  13.247  67.697  1.00  0.00    -0.242 C  
ENDROOT
BRANCH   4  11
HETATM   11  C   UNL     1     -10.768   9.059  68.772  1.00  0.00    -0.108 C  
HETATM   12  C   UNL     1      -8.982   8.929  66.968  1.00  0.00    -0.145 C  
HETATM   13  C   UNL     1      -8.235   7.756  67.642  1.00  0.00    -0.125 C  
HETATM   14  C   UNL     1      -9.947   8.035  69.592  1.00  0.00    -0.188 C  
HETATM   15  C   UNL     1      -8.484   7.847  69.171  1.00  0.00    -0.137 C  
HETATM   16  C   UNL     1     -10.482   8.828  67.274  1.00  0.00    -0.353 C  
BRANCH  13  17
HETATM   17  C   UNL     1      -8.703   6.440  66.929  1.00  0.00    -0.115 A  
HETATM   18  C   UNL     1      -9.514   4.129  67.172  1.00  0.00    -0.215 A  
HETATM   19  C   UNL     1      -8.566   6.200  65.550  1.00  0.00    -0.133 A  
HETATM   20  F   UNL     1      -9.518   2.697  65.303  1.00  0.00    -0.152 F  
HETATM   21  C   UNL     1      -8.840   4.938  65.008  1.00  0.00    -0.154 A  
HETATM   22  C   UNL     1      -9.295   3.910  65.823  1.00  0.00    -0.162 A  
HETATM   23  C   UNL     1      -9.231   5.381  67.717  1.00  0.00    -0.115 A  
ENDBRANCH  13  17
BRANCH  13  24
HETATM   24  C   UNL     1      -6.734   7.837  67.417  1.00  0.00    -0.068 C  
HETATM   25  H2  UNL     1      -5.274   8.688  67.849  1.00  0.00     0.000 HD 
HETATM   26  N   UNL     1      -5.489   7.905  67.232  1.00  0.00    -0.035 NA 
HETATM   27  H1  UNL     1      -4.482   7.958  67.081  1.00  0.00     0.000 HD 
ENDBRANCH  13  24
ENDBRANCH   4  11
BRANCH  10  28
HETATM   28  C   UNL     1     -11.044  12.952  66.228  1.00  0.00    -0.317 A  
HETATM   29  C   UNL     1     -12.392  12.908  65.817  1.00  0.00    -0.437 A  
HETATM   30  C   UNL     1     -10.091  12.780  65.209  1.00  0.00    -0.263 A  
HETATM   31  C   UNL     1     -11.796  12.271  63.567  1.00  0.00    -0.601 A  
HETATM   32  C   UNL     1     -12.766  12.545  64.518  1.00  0.00    -0.440 A  
HETATM   33  C   UNL     1     -10.457  12.419  63.905  1.00  0.00    -0.469 A  
ENDBRANCH  10  28
TORSDOF 4
ENDMDL
MODEL       58
REMARK 921   NORMALIZED FREE ENERGY PREDICTED BY IDOCK:   -5.49 KCAL/MOL
REMARK 922        TOTAL FREE ENERGY PREDICTED BY IDOCK:   -6.98 KCAL/MOL
REMARK 923 INTER-LIGAND FREE ENERGY PREDICTED BY IDOCK:   -6.55 KCAL/MOL
REMARK 924 INTRA-LIGAND FREE ENERGY PREDICTED BY IDOCK:   -0.43 KCAL/MOL
REMARK 927      BINDING AFFINITY PREDICTED BY RF-SCORE:    0.00 PKD
ROOT
HETATM    1  C   UNL     1      -8.050  14.109  67.370  1.00  0.00    -0.205 C  
HETATM    2  C   UNL     1      -9.113  13.474  68.281  1.00  0.00    -0.189 C  
HETATM    3  C   UNL     1      -9.031  11.961  68.066  1.00  0.00    -0.185 C  
HETATM    4  N   UNL     1      -9.965  11.071  68.793  1.00  0.00    -0.202 NA 
HETATM    5  C   UNL     1     -11.311  11.639  68.879  1.00  0.00    -0.267 C  
HETATM    6  O   UNL     1      -9.730  15.860  69.599  1.00  0.00    -0.265 OA 
HETATM    7  O   UNL     1     -11.619  16.237  68.467  1.00  0.00    -0.346 OA 
HETATM    8  C   UNL     1     -11.376  13.148  69.190  1.00  0.00    -0.335 C  
HETATM    9  C   UNL     1     -10.576  15.451  68.801  1.00  0.00    -0.235 C  
HETATM   10  C   UNL     1     -10.576  14.030  68.180  1.00  0.00    -0.252 C  
ENDROOT
BRANCH   4  11
HETATM   11  C   UNL     1      -9.953   9.750  68.083  1.00  0.00    -0.154 C  
HETATM   12  C   UNL     1      -8.068   8.641  69.379  1.00  0.00    -0.111 C  
HETATM   13  C   UNL     1      -8.910   7.400  69.750  1.00  0.00    -0.141 C  
HETATM   14  C   UNL     1     -10.898   8.640  68.601  1.00  0.00    -0.003 C  
HETATM   15  C   UNL     1     -10.400   7.833  69.805  1.00  0.00    -0.221 C  
HETATM   16  C   UNL     1      -8.520   9.181  68.017  1.00  0.00    -0.121 C  
BRANCH  13  17
HETATM   17  C   UNL     1      -8.544   6.269  68.727  1.00  0.00    -0.122 A  
HETATM   18  C   UNL     1      -6.775   5.097  67.481  1.00  0.00    -0.055 A  
HETATM   19  C   UNL     1      -9.490   5.567  67.958  1.00  0.00    -0.129 A  
HETATM   20  F   UNL     1      -7.358   3.679  65.694  1.00  0.00    -0.069 F  
HETATM   21  C   UNL     1      -9.086   4.698  66.937  1.00  0.00    -0.123 A  
HETATM   22  C   UNL     1      -7.735   4.482  66.696  1.00  0.00    -0.094 A  
HETATM   23  C   UNL     1      -7.175   5.973  68.491  1.00  0.00    -0.084 A  
ENDBRANCH  13  17
BRANCH  13  24
HETATM   24  C   UNL     1      -8.542   6.854  71.120  1.00  0.00    -0.131 C  
HETATM   25  H2  UNL     1      -7.233   6.595  72.243  1.00  0.00     0.000 HD 
HETATM   26  N   UNL     1      -8.235   6.402  72.256  1.00  0.00    -0.108 NA 
HETATM   27  H1  UNL     1      -7.987   6.036  73.175  1.00  0.00     0.000 HD 
ENDBRANCH  13  24
ENDBRANCH   4  11
BRANCH  10  28
HETATM   28  C   UNL     1     -11.199  14.038  66.752  1.00  0.00    -0.323 A  
HETATM   29  C   UNL     1     -12.052  13.018  66.282  1.00  0.00    -0.453 A  
HETATM   30  C   UNL     1     -10.992  15.113  65.869  1.00  0.00    -0.339 A  
HETATM   31  C   UNL     1     -12.205  14.010  64.088  1.00  0.00    -0.433 A  
HETATM   32  C   UNL     1     -12.524  12.986  64.966  1.00  0.00    -0.534 A  
HETATM   33  C   UNL     1     -11.464  15.090  64.550  1.00  0.00    -0.320 A  
ENDBRANCH  10  28
TORSDOF 4
ENDMDL
MODEL       59
REMARK 921   NORMALIZED FREE ENERGY PREDICTED BY IDOCK:   -5.47 KCAL/MOL
REMARK 922        TOTAL FREE ENERGY PREDICTED BY IDOCK:   -6.95 KCAL/MOL
REMARK 923 INTER-LIGAND FREE ENERGY PREDICTED BY IDOCK:   -6.90 KCAL/MOL
REMARK 924 INTRA-LIGAND FREE ENERGY PREDICTED BY IDOCK:   -0.06 KCAL/MOL
REMARK 927      BINDING AFFINITY PREDICTED BY RF-SCORE:    0.00 PKD
ROOT
HETATM    1  C   UNL     1      -7.550   8.764  68.442  1.00  0.00    -0.095 C  
HETATM    2  C   UNL     1      -8.442   9.322  67.321  1.00  0.00    -0.125 C  
HETATM    3  C   UNL     1      -8.047  10.788  67.132  1.00  0.00    -0.124 C  
HETATM    4  N   UNL     1      -8.761  11.611  66.130  1.00  0.00    -0.143 NA 
HETATM    5  C   UNL     1     -10.195  11.319  66.100  1.00  0.00    -0.245 C  
HETATM    6  O   UNL     1      -9.527   6.837  66.644  1.00  0.00    -0.159 OA 
HETATM    7  O   UNL     1     -11.471   7.168  67.696  1.00  0.00     0.137 OA 
HETATM    8  C   UNL     1     -10.572   9.827  66.198  1.00  0.00    -0.018 C  
HETATM    9  C   UNL     1     -10.280   7.608  67.241  1.00  0.00    -0.272 C  
HETATM   10  C   UNL     1      -9.991   9.116  67.460  1.00  0.00    -0.258 C  
ENDROOT
BRANCH   4  11
HETATM   11  C   UNL     1      -8.483  13.046  66.462  1.00  0.00     0.232 C  
HETATM   12  C   UNL     1     -10.883  13.858  66.674  1.00  0.00    -0.289 C  
HETATM   13  C   UNL     1     -10.672  14.442  68.089  1.00  0.00    -0.239 C  
HETATM   14  C   UNL     1      -8.275  13.420  67.949  1.00  0.00    -0.162 C  
HETATM   15  C   UNL     1      -9.547  13.625  68.780  1.00  0.00    -0.017 C  
HETATM   16  C   UNL     1      -9.578  13.962  65.875  1.00  0.00    -0.171 C  
BRANCH  13  17
HETATM   17  C   UNL     1     -10.425  15.981  67.923  1.00  0.00    -0.292 A  
HETATM   18  C   UNL     1     -10.094  18.158  69.023  1.00  0.00    -0.290 A  
HETATM   19  C   UNL     1     -10.519  16.665  66.697  1.00  0.00    -0.258 A  
HETATM   20  F   UNL     1     -10.251  20.135  67.755  1.00  0.00    -0.507 F  
HETATM   21  C   UNL     1     -10.461  18.063  66.645  1.00  0.00    -0.332 A  
HETATM   22  C   UNL     1     -10.267  18.798  67.808  1.00  0.00    -0.394 A  
HETATM   23  C   UNL     1     -10.163  16.765  69.078  1.00  0.00    -0.310 A  
ENDBRANCH  13  17
BRANCH  13  24
HETATM   24  C   UNL     1     -11.921  14.314  68.946  1.00  0.00    -0.320 C  
HETATM   25  H2  UNL     1     -12.579  13.634  70.411  1.00  0.00     0.000 HD 
HETATM   26  N   UNL     1     -12.957  14.207  69.657  1.00  0.00    -0.199 NA 
HETATM   27  H1  UNL     1     -13.795  14.122  70.232  1.00  0.00     0.000 HD 
ENDBRANCH  13  24
ENDBRANCH   4  11
BRANCH  10  28
HETATM   28  C   UNL     1     -10.623   9.624  68.791  1.00  0.00    -0.242 A  
HETATM   29  C   UNL     1     -10.183   9.196  70.060  1.00  0.00    -0.229 A  
HETATM   30  C   UNL     1     -11.634  10.602  68.794  1.00  0.00    -0.309 A  
HETATM   31  C   UNL     1     -11.892  10.465  71.197  1.00  0.00    -0.432 A  
HETATM   32  C   UNL     1     -10.823   9.584  71.243  1.00  0.00    -0.413 A  
HETATM   33  C   UNL     1     -12.277  10.997  69.975  1.00  0.00    -0.418 A  
ENDBRANCH  10  28
TORSDOF 4
ENDMDL
MODEL       60
REMARK 921   NORMALIZED FREE ENERGY PREDICTED BY IDOCK:   -5.41 KCAL/MOL
REMARK 922        TOTAL FREE ENERGY PREDICTED BY IDOCK:   -6.88 KCAL/MOL
REMARK 923 INTER-LIGAND FREE ENERGY PREDICTED BY IDOCK:   -6.35 KCAL/MOL
REMARK 924 INTRA-LIGAND FREE ENERGY PREDICTED BY IDOCK:   -0.53 KCAL/MOL
REMARK 927      BINDING AFFINITY PREDICTED BY RF-SCORE:    0.00 PKD
ROOT
HETATM    1  C   UNL     1      -5.722   7.847  71.645  1.00  0.00    -0.035 C  
HETATM    2  C   UNL     1      -6.628   7.524  70.446  1.00  0.00    -0.042 C  
HETATM    3  C   UNL     1      -7.326   8.829  70.056  1.00  0.00    -0.053 C  
HETATM    4  N   UNL     1      -8.298   8.829  68.940  1.00  0.00    -0.125 NA 
HETATM    5  C   UNL     1      -9.131   7.625  68.935  1.00  0.00    -0.140 C  
HETATM    6  O   UNL     1      -5.639   4.931  70.112  1.00  0.00    -0.014 OA 
HETATM    7  O   UNL     1      -7.379   3.921  71.084  1.00  0.00    -0.039 OA 
HETATM    8  C   UNL     1      -8.392   6.306  69.237  1.00  0.00    -0.117 C  
HETATM    9  C   UNL     1      -6.773   5.018  70.586  1.00  0.00    -0.039 C  
HETATM   10  C   UNL     1      -7.620   6.317  70.594  1.00  0.00    -0.096 C  
ENDROOT
BRANCH   4  11
HETATM   11  C   UNL     1      -9.115  10.080  69.070  1.00  0.00    -0.171 C  
HETATM   12  C   UNL     1      -8.598  11.107  66.803  1.00  0.00    -0.157 C  
HETATM   13  C   UNL     1     -10.085  11.268  66.418  1.00  0.00    -0.260 C  
HETATM   14  C   UNL     1     -10.603  10.022  68.651  1.00  0.00    -0.239 C  
HETATM   15  C   UNL     1     -10.891  10.163  67.152  1.00  0.00    -0.257 C  
HETATM   16  C   UNL     1      -8.441  11.249  68.322  1.00  0.00    -0.152 C  
BRANCH  13  17
HETATM   17  C   UNL     1     -10.484  12.753  66.726  1.00  0.00    -0.253 A  
HETATM   18  C   UNL     1      -9.740  15.081  67.019  1.00  0.00    -0.241 A  
HETATM   19  C   UNL     1     -11.752  13.146  67.192  1.00  0.00    -0.430 A  
HETATM   20  F   UNL     1     -11.201  16.654  67.985  1.00  0.00    -0.350 F  
HETATM   21  C   UNL     1     -11.988  14.460  67.617  1.00  0.00    -0.378 A  
HETATM   22  C   UNL     1     -10.978  15.411  67.543  1.00  0.00    -0.315 A  
HETATM   23  C   UNL     1      -9.499  13.770  66.606  1.00  0.00    -0.289 A  
ENDBRANCH  13  17
BRANCH  13  24
HETATM   24  C   UNL     1     -10.307  11.081  64.926  1.00  0.00    -0.313 C  
HETATM   25  H2  UNL     1     -10.119   9.980  63.586  1.00  0.00     0.000 HD 
HETATM   26  N   UNL     1     -10.491  10.925  63.688  1.00  0.00    -0.529 NA 
HETATM   27  H1  UNL     1     -10.640  10.799  62.687  1.00  0.00     0.000 HD 
ENDBRANCH  13  24
ENDBRANCH   4  11
BRANCH  10  28
HETATM   28  C   UNL     1      -8.564   6.368  71.832  1.00  0.00    -0.127 A  
HETATM   29  C   UNL     1      -9.950   6.118  71.749  1.00  0.00    -0.197 A  
HETATM   30  C   UNL     1      -8.064   6.603  73.125  1.00  0.00    -0.108 A  
HETATM   31  C   UNL     1     -10.286   6.609  74.088  1.00  0.00    -0.390 A  
HETATM   32  C   UNL     1     -10.802   6.264  72.849  1.00  0.00    -0.284 A  
HETATM   33  C   UNL     1      -8.912   6.748  74.232  1.00  0.00    -0.213 A  
ENDBRANCH  10  28
TORSDOF 4
ENDMDL
MODEL       61
REMARK 921   NORMALIZED FREE ENERGY PREDICTED BY IDOCK:   -5.35 KCAL/MOL
REMARK 922        TOTAL FREE ENERGY PREDICTED BY IDOCK:   -6.81 KCAL/MOL
REMARK 923 INTER-LIGAND FREE ENERGY PREDICTED BY IDOCK:   -6.02 KCAL/MOL
REMARK 924 INTRA-LIGAND FREE ENERGY PREDICTED BY IDOCK:   -0.78 KCAL/MOL
REMARK 927      BINDING AFFINITY PREDICTED BY RF-SCORE:    0.00 PKD
ROOT
HETATM    1  C   UNL     1     -10.880   6.615  66.805  1.00  0.00    -0.322 C  
HETATM    2  C   UNL     1      -9.896   6.967  67.932  1.00  0.00    -0.155 C  
HETATM    3  C   UNL     1     -10.365   8.296  68.529  1.00  0.00    -0.199 C  
HETATM    4  N   UNL     1      -9.589   8.914  69.627  1.00  0.00    -0.166 NA 
HETATM    5  C   UNL     1      -8.146   8.767  69.433  1.00  0.00    -0.106 C  
HETATM    6  O   UNL     1      -8.565   4.511  67.839  1.00  0.00    -0.101 OA 
HETATM    7  O   UNL     1      -6.796   5.279  66.710  1.00  0.00    -0.060 OA 
HETATM    8  C   UNL     1      -7.683   7.389  68.921  1.00  0.00    -0.115 C  
HETATM    9  C   UNL     1      -7.948   5.475  67.383  1.00  0.00    -0.101 C  
HETATM   10  C   UNL     1      -8.366   6.955  67.586  1.00  0.00    -0.123 C  
ENDROOT
BRANCH   4  11
HETATM   11  C   UNL     1     -10.006  10.353  69.702  1.00  0.00    -0.174 C  
HETATM   12  C   UNL     1      -9.178  11.106  67.420  1.00  0.00    -0.157 C  
HETATM   13  C   UNL     1     -10.547  11.682  66.995  1.00  0.00    -0.272 C  
HETATM   14  C   UNL     1     -11.440  10.718  69.249  1.00  0.00    -0.369 C  
HETATM   15  C   UNL     1     -11.651  10.886  67.740  1.00  0.00    -0.231 C  
HETATM   16  C   UNL     1      -9.008  11.248  68.938  1.00  0.00    -0.054 C  
BRANCH  13  17
HETATM   17  C   UNL     1     -10.499  13.228  67.251  1.00  0.00    -0.247 A  
HETATM   18  C   UNL     1     -11.623  15.210  68.179  1.00  0.00    -0.358 A  
HETATM   19  C   UNL     1      -9.546  14.090  66.679  1.00  0.00    -0.299 A  
HETATM   20  F   UNL     1     -10.837  17.359  67.622  1.00  0.00    -0.357 F  
HETATM   21  C   UNL     1      -9.665  15.480  66.805  1.00  0.00    -0.252 A  
HETATM   22  C   UNL     1     -10.710  16.029  67.538  1.00  0.00    -0.314 A  
HETATM   23  C   UNL     1     -11.514  13.826  68.045  1.00  0.00    -0.344 A  
ENDBRANCH  13  17
BRANCH  13  24
HETATM   24  C   UNL     1     -10.792  11.517  65.504  1.00  0.00    -0.254 C  
HETATM   25  H2  UNL     1     -11.992  11.601  64.241  1.00  0.00     0.000 HD 
HETATM   26  N   UNL     1     -10.996  11.380  64.267  1.00  0.00    -0.345 NA 
HETATM   27  H1  UNL     1     -11.161  11.270  63.267  1.00  0.00     0.000 HD 
ENDBRANCH  13  24
ENDBRANCH   4  11
BRANCH  10  28
HETATM   28  C   UNL     1      -7.942   7.833  66.371  1.00  0.00    -0.099 A  
HETATM   29  C   UNL     1      -8.767   8.033  65.245  1.00  0.00    -0.062 A  
HETATM   30  C   UNL     1      -6.724   8.536  66.365  1.00  0.00    -0.070 A  
HETATM   31  C   UNL     1      -7.080   9.328  64.105  1.00  0.00    -0.098 A  
HETATM   32  C   UNL     1      -8.336   8.742  64.118  1.00  0.00    -0.155 A  
HETATM   33  C   UNL     1      -6.286   9.251  65.242  1.00  0.00    -0.065 A  
ENDBRANCH  10  28
TORSDOF 4
ENDMDL
MODEL       62
REMARK 921   NORMALIZED FREE ENERGY PREDICTED BY IDOCK:   -5.34 KCAL/MOL
REMARK 922        TOTAL FREE ENERGY PREDICTED BY IDOCK:   -6.80 KCAL/MOL
REMARK 923 INTER-LIGAND FREE ENERGY PREDICTED BY IDOCK:   -6.10 KCAL/MOL
REMARK 924 INTRA-LIGAND FREE ENERGY PREDICTED BY IDOCK:   -0.69 KCAL/MOL
REMARK 927      BINDING AFFINITY PREDICTED BY RF-SCORE:    0.00 PKD
ROOT
HETATM    1  C   UNL     1     -10.276   3.930  72.235  1.00  0.00    -0.216 C  
HETATM    2  C   UNL     1      -9.083   4.862  72.499  1.00  0.00    -0.145 C  
HETATM    3  C   UNL     1      -9.612   6.295  72.406  1.00  0.00    -0.150 C  
HETATM    4  N   UNL     1      -8.678   7.429  72.586  1.00  0.00    -0.121 NA 
HETATM    5  C   UNL     1      -7.380   7.179  71.957  1.00  0.00    -0.081 C  
HETATM    6  O   UNL     1      -7.350   2.799  73.240  1.00  0.00    -0.042 OA 
HETATM    7  O   UNL     1      -6.255   2.740  71.293  1.00  0.00    -0.017 OA 
HETATM    8  C   UNL     1      -6.818   5.755  72.141  1.00  0.00    -0.073 C  
HETATM    9  C   UNL     1      -7.141   3.307  72.138  1.00  0.00    -0.038 C  
HETATM   10  C   UNL     1      -7.784   4.631  71.650  1.00  0.00    -0.095 C  
ENDROOT
BRANCH   4  11
HETATM   11  C   UNL     1      -9.353   8.645  72.025  1.00  0.00    -0.292 C  
HETATM   12  C   UNL     1      -9.051   8.138  69.552  1.00  0.00    -0.151 C  
HETATM   13  C   UNL     1     -10.556   8.280  69.230  1.00  0.00    -0.191 C  
HETATM   14  C   UNL     1     -10.883   8.589  71.801  1.00  0.00    -0.374 C  
HETATM   15  C   UNL     1     -11.354   7.910  70.509  1.00  0.00    -0.242 C  
HETATM   16  C   UNL     1      -8.681   9.080  70.705  1.00  0.00    -0.269 C  
BRANCH  13  17
HETATM   17  C   UNL     1     -10.773   9.723  68.657  1.00  0.00    -0.247 A  
HETATM   18  C   UNL     1     -11.986  11.858  68.825  1.00  0.00    -0.307 A  
HETATM   19  C   UNL     1     -10.237  10.174  67.438  1.00  0.00    -0.267 A  
HETATM   20  F   UNL     1     -11.880  13.396  67.046  1.00  0.00    -0.347 F  
HETATM   21  C   UNL     1     -10.614  11.410  66.898  1.00  0.00    -0.292 A  
HETATM   22  C   UNL     1     -11.496  12.233  67.586  1.00  0.00    -0.336 A  
HETATM   23  C   UNL     1     -11.621  10.621  69.359  1.00  0.00    -0.352 A  
ENDBRANCH  13  17
BRANCH  13  24
HETATM   24  C   UNL     1     -10.991   7.327  68.129  1.00  0.00     0.007 C  
HETATM   25  H2  UNL     1     -12.353   6.737  67.213  1.00  0.00     0.000 HD 
HETATM   26  N   UNL     1     -11.353   6.537  67.215  1.00  0.00    -0.769 NA 
HETATM   27  H1  UNL     1     -11.644   5.898  66.475  1.00  0.00     0.000 HD 
ENDBRANCH  13  24
ENDBRANCH   4  11
BRANCH  10  28
HETATM   28  C   UNL     1      -7.979   4.628  70.104  1.00  0.00    -0.064 A  
HETATM   29  C   UNL     1      -7.082   5.258  69.217  1.00  0.00    -0.057 A  
HETATM   30  C   UNL     1      -9.041   3.930  69.502  1.00  0.00    -0.196 A  
HETATM   31  C   UNL     1      -8.442   4.727  67.296  1.00  0.00    -0.105 A  
HETATM   32  C   UNL     1      -7.321   5.334  67.841  1.00  0.00    -0.076 A  
HETATM   33  C   UNL     1      -9.285   3.999  68.124  1.00  0.00    -0.203 A  
ENDBRANCH  10  28
TORSDOF 4
ENDMDL
MODEL       63
REMARK 921   NORMALIZED FREE ENERGY PREDICTED BY IDOCK:   -5.31 KCAL/MOL
REMARK 922        TOTAL FREE ENERGY PREDICTED BY IDOCK:   -6.76 KCAL/MOL
REMARK 923 INTER-LIGAND FREE ENERGY PREDICTED BY IDOCK:   -6.30 KCAL/MOL
REMARK 924 INTRA-LIGAND FREE ENERGY PREDICTED BY IDOCK:   -0.47 KCAL/MOL
REMARK 927      BINDING AFFINITY PREDICTED BY RF-SCORE:    0.00 PKD
ROOT
HETATM    1  C   UNL     1     -11.471  15.570  68.890  1.00  0.00    -0.362 C  
HETATM    2  C   UNL     1     -11.026  14.555  67.825  1.00  0.00    -0.282 C  
HETATM    3  C   UNL     1     -10.887  13.205  68.532  1.00  0.00    -0.262 C  
HETATM    4  N   UNL     1     -10.436  12.023  67.764  1.00  0.00    -0.199 NA 
HETATM    5  C   UNL     1      -9.385  12.360  66.803  1.00  0.00    -0.220 C  
HETATM    6  O   UNL     1     -11.359  16.320  65.684  1.00  0.00     0.082 OA 
HETATM    7  O   UNL     1      -9.185  16.783  65.459  1.00  0.00    -0.443 OA 
HETATM    8  C   UNL     1      -9.589  13.679  66.031  1.00  0.00    -0.186 C  
HETATM    9  C   UNL     1     -10.195  16.072  66.001  1.00  0.00    -0.341 C  
HETATM   10  C   UNL     1      -9.774  14.924  66.954  1.00  0.00    -0.248 C  
ENDROOT
BRANCH   4  11
HETATM   11  C   UNL     1      -9.985  10.998  68.760  1.00  0.00    -0.207 C  
HETATM   12  C   UNL     1     -10.768   8.911  67.537  1.00  0.00    -0.223 C  
HETATM   13  C   UNL     1      -9.379   8.234  67.584  1.00  0.00    -0.158 C  
HETATM   14  C   UNL     1      -8.537  10.463  68.647  1.00  0.00    -0.133 C  
HETATM   15  C   UNL     1      -8.304   9.353  67.616  1.00  0.00    -0.119 C  
HETATM   16  C   UNL     1     -10.951   9.794  68.778  1.00  0.00    -0.185 C  
BRANCH  13  17
HETATM   17  C   UNL     1      -9.392   7.234  68.791  1.00  0.00    -0.143 A  
HETATM   18  C   UNL     1      -8.085   5.991  70.466  1.00  0.00    -0.112 A  
HETATM   19  C   UNL     1     -10.522   6.498  69.191  1.00  0.00    -0.260 A  
HETATM   20  F   UNL     1      -9.106   4.249  71.676  1.00  0.00    -0.129 F  
HETATM   21  C   UNL     1     -10.420   5.493  70.161  1.00  0.00    -0.370 A  
HETATM   22  C   UNL     1      -9.202   5.237  70.777  1.00  0.00    -0.152 A  
HETATM   23  C   UNL     1      -8.181   6.985  69.491  1.00  0.00    -0.132 A  
ENDBRANCH  13  17
BRANCH  13  24
HETATM   24  C   UNL     1      -9.121   7.388  66.348  1.00  0.00    -0.160 C  
HETATM   25  H2  UNL     1      -7.905   6.527  65.440  1.00  0.00     0.000 HD 
HETATM   26  N   UNL     1      -8.906   6.685  65.323  1.00  0.00    -0.364 NA 
HETATM   27  H1  UNL     1      -8.733   6.117  64.494  1.00  0.00     0.000 HD 
ENDBRANCH  13  24
ENDBRANCH   4  11
BRANCH  10  28
HETATM   28  C   UNL     1      -8.485  15.291  67.747  1.00  0.00    -0.158 A  
HETATM   29  C   UNL     1      -8.448  16.312  68.720  1.00  0.00    -0.240 A  
HETATM   30  C   UNL     1      -7.290  14.568  67.579  1.00  0.00    -0.212 A  
HETATM   31  C   UNL     1      -6.078  16.034  69.077  1.00  0.00    -0.128 A  
HETATM   32  C   UNL     1      -7.262  16.699  69.353  1.00  0.00    -0.132 A  
HETATM   33  C   UNL     1      -6.099  14.948  68.212  1.00  0.00    -0.123 A  
ENDBRANCH  10  28
TORSDOF 4
ENDMDL
MODEL       64
REMARK 921   NORMALIZED FREE ENERGY PREDICTED BY IDOCK:   -5.29 KCAL/MOL
REMARK 922        TOTAL FREE ENERGY PREDICTED BY IDOCK:   -6.73 KCAL/MOL
REMARK 923 INTER-LIGAND FREE ENERGY PREDICTED BY IDOCK:   -7.38 KCAL/MOL
REMARK 924 INTRA-LIGAND FREE ENERGY PREDICTED BY IDOCK:    0.66 KCAL/MOL
REMARK 927      BINDING AFFINITY PREDICTED BY RF-SCORE:    0.00 PKD
ROOT
HETATM    1  C   UNL     1      -8.802  13.950  67.276  1.00  0.00    -0.227 C  
HETATM    2  C   UNL     1      -9.902  13.031  67.831  1.00  0.00    -0.224 C  
HETATM    3  C   UNL     1      -9.194  11.898  68.578  1.00  0.00    -0.134 C  
HETATM    4  N   UNL     1      -9.998  10.825  69.204  1.00  0.00    -0.207 NA 
HETATM    5  C   UNL     1     -11.139  10.436  68.373  1.00  0.00    -0.268 C  
HETATM    6  O   UNL     1     -11.997  14.745  67.137  1.00  0.00    -0.351 OA 
HETATM    7  O   UNL     1     -12.617  13.590  65.328  1.00  0.00    -0.477 OA 
HETATM    8  C   UNL     1     -11.898  11.599  67.703  1.00  0.00    -0.216 C  
HETATM    9  C   UNL     1     -11.885  13.728  66.452  1.00  0.00    -0.404 C  
HETATM   10  C   UNL     1     -10.991  12.517  66.826  1.00  0.00    -0.304 C  
ENDROOT
BRANCH   4  11
HETATM   11  C   UNL     1      -9.070   9.676  69.463  1.00  0.00    -0.199 C  
HETATM   12  C   UNL     1     -10.718   7.772  69.112  1.00  0.00    -0.139 C  
HETATM   13  C   UNL     1      -9.835   7.059  68.064  1.00  0.00    -0.156 C  
HETATM   14  C   UNL     1      -8.250   9.122  68.273  1.00  0.00    -0.116 C  
HETATM   15  C   UNL     1      -8.978   8.138  67.349  1.00  0.00    -0.145 C  
HETATM   16  C   UNL     1      -9.827   8.504  70.123  1.00  0.00    -0.184 C  
BRANCH  13  17
HETATM   17  C   UNL     1      -9.056   5.922  68.811  1.00  0.00    -0.116 A  
HETATM   18  C   UNL     1      -9.141   4.071  70.430  1.00  0.00    -0.183 A  
HETATM   19  C   UNL     1      -7.655   5.791  68.802  1.00  0.00    -0.089 A  
HETATM   20  F   UNL     1      -7.135   3.166  71.267  1.00  0.00    -0.030 F  
HETATM   21  C   UNL     1      -7.013   4.863  69.631  1.00  0.00    -0.053 A  
HETATM   22  C   UNL     1      -7.758   4.024  70.450  1.00  0.00    -0.045 A  
HETATM   23  C   UNL     1      -9.783   5.002  69.613  1.00  0.00    -0.266 A  
ENDBRANCH  13  17
BRANCH  13  24
HETATM   24  C   UNL     1     -10.669   6.361  67.002  1.00  0.00    -0.363 C  
HETATM   25  H2  UNL     1     -11.571   6.585  65.526  1.00  0.00     0.000 HD 
HETATM   26  N   UNL     1     -11.360   5.783  66.120  1.00  0.00    -0.604 NA 
HETATM   27  H1  UNL     1     -11.920   5.314  65.408  1.00  0.00     0.000 HD 
ENDBRANCH  13  24
ENDBRANCH   4  11
BRANCH  10  28
HETATM   28  C   UNL     1     -10.449  11.800  65.552  1.00  0.00    -0.311 A  
HETATM   29  C   UNL     1     -10.275  12.459  64.318  1.00  0.00    -0.358 A  
HETATM   30  C   UNL     1     -10.037  10.456  65.589  1.00  0.00    -0.337 A  
HETATM   31  C   UNL     1      -9.592  10.428  63.209  1.00  0.00    -0.353 A  
HETATM   32  C   UNL     1      -9.883  11.782  63.158  1.00  0.00    -0.363 A  
HETATM   33  C   UNL     1      -9.640   9.772  64.432  1.00  0.00    -0.160 A  
ENDBRANCH  10  28
TORSDOF 4
ENDMDL
MODEL       65
REMARK 921   NORMALIZED FREE ENERGY PREDICTED BY IDOCK:   -5.23 KCAL/MOL
REMARK 922        TOTAL FREE ENERGY PREDICTED BY IDOCK:   -6.66 KCAL/MOL
REMARK 923 INTER-LIGAND FREE ENERGY PREDICTED BY IDOCK:   -6.33 KCAL/MOL
REMARK 924 INTRA-LIGAND FREE ENERGY PREDICTED BY IDOCK:   -0.34 KCAL/MOL
REMARK 927      BINDING AFFINITY PREDICTED BY RF-SCORE:    0.00 PKD
ROOT
HETATM    1  C   UNL     1      -6.866  17.612  65.148  1.00  0.00     1.238 C  
HETATM    2  C   UNL     1      -6.318  17.710  66.581  1.00  0.00    -0.235 C  
HETATM    3  C   UNL     1      -6.559  16.350  67.240  1.00  0.00    -0.187 C  
HETATM    4  N   UNL     1      -6.161  16.144  68.650  1.00  0.00    -0.115 NA 
HETATM    5  C   UNL     1      -6.437  17.320  69.477  1.00  0.00    -0.207 C  
HETATM    6  O   UNL     1      -5.138  20.214  66.196  1.00  0.00    -0.164 OA 
HETATM    7  O   UNL     1      -6.742  21.361  67.246  1.00  0.00    -0.551 OA 
HETATM    8  C   UNL     1      -6.100  18.678  68.832  1.00  0.00    -0.232 C  
HETATM    9  C   UNL     1      -6.157  20.200  66.888  1.00  0.00    -0.175 C  
HETATM   10  C   UNL     1      -6.807  18.914  67.461  1.00  0.00    -0.211 C  
ENDROOT
BRANCH   4  11
HETATM   11  C   UNL     1      -6.889  14.927  69.138  1.00  0.00    -0.132 C  
HETATM   12  C   UNL     1      -9.095  15.296  67.929  1.00  0.00    -0.175 C  
HETATM   13  C   UNL     1      -9.086  13.901  67.264  1.00  0.00    -0.230 C  
HETATM   14  C   UNL     1      -6.725  13.613  68.337  1.00  0.00    -0.100 C  
HETATM   15  C   UNL     1      -7.607  13.464  67.092  1.00  0.00     0.030 C  
HETATM   16  C   UNL     1      -8.396  15.220  69.293  1.00  0.00    -0.243 C  
BRANCH  13  17
HETATM   17  C   UNL     1      -9.999  12.968  68.133  1.00  0.00    -0.231 A  
HETATM   18  C   UNL     1     -11.971  12.775  69.593  1.00  0.00    -0.354 A  
HETATM   19  C   UNL     1      -9.671  11.644  68.475  1.00  0.00    -0.187 A  
HETATM   20  F   UNL     1     -12.284  10.823  70.871  1.00  0.00    -0.358 F  
HETATM   21  C   UNL     1     -10.442  10.926  69.398  1.00  0.00    -0.205 A  
HETATM   22  C   UNL     1     -11.574  11.502  69.961  1.00  0.00    -0.282 A  
HETATM   23  C   UNL     1     -11.199  13.496  68.682  1.00  0.00    -0.311 A  
ENDBRANCH  13  17
BRANCH  13  24
HETATM   24  C   UNL     1      -9.719  13.929  65.883  1.00  0.00    -0.214 C  
HETATM   25  H2  UNL     1     -11.196  13.679  64.988  1.00  0.00     0.000 HD 
HETATM   26  N   UNL     1     -10.245  13.951  64.737  1.00  0.00    -0.583 NA 
HETATM   27  H1  UNL     1     -10.669  13.970  63.810  1.00  0.00     0.000 HD 
ENDBRANCH  13  24
ENDBRANCH   4  11
BRANCH  10  28
HETATM   28  C   UNL     1      -8.352  19.071  67.591  1.00  0.00    -0.314 A  
HETATM   29  C   UNL     1      -9.239  18.828  66.522  1.00  0.00    -0.336 A  
HETATM   30  C   UNL     1      -8.952  19.404  68.818  1.00  0.00    -0.396 A  
HETATM   31  C   UNL     1     -11.157  19.506  67.822  1.00  0.00    -0.084 A  
HETATM   32  C   UNL     1     -10.614  19.069  66.623  1.00  0.00    -0.499 A  
HETATM   33  C   UNL     1     -10.329  19.643  68.928  1.00  0.00    -0.287 A  
ENDBRANCH  10  28
TORSDOF 4
ENDMDL
MODEL       66
REMARK 921   NORMALIZED FREE ENERGY PREDICTED BY IDOCK:   -5.17 KCAL/MOL
REMARK 922        TOTAL FREE ENERGY PREDICTED BY IDOCK:   -6.59 KCAL/MOL
REMARK 923 INTER-LIGAND FREE ENERGY PREDICTED BY IDOCK:   -5.74 KCAL/MOL
REMARK 924 INTRA-LIGAND FREE ENERGY PREDICTED BY IDOCK:   -0.85 KCAL/MOL
REMARK 927      BINDING AFFINITY PREDICTED BY RF-SCORE:    0.00 PKD
ROOT
HETATM    1  C   UNL     1      -9.482   4.896  71.633  1.00  0.00    -0.204 C  
HETATM    2  C   UNL     1      -8.261   5.823  71.520  1.00  0.00    -0.119 C  
HETATM    3  C   UNL     1      -8.790   7.203  71.122  1.00  0.00    -0.144 C  
HETATM    4  N   UNL     1      -7.836   8.313  70.905  1.00  0.00    -0.085 NA 
HETATM    5  C   UNL     1      -6.619   7.868  70.224  1.00  0.00    -0.037 C  
HETATM    6  O   UNL     1      -6.466   3.956  72.571  1.00  0.00    -0.016 OA 
HETATM    7  O   UNL     1      -5.600   3.370  70.597  1.00  0.00    -0.012 OA 
HETATM    8  C   UNL     1      -6.047   6.518  70.704  1.00  0.00    -0.031 C  
HETATM    9  C   UNL     1      -6.381   4.162  71.360  1.00  0.00    -0.018 C  
HETATM   10  C   UNL     1      -7.068   5.340  70.623  1.00  0.00    -0.060 C  
ENDROOT
BRANCH   4  11
HETATM   11  C   UNL     1      -8.563   9.370  70.128  1.00  0.00    -0.212 C  
HETATM   12  C   UNL     1      -8.604   8.215  67.864  1.00  0.00    -0.132 C  
HETATM   13  C   UNL     1     -10.136   8.341  67.709  1.00  0.00    -0.262 C  
HETATM   14  C   UNL     1     -10.109   9.332  70.122  1.00  0.00    -0.249 C  
HETATM   15  C   UNL     1     -10.759   8.361  69.130  1.00  0.00    -0.123 C  
HETATM   16  C   UNL     1      -8.069   9.408  68.667  1.00  0.00    -0.104 C  
BRANCH  13  17
HETATM   17  C   UNL     1     -10.409   9.591  66.802  1.00  0.00    -0.298 A  
HETATM   18  C   UNL     1      -9.926  10.767  64.695  1.00  0.00    -0.386 A  
HETATM   19  C   UNL     1     -11.108  10.735  67.230  1.00  0.00    -0.339 A  
HETATM   20  F   UNL     1     -10.583  13.014  64.443  1.00  0.00    -0.320 F  
HETATM   21  C   UNL     1     -11.162  11.885  66.433  1.00  0.00    -0.387 A  
HETATM   22  C   UNL     1     -10.558  11.898  65.182  1.00  0.00    -0.287 A  
HETATM   23  C   UNL     1      -9.860   9.624  65.492  1.00  0.00    -0.352 A  
ENDBRANCH  13  17
BRANCH  13  24
HETATM   24  C   UNL     1     -10.729   7.154  66.966  1.00  0.00    -0.350 C  
HETATM   25  H2  UNL     1     -10.400   5.562  66.334  1.00  0.00     0.000 HD 
HETATM   26  N   UNL     1     -11.219   6.170  66.351  1.00  0.00    -0.688 NA 
HETATM   27  H1  UNL     1     -11.617   5.373  65.853  1.00  0.00     0.000 HD 
ENDBRANCH  13  24
ENDBRANCH   4  11
BRANCH  10  28
HETATM   28  C   UNL     1      -7.437   4.954  69.159  1.00  0.00    -0.053 A  
HETATM   29  C   UNL     1      -8.655   4.331  68.816  1.00  0.00    -0.105 A  
HETATM   30  C   UNL     1      -6.591   5.273  68.082  1.00  0.00    -0.049 A  
HETATM   31  C   UNL     1      -8.021   4.132  66.496  1.00  0.00    -0.098 A  
HETATM   32  C   UNL     1      -8.932   3.899  67.514  1.00  0.00    -0.154 A  
HETATM   33  C   UNL     1      -6.863   4.846  66.775  1.00  0.00    -0.062 A  
ENDBRANCH  10  28
TORSDOF 4
ENDMDL
MODEL       67
REMARK 921   NORMALIZED FREE ENERGY PREDICTED BY IDOCK:   -5.17 KCAL/MOL
REMARK 922        TOTAL FREE ENERGY PREDICTED BY IDOCK:   -6.59 KCAL/MOL
REMARK 923 INTER-LIGAND FREE ENERGY PREDICTED BY IDOCK:   -6.08 KCAL/MOL
REMARK 924 INTRA-LIGAND FREE ENERGY PREDICTED BY IDOCK:   -0.51 KCAL/MOL
REMARK 927      BINDING AFFINITY PREDICTED BY RF-SCORE:    0.00 PKD
ROOT
HETATM    1  C   UNL     1      -8.063  13.540  67.507  1.00  0.00    -0.190 C  
HETATM    2  C   UNL     1      -9.456  12.893  67.582  1.00  0.00    -0.197 C  
HETATM    3  C   UNL     1      -9.442  11.954  68.791  1.00  0.00     0.009 C  
HETATM    4  N   UNL     1     -10.647  11.156  69.107  1.00  0.00    -0.217 NA 
HETATM    5  C   UNL     1     -11.301  10.646  67.901  1.00  0.00    -0.268 C  
HETATM    6  O   UNL     1     -10.560  14.510  65.588  1.00  0.00    -0.299 OA 
HETATM    7  O   UNL     1     -10.456  12.959  63.984  1.00  0.00    -0.415 OA 
HETATM    8  C   UNL     1     -11.390  11.637  66.724  1.00  0.00    -0.354 C  
HETATM    9  C   UNL     1     -10.343  13.339  65.273  1.00  0.00    -0.312 C  
HETATM   10  C   UNL     1     -10.007  12.210  66.281  1.00  0.00    -0.249 C  
ENDROOT
BRANCH   4  11
HETATM   11  C   UNL     1     -10.215  10.053  70.025  1.00  0.00    -0.255 C  
HETATM   12  C   UNL     1     -10.516   8.094  68.433  1.00  0.00    -0.205 C  
HETATM   13  C   UNL     1      -9.071   7.580  68.622  1.00  0.00    -0.134 C  
HETATM   14  C   UNL     1      -8.707   9.709  70.087  1.00  0.00    -0.263 C  
HETATM   15  C   UNL     1      -8.175   8.796  68.976  1.00  0.00    -0.117 C  
HETATM   16  C   UNL     1     -11.000   8.758  69.728  1.00  0.00    -0.146 C  
BRANCH  13  17
HETATM   17  C   UNL     1      -9.128   6.418  69.674  1.00  0.00    -0.143 A  
HETATM   18  C   UNL     1      -8.103   5.351  71.640  1.00  0.00    -0.117 A  
HETATM   19  C   UNL     1      -9.983   5.305  69.571  1.00  0.00    -0.297 A  
HETATM   20  F   UNL     1      -8.775   3.183  72.268  1.00  0.00    -0.075 F  
HETATM   21  C   UNL     1      -9.859   4.219  70.445  1.00  0.00    -0.268 A  
HETATM   22  C   UNL     1      -8.911   4.242  71.460  1.00  0.00    -0.119 A  
HETATM   23  C   UNL     1      -8.217   6.430  70.763  1.00  0.00    -0.125 A  
ENDBRANCH  13  17
BRANCH  13  24
HETATM   24  C   UNL     1      -8.519   6.960  67.349  1.00  0.00    -0.121 C  
HETATM   25  H2  UNL     1      -7.355   7.147  66.064  1.00  0.00     0.000 HD 
HETATM   26  N   UNL     1      -8.061   6.447  66.293  1.00  0.00    -0.110 NA 
HETATM   27  H1  UNL     1      -7.691   6.030  65.438  1.00  0.00     0.000 HD 
ENDBRANCH  13  24
ENDBRANCH   4  11
BRANCH  10  28
HETATM   28  C   UNL     1      -9.080  11.136  65.638  1.00  0.00    -0.221 A  
HETATM   29  C   UNL     1      -7.720  10.992  65.982  1.00  0.00    -0.059 A  
HETATM   30  C   UNL     1      -9.577  10.197  64.717  1.00  0.00    -0.378 A  
HETATM   31  C   UNL     1      -7.378   9.256  64.341  1.00  0.00    -0.105 A  
HETATM   32  C   UNL     1      -6.874  10.091  65.327  1.00  0.00    -0.128 A  
HETATM   33  C   UNL     1      -8.737   9.289  64.059  1.00  0.00    -0.198 A  
ENDBRANCH  10  28
TORSDOF 4
ENDMDL
MODEL       68
REMARK 921   NORMALIZED FREE ENERGY PREDICTED BY IDOCK:   -5.07 KCAL/MOL
REMARK 922        TOTAL FREE ENERGY PREDICTED BY IDOCK:   -6.46 KCAL/MOL
REMARK 923 INTER-LIGAND FREE ENERGY PREDICTED BY IDOCK:   -5.68 KCAL/MOL
REMARK 924 INTRA-LIGAND FREE ENERGY PREDICTED BY IDOCK:   -0.79 KCAL/MOL
REMARK 927      BINDING AFFINITY PREDICTED BY RF-SCORE:    0.00 PKD
ROOT
HETATM    1  C   UNL     1      -9.023   9.216  64.078  1.00  0.00    -0.028 C  
HETATM    2  C   UNL     1      -7.800   8.515  64.691  1.00  0.00    -0.131 C  
HETATM    3  C   UNL     1      -8.327   7.592  65.792  1.00  0.00    -0.141 C  
HETATM    4  N   UNL     1      -7.370   6.797  66.595  1.00  0.00    -0.073 NA 
HETATM    5  C   UNL     1      -6.156   7.552  66.910  1.00  0.00    -0.047 C  
HETATM    6  O   UNL     1      -6.008   9.482  62.777  1.00  0.00    -0.095 OA 
HETATM    7  O   UNL     1      -5.148  11.076  64.086  1.00  0.00    -0.229 OA 
HETATM    8  C   UNL     1      -5.586   8.405  65.759  1.00  0.00    -0.039 C  
HETATM    9  C   UNL     1      -5.925   9.990  63.896  1.00  0.00    -0.131 C  
HETATM   10  C   UNL     1      -6.611   9.422  65.166  1.00  0.00    -0.079 C  
ENDROOT
BRANCH   4  11
HETATM   11  C   UNL     1      -8.096   6.353  67.829  1.00  0.00    -0.115 C  
HETATM   12  C   UNL     1      -8.754   8.639  68.725  1.00  0.00    -0.135 C  
HETATM   13  C   UNL     1     -10.255   8.287  68.823  1.00  0.00    -0.226 C  
HETATM   14  C   UNL     1      -9.603   6.021  67.705  1.00  0.00    -0.113 C  
HETATM   15  C   UNL     1     -10.564   7.215  67.744  1.00  0.00    -0.293 C  
HETATM   16  C   UNL     1      -7.913   7.379  68.967  1.00  0.00    -0.122 C  
BRANCH  13  17
HETATM   17  C   UNL     1     -10.542   7.892  70.312  1.00  0.00    -0.231 A  
HETATM   18  C   UNL     1     -10.105   8.332  72.694  1.00  0.00    -0.365 A  
HETATM   19  C   UNL     1     -11.222   6.722  70.698  1.00  0.00    -0.361 A  
HETATM   20  F   UNL     1     -10.754   6.743  74.307  1.00  0.00    -0.344 F  
HETATM   21  C   UNL     1     -11.289   6.339  72.044  1.00  0.00    -0.348 A  
HETATM   22  C   UNL     1     -10.717   7.136  73.027  1.00  0.00    -0.321 A  
HETATM   23  C   UNL     1     -10.027   8.710  71.353  1.00  0.00    -0.324 A  
ENDBRANCH  13  17
BRANCH  13  24
HETATM   24  C   UNL     1     -11.138   9.491  68.537  1.00  0.00     0.015 C  
HETATM   25  H2  UNL     1     -11.710  10.574  67.294  1.00  0.00     0.000 HD 
HETATM   26  N   UNL     1     -11.870  10.489  68.298  1.00  0.00    -0.785 NA 
HETATM   27  H1  UNL     1     -12.463  11.297  68.106  1.00  0.00     0.000 HD 
ENDBRANCH  13  24
ENDBRANCH   4  11
BRANCH  10  28
HETATM   28  C   UNL     1      -6.986  10.560  66.162  1.00  0.00    -0.131 A  
HETATM   29  C   UNL     1      -6.150  10.950  67.229  1.00  0.00    -0.062 A  
HETATM   30  C   UNL     1      -8.164  11.312  66.005  1.00  0.00    -0.045 A  
HETATM   31  C   UNL     1      -7.764  12.545  68.050  1.00  0.00    -0.140 A  
HETATM   32  C   UNL     1      -6.542  11.904  68.175  1.00  0.00    -0.057 A  
HETATM   33  C   UNL     1      -8.561  12.271  66.946  1.00  0.00    -0.182 A  
ENDBRANCH  10  28
TORSDOF 4
ENDMDL
MODEL       69
REMARK 921   NORMALIZED FREE ENERGY PREDICTED BY IDOCK:   -4.99 KCAL/MOL
REMARK 922        TOTAL FREE ENERGY PREDICTED BY IDOCK:   -6.37 KCAL/MOL
REMARK 923 INTER-LIGAND FREE ENERGY PREDICTED BY IDOCK:   -5.74 KCAL/MOL
REMARK 924 INTRA-LIGAND FREE ENERGY PREDICTED BY IDOCK:   -0.63 KCAL/MOL
REMARK 927      BINDING AFFINITY PREDICTED BY RF-SCORE:    0.00 PKD
ROOT
HETATM    1  C   UNL     1     -10.406   7.820  66.727  1.00  0.00    -0.348 C  
HETATM    2  C   UNL     1     -10.961   8.790  67.782  1.00  0.00     0.063 C  
HETATM    3  C   UNL     1     -10.994  10.176  67.133  1.00  0.00    -0.134 C  
HETATM    4  N   UNL     1     -11.458  11.338  67.923  1.00  0.00    -0.433 NA 
HETATM    5  C   UNL     1     -10.989  11.285  69.309  1.00  0.00    -0.243 C  
HETATM    6  O   UNL     1     -11.645   6.777  69.596  1.00  0.00    -0.266 OA 
HETATM    7  O   UNL     1      -9.882   7.095  70.931  1.00  0.00    -0.181 OA 
HETATM    8  C   UNL     1     -11.052   9.897  69.977  1.00  0.00    -0.335 C  
HETATM    9  C   UNL     1     -10.664   7.460  69.895  1.00  0.00    -0.243 C  
HETATM   10  C   UNL     1     -10.279   8.789  69.195  1.00  0.00    -0.215 C  
ENDROOT
BRANCH   4  11
HETATM   11  C   UNL     1     -10.982  12.569  67.213  1.00  0.00    -0.261 C  
HETATM   12  C   UNL     1      -9.868  13.734  69.179  1.00  0.00     0.216 C  
HETATM   13  C   UNL     1      -8.516  13.901  68.451  1.00  0.00    -0.159 C  
HETATM   14  C   UNL     1      -9.599  12.519  66.521  1.00  0.00    -0.242 C  
HETATM   15  C   UNL     1      -8.381  12.746  67.424  1.00  0.00    -0.189 C  
HETATM   16  C   UNL     1     -11.012  13.789  68.158  1.00  0.00    -0.265 C  
BRANCH  13  17
HETATM   17  C   UNL     1      -8.475  15.361  67.878  1.00  0.00    -0.150 A  
HETATM   18  C   UNL     1      -8.700  17.770  68.328  1.00  0.00    -0.277 A  
HETATM   19  C   UNL     1      -8.428  15.666  66.506  1.00  0.00    -0.311 A  
HETATM   20  F   UNL     1      -8.900  19.273  66.527  1.00  0.00    -0.291 F  
HETATM   21  C   UNL     1      -8.573  16.984  66.056  1.00  0.00    -0.164 A  
HETATM   22  C   UNL     1      -8.724  18.021  66.967  1.00  0.00    -0.247 A  
HETATM   23  C   UNL     1      -8.567  16.456  68.778  1.00  0.00    -0.250 A  
ENDBRANCH  13  17
BRANCH  13  24
HETATM   24  C   UNL     1      -7.341  13.800  69.410  1.00  0.00     0.182 C  
HETATM   25  H2  UNL     1      -6.596  14.494  70.826  1.00  0.00     0.000 HD 
HETATM   26  N   UNL     1      -6.367  13.717  70.206  1.00  0.00    -0.365 NA 
HETATM   27  H1  UNL     1      -5.578  13.649  70.850  1.00  0.00     0.000 HD 
ENDBRANCH  13  24
ENDBRANCH   4  11
BRANCH  10  28
HETATM   28  C   UNL     1      -8.736   9.003  69.199  1.00  0.00    -0.135 A  
HETATM   29  C   UNL     1      -8.100   9.974  70.001  1.00  0.00    -0.154 A  
HETATM   30  C   UNL     1      -7.880   8.182  68.443  1.00  0.00    -0.118 A  
HETATM   31  C   UNL     1      -5.928   9.466  69.078  1.00  0.00    -0.042 A  
HETATM   32  C   UNL     1      -6.725  10.224  69.922  1.00  0.00    -0.125 A  
HETATM   33  C   UNL     1      -6.503   8.425  68.361  1.00  0.00    -0.059 A  
ENDBRANCH  10  28
TORSDOF 4
ENDMDL
MODEL       70
REMARK 921   NORMALIZED FREE ENERGY PREDICTED BY IDOCK:   -4.95 KCAL/MOL
REMARK 922        TOTAL FREE ENERGY PREDICTED BY IDOCK:   -6.31 KCAL/MOL
REMARK 923 INTER-LIGAND FREE ENERGY PREDICTED BY IDOCK:   -6.04 KCAL/MOL
REMARK 924 INTRA-LIGAND FREE ENERGY PREDICTED BY IDOCK:   -0.27 KCAL/MOL
REMARK 927      BINDING AFFINITY PREDICTED BY RF-SCORE:    0.00 PKD
ROOT
HETATM    1  C   UNL     1      -8.657  15.889  67.457  1.00  0.00    -0.181 C  
HETATM    2  C   UNL     1      -9.060  14.547  68.089  1.00  0.00    -0.191 C  
HETATM    3  C   UNL     1      -8.201  13.470  67.423  1.00  0.00    -0.181 C  
HETATM    4  N   UNL     1      -8.385  12.052  67.805  1.00  0.00    -0.146 NA 
HETATM    5  C   UNL     1      -9.795  11.717  68.014  1.00  0.00    -0.190 C  
HETATM    6  O   UNL     1     -10.677  15.703  70.053  1.00  0.00    -0.289 OA 
HETATM    7  O   UNL     1     -12.608  15.249  69.024  1.00  0.00     0.043 OA 
HETATM    8  C   UNL     1     -10.624  12.774  68.770  1.00  0.00    -0.216 C  
HETATM    9  C   UNL     1     -11.269  15.129  69.139  1.00  0.00    -0.279 C  
HETATM   10  C   UNL     1     -10.587  14.188  68.111  1.00  0.00    -0.249 C  
ENDROOT
BRANCH   4  11
HETATM   11  C   UNL     1      -7.760  11.221  66.725  1.00  0.00    -0.155 C  
HETATM   12  C   UNL     1      -8.412   8.922  67.591  1.00  0.00    -0.121 C  
HETATM   13  C   UNL     1      -9.082   8.495  66.266  1.00  0.00    -0.232 C  
HETATM   14  C   UNL     1      -8.598  10.929  65.457  1.00  0.00    -0.149 C  
HETATM   15  C   UNL     1      -9.604   9.776  65.561  1.00  0.00    -0.348 C  
HETATM   16  C   UNL     1      -7.252   9.881  67.295  1.00  0.00    -0.086 C  
BRANCH  13  17
HETATM   17  C   UNL     1      -8.038   7.632  65.475  1.00  0.00    -0.130 A  
HETATM   18  C   UNL     1      -7.268   6.800  63.291  1.00  0.00    -0.061 A  
HETATM   19  C   UNL     1      -7.118   6.759  66.083  1.00  0.00    -0.066 A  
HETATM   20  F   UNL     1      -5.706   5.040  63.205  1.00  0.00    -0.013 F  
HETATM   21  C   UNL     1      -6.337   5.887  65.315  1.00  0.00    -0.038 A  
HETATM   22  C   UNL     1      -6.429   5.903  63.929  1.00  0.00    -0.029 A  
HETATM   23  C   UNL     1      -8.056   7.662  64.055  1.00  0.00    -0.045 A  
ENDBRANCH  13  17
BRANCH  13  24
HETATM   24  C   UNL     1     -10.276   7.585  66.503  1.00  0.00    -0.095 C  
HETATM   25  H2  UNL     1     -11.799   7.037  65.852  1.00  0.00     0.000 HD 
HETATM   26  N   UNL     1     -11.268   6.831  66.698  1.00  0.00    -0.626 NA 
HETATM   27  H1  UNL     1     -12.069   6.220  66.858  1.00  0.00     0.000 HD 
ENDBRANCH  13  24
ENDBRANCH   4  11
BRANCH  10  28
HETATM   28  C   UNL     1     -11.312  14.237  66.733  1.00  0.00    -0.357 A  
HETATM   29  C   UNL     1     -12.094  13.172  66.240  1.00  0.00    -0.460 A  
HETATM   30  C   UNL     1     -11.277  15.390  65.928  1.00  0.00    -0.179 A  
HETATM   31  C   UNL     1     -12.506  14.302  64.148  1.00  0.00    -0.256 A  
HETATM   32  C   UNL     1     -12.657  13.188  64.960  1.00  0.00    -0.499 A  
HETATM   33  C   UNL     1     -11.841  15.415  64.645  1.00  0.00    -0.218 A  
ENDBRANCH  10  28
TORSDOF 4
ENDMDL
MODEL       71
REMARK 921   NORMALIZED FREE ENERGY PREDICTED BY IDOCK:   -4.94 KCAL/MOL
REMARK 922        TOTAL FREE ENERGY PREDICTED BY IDOCK:   -6.30 KCAL/MOL
REMARK 923 INTER-LIGAND FREE ENERGY PREDICTED BY IDOCK:   -6.46 KCAL/MOL
REMARK 924 INTRA-LIGAND FREE ENERGY PREDICTED BY IDOCK:    0.16 KCAL/MOL
REMARK 927      BINDING AFFINITY PREDICTED BY RF-SCORE:    0.00 PKD
ROOT
HETATM    1  C   UNL     1     -11.179  14.873  65.089  1.00  0.00    -0.389 C  
HETATM    2  C   UNL     1      -9.803  14.506  65.668  1.00  0.00    -0.337 C  
HETATM    3  C   UNL     1      -9.728  12.978  65.694  1.00  0.00    -0.096 C  
HETATM    4  N   UNL     1      -8.519  12.317  66.236  1.00  0.00     0.103 NA 
HETATM    5  C   UNL     1      -7.996  13.009  67.415  1.00  0.00    -0.172 C  
HETATM    6  O   UNL     1      -8.849  17.133  65.656  1.00  0.00    -0.482 OA 
HETATM    7  O   UNL     1      -9.145  17.470  67.845  1.00  0.00    -0.251 OA 
HETATM    8  C   UNL     1      -7.993  14.548  67.334  1.00  0.00    -0.221 C  
HETATM    9  C   UNL     1      -9.126  16.666  66.762  1.00  0.00    -0.237 C  
HETATM   10  C   UNL     1      -9.395  15.163  67.033  1.00  0.00    -0.244 C  
ENDROOT
BRANCH   4  11
HETATM   11  C   UNL     1      -8.893  10.896  66.533  1.00  0.00    -0.163 C  
HETATM   12  C   UNL     1      -9.176  11.098  69.052  1.00  0.00    -0.045 C  
HETATM   13  C   UNL     1     -10.605  10.510  69.045  1.00  0.00    -0.250 C  
HETATM   14  C   UNL     1     -10.387  10.504  66.445  1.00  0.00    -0.283 C  
HETATM   15  C   UNL     1     -11.248  10.834  67.670  1.00  0.00    -0.370 C  
HETATM   16  C   UNL     1      -8.357  10.471  67.917  1.00  0.00    -0.115 C  
BRANCH  13  17
HETATM   17  C   UNL     1     -10.484   8.994  69.427  1.00  0.00    -0.229 A  
HETATM   18  C   UNL     1      -9.601   7.317  70.996  1.00  0.00    -0.158 A  
HETATM   19  C   UNL     1     -10.865   7.938  68.580  1.00  0.00     0.031 A  
HETATM   20  F   UNL     1      -9.609   5.042  70.390  1.00  0.00    -0.191 F  
HETATM   21  C   UNL     1     -10.566   6.609  68.908  1.00  0.00    -0.264 A  
HETATM   22  C   UNL     1      -9.923   6.311  70.102  1.00  0.00    -0.172 A  
HETATM   23  C   UNL     1      -9.886   8.642  70.667  1.00  0.00    -0.220 A  
ENDBRANCH  13  17
BRANCH  13  24
HETATM   24  C   UNL     1     -11.480  11.138  70.117  1.00  0.00    -0.272 C  
HETATM   25  H2  UNL     1     -12.371  10.835  71.586  1.00  0.00     0.000 HD 
HETATM   26  N   UNL     1     -12.206  11.659  71.008  1.00  0.00    -0.314 NA 
HETATM   27  H1  UNL     1     -12.793  12.080  71.727  1.00  0.00     0.000 HD 
ENDBRANCH  13  24
ENDBRANCH   4  11
BRANCH  10  28
HETATM   28  C   UNL     1     -10.407  14.973  68.203  1.00  0.00    -0.239 A  
HETATM   29  C   UNL     1     -10.078  15.229  69.550  1.00  0.00    -0.261 A  
HETATM   30  C   UNL     1     -11.741  14.595  67.963  1.00  0.00    -0.371 A  
HETATM   31  C   UNL     1     -12.235  14.480  70.330  1.00  0.00    -0.394 A  
HETATM   32  C   UNL     1     -10.963  14.960  70.600  1.00  0.00    -0.112 A  
HETATM   33  C   UNL     1     -12.634  14.327  69.009  1.00  0.00     0.258 A  
ENDBRANCH  10  28
TORSDOF 4
ENDMDL
MODEL       72
REMARK 921   NORMALIZED FREE ENERGY PREDICTED BY IDOCK:   -4.92 KCAL/MOL
REMARK 922        TOTAL FREE ENERGY PREDICTED BY IDOCK:   -6.27 KCAL/MOL
REMARK 923 INTER-LIGAND FREE ENERGY PREDICTED BY IDOCK:   -7.25 KCAL/MOL
REMARK 924 INTRA-LIGAND FREE ENERGY PREDICTED BY IDOCK:    0.98 KCAL/MOL
REMARK 927      BINDING AFFINITY PREDICTED BY RF-SCORE:    0.00 PKD
ROOT
HETATM    1  C   UNL     1     -10.839  16.688  69.807  1.00  0.00    -0.238 C  
HETATM    2  C   UNL     1     -10.274  16.910  68.395  1.00  0.00    -0.322 C  
HETATM    3  C   UNL     1     -10.546  15.628  67.604  1.00  0.00    -0.294 C  
HETATM    4  N   UNL     1     -10.085  15.527  66.202  1.00  0.00    -0.287 NA 
HETATM    5  C   UNL     1      -8.768  16.136  66.010  1.00  0.00    -0.246 C  
HETATM    6  O   UNL     1      -9.722  19.620  68.800  1.00  0.00    -0.403 OA 
HETATM    7  O   UNL     1      -7.528  19.339  69.111  1.00  0.00    -0.346 OA 
HETATM    8  C   UNL     1      -8.544  17.476  66.740  1.00  0.00    -0.276 C  
HETATM    9  C   UNL     1      -8.745  18.871  68.767  1.00  0.00    -0.296 C  
HETATM   10  C   UNL     1      -8.788  17.400  68.279  1.00  0.00    -0.264 C  
ENDROOT
BRANCH   4  11
HETATM   11  C   UNL     1     -10.091  14.071  65.843  1.00  0.00    -0.321 C  
HETATM   12  C   UNL     1      -9.601  13.111  68.145  1.00  0.00    -0.227 C  
HETATM   13  C   UNL     1     -10.834  12.180  68.137  1.00  0.00    -0.256 C  
HETATM   14  C   UNL     1     -11.445  13.322  65.871  1.00  0.00    -0.359 C  
HETATM   15  C   UNL     1     -11.922  12.837  67.245  1.00  0.00    -0.345 C  
HETATM   16  C   UNL     1      -9.083  13.291  66.713  1.00  0.00    -0.216 C  
BRANCH  13  17
HETATM   17  C   UNL     1     -10.336  10.756  67.706  1.00  0.00    -0.226 A  
HETATM   18  C   UNL     1      -8.900   8.823  68.213  1.00  0.00    -0.141 A  
HETATM   19  C   UNL     1     -10.596  10.179  66.450  1.00  0.00    -0.155 A  
HETATM   20  F   UNL     1      -8.502   7.205  66.549  1.00  0.00    -0.108 F  
HETATM   21  C   UNL     1      -9.975   8.985  66.064  1.00  0.00    -0.246 A  
HETATM   22  C   UNL     1      -9.121   8.326  66.940  1.00  0.00    -0.150 A  
HETATM   23  C   UNL     1      -9.508  10.019  68.595  1.00  0.00    -0.156 A  
ENDBRANCH  13  17
BRANCH  13  24
HETATM   24  C   UNL     1     -11.424  12.009  69.527  1.00  0.00    -0.282 C  
HETATM   25  H2  UNL     1     -11.159  11.333  71.113  1.00  0.00     0.000 HD 
HETATM   26  N   UNL     1     -11.913  11.867  70.680  1.00  0.00    -0.478 NA 
HETATM   27  H1  UNL     1     -12.309  11.753  71.614  1.00  0.00     0.000 HD 
ENDBRANCH  13  24
ENDBRANCH   4  11
BRANCH  10  28
HETATM   28  C   UNL     1      -7.731  16.527  69.021  1.00  0.00    -0.228 A  
HETATM   29  C   UNL     1      -6.379  16.908  69.153  1.00  0.00    -0.204 A  
HETATM   30  C   UNL     1      -8.091  15.330  69.665  1.00  0.00    -0.125 A  
HETATM   31  C   UNL     1      -5.795  14.845  70.258  1.00  0.00    -0.149 A  
HETATM   32  C   UNL     1      -5.420  16.072  69.733  1.00  0.00    -0.137 A  
HETATM   33  C   UNL     1      -7.137  14.488  70.251  1.00  0.00     0.233 A  
ENDBRANCH  10  28
TORSDOF 4
ENDMDL
MODEL       73
REMARK 921   NORMALIZED FREE ENERGY PREDICTED BY IDOCK:   -4.91 KCAL/MOL
REMARK 922        TOTAL FREE ENERGY PREDICTED BY IDOCK:   -6.26 KCAL/MOL
REMARK 923 INTER-LIGAND FREE ENERGY PREDICTED BY IDOCK:   -5.99 KCAL/MOL
REMARK 924 INTRA-LIGAND FREE ENERGY PREDICTED BY IDOCK:   -0.28 KCAL/MOL
REMARK 927      BINDING AFFINITY PREDICTED BY RF-SCORE:    0.00 PKD
ROOT
HETATM    1  C   UNL     1      -7.821  16.449  66.293  1.00  0.00    -0.212 C  
HETATM    2  C   UNL     1      -8.353  15.622  67.475  1.00  0.00    -0.186 C  
HETATM    3  C   UNL     1      -7.812  14.202  67.299  1.00  0.00    -0.132 C  
HETATM    4  N   UNL     1      -8.184  13.155  68.278  1.00  0.00    -0.154 NA 
HETATM    5  C   UNL     1      -9.581  13.267  68.700  1.00  0.00    -0.048 C  
HETATM    6  O   UNL     1      -9.415  17.827  68.826  1.00  0.00    -0.292 OA 
HETATM    7  O   UNL     1     -11.531  17.436  68.224  1.00  0.00     0.151 OA 
HETATM    8  C   UNL     1     -10.082  14.701  68.964  1.00  0.00    -0.211 C  
HETATM    9  C   UNL     1     -10.234  17.074  68.297  1.00  0.00    -0.326 C  
HETATM   10  C   UNL     1      -9.897  15.663  67.748  1.00  0.00    -0.220 C  
ENDROOT
BRANCH   4  11
HETATM   11  C   UNL     1      -7.891  11.832  67.637  1.00  0.00    -0.138 C  
HETATM   12  C   UNL     1      -8.435  10.327  69.613  1.00  0.00    -0.132 C  
HETATM   13  C   UNL     1      -9.434   9.460  68.814  1.00  0.00    -0.150 C  
HETATM   14  C   UNL     1      -9.030  11.136  66.855  1.00  0.00    -0.164 C  
HETATM   15  C   UNL     1     -10.041  10.343  67.692  1.00  0.00    -0.223 C  
HETATM   16  C   UNL     1      -7.332  10.836  68.676  1.00  0.00    -0.097 C  
BRANCH  13  17
HETATM   17  C   UNL     1      -8.666   8.171  68.357  1.00  0.00    -0.134 A  
HETATM   18  C   UNL     1      -8.032   6.686  66.499  1.00  0.00    -0.106 A  
HETATM   19  C   UNL     1      -8.132   7.218  69.243  1.00  0.00    -0.124 A  
HETATM   20  F   UNL     1      -7.126   4.564  66.967  1.00  0.00    -0.062 F  
HETATM   21  C   UNL     1      -7.617   6.004  68.770  1.00  0.00    -0.091 A  
HETATM   22  C   UNL     1      -7.586   5.741  67.407  1.00  0.00    -0.096 A  
HETATM   23  C   UNL     1      -8.557   7.891  66.968  1.00  0.00    -0.128 A  
ENDBRANCH  13  17
BRANCH  13  24
HETATM   24  C   UNL     1     -10.581   8.972  69.683  1.00  0.00    -0.224 C  
HETATM   25  H2  UNL     1     -11.895   9.469  70.716  1.00  0.00     0.000 HD 
HETATM   26  N   UNL     1     -11.533   8.568  70.404  1.00  0.00    -0.428 NA 
HETATM   27  H1  UNL     1     -12.303   8.240  70.987  1.00  0.00     0.000 HD 
ENDBRANCH  13  24
ENDBRANCH   4  11
BRANCH  10  28
HETATM   28  C   UNL     1     -10.807  15.296  66.537  1.00  0.00    -0.311 A  
HETATM   29  C   UNL     1     -10.691  15.916  65.276  1.00  0.00    -0.442 A  
HETATM   30  C   UNL     1     -11.758  14.263  66.623  1.00  0.00    -0.417 A  
HETATM   31  C   UNL     1     -12.577  14.702  64.387  1.00  0.00    -0.157 A  
HETATM   32  C   UNL     1     -11.577  15.648  64.228  1.00  0.00    -0.191 A  
HETATM   33  C   UNL     1     -12.647  13.987  65.576  1.00  0.00    -0.543 A  
ENDBRANCH  10  28
TORSDOF 4
ENDMDL
MODEL       74
REMARK 921   NORMALIZED FREE ENERGY PREDICTED BY IDOCK:   -4.87 KCAL/MOL
REMARK 922        TOTAL FREE ENERGY PREDICTED BY IDOCK:   -6.21 KCAL/MOL
REMARK 923 INTER-LIGAND FREE ENERGY PREDICTED BY IDOCK:   -5.61 KCAL/MOL
REMARK 924 INTRA-LIGAND FREE ENERGY PREDICTED BY IDOCK:   -0.60 KCAL/MOL
REMARK 927      BINDING AFFINITY PREDICTED BY RF-SCORE:    0.00 PKD
ROOT
HETATM    1  C   UNL     1      -8.283  13.422  67.088  1.00  0.00    -0.121 C  
HETATM    2  C   UNL     1      -9.586  12.612  67.183  1.00  0.00    -0.207 C  
HETATM    3  C   UNL     1      -9.550  11.874  68.523  1.00  0.00    -0.157 C  
HETATM    4  N   UNL     1     -10.668  10.976  68.890  1.00  0.00    -0.199 NA 
HETATM    5  C   UNL     1     -11.157  10.209  67.744  1.00  0.00    -0.227 C  
HETATM    6  O   UNL     1     -10.724  13.751  64.899  1.00  0.00    -0.351 OA 
HETATM    7  O   UNL     1     -10.303  12.007  63.567  1.00  0.00    -0.404 OA 
HETATM    8  C   UNL     1     -11.276  10.994  66.422  1.00  0.00    -0.041 C  
HETATM    9  C   UNL     1     -10.340  12.587  64.785  1.00  0.00    -0.307 C  
HETATM   10  C   UNL     1      -9.945  11.676  65.976  1.00  0.00    -0.260 C  
ENDROOT
BRANCH   4  11
HETATM   11  C   UNL     1     -10.174  10.090  69.995  1.00  0.00    -0.255 C  
HETATM   12  C   UNL     1     -10.535   7.841  68.865  1.00  0.00    -0.208 C  
HETATM   13  C   UNL     1      -9.076   7.379  69.080  1.00  0.00    -0.134 C  
HETATM   14  C   UNL     1      -8.662   9.768  70.046  1.00  0.00    -0.237 C  
HETATM   15  C   UNL     1      -8.177   8.643  69.123  1.00  0.00    -0.117 C  
HETATM   16  C   UNL     1     -10.959   8.761  70.017  1.00  0.00    -0.216 C  
BRANCH  13  17
HETATM   17  C   UNL     1      -9.064   6.463  70.353  1.00  0.00    -0.155 A  
HETATM   18  C   UNL     1     -10.100   4.589  71.567  1.00  0.00    -0.239 A  
HETATM   19  C   UNL     1      -8.283   6.715  71.495  1.00  0.00    -0.112 A  
HETATM   20  F   UNL     1      -9.548   4.223  73.826  1.00  0.00    -0.111 F  
HETATM   21  C   UNL     1      -8.451   5.959  72.663  1.00  0.00    -0.119 A  
HETATM   22  C   UNL     1      -9.367   4.916  72.695  1.00  0.00    -0.133 A  
HETATM   23  C   UNL     1      -9.943   5.348  70.406  1.00  0.00    -0.291 A  
ENDBRANCH  13  17
BRANCH  13  24
HETATM   24  C   UNL     1      -8.585   6.507  67.937  1.00  0.00    -0.117 C  
HETATM   25  H2  UNL     1      -8.860   5.028  67.055  1.00  0.00     0.000 HD 
HETATM   26  N   UNL     1      -8.177   5.783  66.989  1.00  0.00    -0.102 NA 
HETATM   27  H1  UNL     1      -7.847   5.197  66.221  1.00  0.00     0.000 HD 
ENDBRANCH  13  24
ENDBRANCH   4  11
BRANCH  10  28
HETATM   28  C   UNL     1      -8.844  10.653  65.565  1.00  0.00    -0.202 A  
HETATM   29  C   UNL     1      -7.465  10.930  65.664  1.00  0.00     0.042 A  
HETATM   30  C   UNL     1      -9.175   9.357  65.130  1.00  0.00    -0.287 A  
HETATM   31  C   UNL     1      -6.860   8.815  64.672  1.00  0.00    -0.073 A  
HETATM   32  C   UNL     1      -6.489  10.042  65.200  1.00  0.00    -0.115 A  
HETATM   33  C   UNL     1      -8.203   8.461  64.666  1.00  0.00    -0.157 A  
ENDBRANCH  10  28
TORSDOF 4
ENDMDL
MODEL       75
REMARK 921   NORMALIZED FREE ENERGY PREDICTED BY IDOCK:   -4.83 KCAL/MOL
REMARK 922        TOTAL FREE ENERGY PREDICTED BY IDOCK:   -6.17 KCAL/MOL
REMARK 923 INTER-LIGAND FREE ENERGY PREDICTED BY IDOCK:   -5.89 KCAL/MOL
REMARK 924 INTRA-LIGAND FREE ENERGY PREDICTED BY IDOCK:   -0.28 KCAL/MOL
REMARK 927      BINDING AFFINITY PREDICTED BY RF-SCORE:    0.00 PKD
ROOT
HETATM    1  C   UNL     1      -9.991   4.507  68.279  1.00  0.00    -0.098 C  
HETATM    2  C   UNL     1      -9.563   5.838  68.920  1.00  0.00    -0.163 C  
HETATM    3  C   UNL     1     -10.416   6.932  68.275  1.00  0.00    -0.206 C  
HETATM    4  N   UNL     1     -10.210   8.344  68.671  1.00  0.00    -0.198 NA 
HETATM    5  C   UNL     1      -8.794   8.659  68.866  1.00  0.00    -0.138 C  
HETATM    6  O   UNL     1      -7.938   4.641  70.853  1.00  0.00    -0.077 OA 
HETATM    7  O   UNL     1      -6.014   5.082  69.806  1.00  0.00    -0.019 OA 
HETATM    8  C   UNL     1      -7.970   7.584  69.602  1.00  0.00    -0.125 C  
HETATM    9  C   UNL     1      -7.349   5.218  69.938  1.00  0.00    -0.064 C  
HETATM   10  C   UNL     1      -8.032   6.177  68.928  1.00  0.00    -0.101 C  
ENDROOT
BRANCH   4  11
HETATM   11  C   UNL     1     -10.838   9.193  67.607  1.00  0.00    -0.089 C  
HETATM   12  C   UNL     1      -9.906  11.447  68.324  1.00  0.00    -0.202 C  
HETATM   13  C   UNL     1      -9.305  11.761  66.936  1.00  0.00    -0.197 C  
HETATM   14  C   UNL     1     -10.078   9.360  66.269  1.00  0.00    -0.328 C  
HETATM   15  C   UNL     1      -8.963  10.412  66.249  1.00  0.00    -0.172 C  
HETATM   16  C   UNL     1     -11.171  10.596  68.157  1.00  0.00    -0.366 C  
BRANCH  13  17
HETATM   17  C   UNL     1     -10.322  12.693  66.191  1.00  0.00    -0.273 A  
HETATM   18  C   UNL     1     -11.523  13.199  64.103  1.00  0.00    -0.449 A  
HETATM   19  C   UNL     1     -10.791  13.916  66.705  1.00  0.00    -0.286 A  
HETATM   20  F   UNL     1     -12.602  15.278  63.859  1.00  0.00    -0.421 F  
HETATM   21  C   UNL     1     -11.556  14.783  65.916  1.00  0.00    -0.286 A  
HETATM   22  C   UNL     1     -11.902  14.427  64.618  1.00  0.00    -0.451 A  
HETATM   23  C   UNL     1     -10.751  12.338  64.884  1.00  0.00    -0.335 A  
ENDBRANCH  13  17
BRANCH  13  24
HETATM   24  C   UNL     1      -8.016  12.558  67.044  1.00  0.00    -0.085 C  
HETATM   25  H2  UNL     1      -7.012  13.755  66.267  1.00  0.00     0.000 HD 
HETATM   26  N   UNL     1      -6.946  13.220  67.134  1.00  0.00    -0.409 NA 
HETATM   27  H1  UNL     1      -6.081  13.755  67.207  1.00  0.00     0.000 HD 
ENDBRANCH  13  24
ENDBRANCH   4  11
BRANCH  10  28
HETATM   28  C   UNL     1      -7.324   6.134  67.541  1.00  0.00    -0.077 A  
HETATM   29  C   UNL     1      -6.680   7.254  66.974  1.00  0.00    -0.068 A  
HETATM   30  C   UNL     1      -7.232   4.941  66.803  1.00  0.00    -0.080 A  
HETATM   31  C   UNL     1      -6.163   6.061  64.941  1.00  0.00    -0.030 A  
HETATM   32  C   UNL     1      -6.135   7.230  65.686  1.00  0.00    -0.037 A  
HETATM   33  C   UNL     1      -6.685   4.908  65.513  1.00  0.00    -0.056 A  
ENDBRANCH  10  28
TORSDOF 4
ENDMDL
MODEL       76
REMARK 921   NORMALIZED FREE ENERGY PREDICTED BY IDOCK:   -4.83 KCAL/MOL
REMARK 922        TOTAL FREE ENERGY PREDICTED BY IDOCK:   -6.16 KCAL/MOL
REMARK 923 INTER-LIGAND FREE ENERGY PREDICTED BY IDOCK:   -5.62 KCAL/MOL
REMARK 924 INTRA-LIGAND FREE ENERGY PREDICTED BY IDOCK:   -0.54 KCAL/MOL
REMARK 927      BINDING AFFINITY PREDICTED BY RF-SCORE:    0.00 PKD
ROOT
HETATM    1  C   UNL     1     -12.891  14.276  67.345  1.00  0.00     1.143 C  
HETATM    2  C   UNL     1     -11.949  13.624  66.320  1.00  0.00    -0.461 C  
HETATM    3  C   UNL     1     -11.216  12.496  67.048  1.00  0.00    -0.302 C  
HETATM    4  N   UNL     1     -10.206  11.696  66.321  1.00  0.00    -0.220 NA 
HETATM    5  C   UNL     1      -9.394  12.519  65.423  1.00  0.00     0.227 C  
HETATM    6  O   UNL     1     -12.969  15.052  64.144  1.00  0.00    -0.511 OA 
HETATM    7  O   UNL     1     -11.281  16.513  64.047  1.00  0.00    -0.967 OA 
HETATM    8  C   UNL     1     -10.165  13.590  64.626  1.00  0.00    -0.341 C  
HETATM    9  C   UNL     1     -11.851  15.392  64.534  1.00  0.00    -0.256 C  
HETATM   10  C   UNL     1     -10.984  14.571  65.523  1.00  0.00    -0.337 C  
ENDROOT
BRANCH   4  11
HETATM   11  C   UNL     1      -9.373  10.997  67.354  1.00  0.00    -0.155 C  
HETATM   12  C   UNL     1      -9.920   8.596  66.718  1.00  0.00    -0.343 C  
HETATM   13  C   UNL     1      -8.438   8.186  66.570  1.00  0.00    -0.132 C  
HETATM   14  C   UNL     1      -7.893  10.699  67.014  1.00  0.00    -0.117 C  
HETATM   15  C   UNL     1      -7.631   9.449  66.166  1.00  0.00    -0.096 C  
HETATM   16  C   UNL     1     -10.048   9.681  67.796  1.00  0.00    -0.232 C  
BRANCH  13  17
HETATM   17  C   UNL     1      -8.017   7.479  67.905  1.00  0.00    -0.119 A  
HETATM   18  C   UNL     1      -6.188   6.827  69.417  1.00  0.00    -0.030 A  
HETATM   19  C   UNL     1      -8.883   6.691  68.684  1.00  0.00    -0.122 A  
HETATM   20  F   UNL     1      -6.597   5.259  71.125  1.00  0.00    -0.035 F  
HETATM   21  C   UNL     1      -8.400   5.944  69.766  1.00  0.00    -0.124 A  
HETATM   22  C   UNL     1      -7.057   6.005  70.113  1.00  0.00    -0.071 A  
HETATM   23  C   UNL     1      -6.665   7.563  68.331  1.00  0.00    -0.054 A  
ENDBRANCH  13  17
BRANCH  13  24
HETATM   24  C   UNL     1      -8.244   7.150  65.474  1.00  0.00    -0.139 C  
HETATM   25  H2  UNL     1      -7.929   6.919  63.774  1.00  0.00     0.000 HD 
HETATM   26  N   UNL     1      -8.084   6.292  64.564  1.00  0.00    -0.179 NA 
HETATM   27  H1  UNL     1      -7.954   5.597  63.829  1.00  0.00     0.000 HD 
ENDBRANCH  13  24
ENDBRANCH   4  11
BRANCH  10  28
HETATM   28  C   UNL     1     -10.082  15.500  66.390  1.00  0.00    -0.301 A  
HETATM   29  C   UNL     1     -10.557  16.183  67.528  1.00  0.00    -0.314 A  
HETATM   30  C   UNL     1      -8.711  15.653  66.115  1.00  0.00    -0.241 A  
HETATM   31  C   UNL     1      -8.446  17.301  67.869  1.00  0.00    -0.218 A  
HETATM   32  C   UNL     1      -9.765  17.091  68.240  1.00  0.00    -0.275 A  
HETATM   33  C   UNL     1      -7.911  16.558  66.825  1.00  0.00    -0.296 A  
ENDBRANCH  10  28
TORSDOF 4
ENDMDL
MODEL       77
REMARK 921   NORMALIZED FREE ENERGY PREDICTED BY IDOCK:   -4.77 KCAL/MOL
REMARK 922        TOTAL FREE ENERGY PREDICTED BY IDOCK:   -6.09 KCAL/MOL
REMARK 923 INTER-LIGAND FREE ENERGY PREDICTED BY IDOCK:   -5.99 KCAL/MOL
REMARK 924 INTRA-LIGAND FREE ENERGY PREDICTED BY IDOCK:   -0.09 KCAL/MOL
REMARK 927      BINDING AFFINITY PREDICTED BY RF-SCORE:    0.00 PKD
ROOT
HETATM    1  C   UNL     1     -11.900  13.259  69.123  1.00  0.00    -0.378 C  
HETATM    2  C   UNL     1     -11.667  12.328  67.922  1.00  0.00    -0.410 C  
HETATM    3  C   UNL     1     -11.349  10.944  68.491  1.00  0.00    -0.299 C  
HETATM    4  N   UNL     1     -11.044   9.829  67.566  1.00  0.00    -0.146 NA 
HETATM    5  C   UNL     1     -10.228  10.263  66.431  1.00  0.00    -0.225 C  
HETATM    6  O   UNL     1     -12.489  14.207  66.023  1.00  0.00    -0.467 OA 
HETATM    7  O   UNL     1     -10.424  14.764  65.377  1.00  0.00    -0.325 OA 
HETATM    8  C   UNL     1     -10.623  11.618  65.810  1.00  0.00    -0.320 C  
HETATM    9  C   UNL     1     -11.278  13.984  66.070  1.00  0.00    -0.310 C  
HETATM   10  C   UNL     1     -10.638  12.796  66.834  1.00  0.00    -0.257 C  
ENDROOT
BRANCH   4  11
HETATM   11  C   UNL     1     -10.366   8.763  68.374  1.00  0.00    -0.204 C  
HETATM   12  C   UNL     1     -10.336   6.923  66.620  1.00  0.00    -0.214 C  
HETATM   13  C   UNL     1      -8.812   6.694  66.733  1.00  0.00    -0.132 C  
HETATM   14  C   UNL     1      -8.820   8.723  68.373  1.00  0.00    -0.138 C  
HETATM   15  C   UNL     1      -8.160   8.032  67.174  1.00  0.00    -0.117 C  
HETATM   16  C   UNL     1     -10.891   7.366  67.979  1.00  0.00    -0.127 C  
BRANCH  13  17
HETATM   17  C   UNL     1      -8.597   5.461  67.678  1.00  0.00    -0.104 A  
HETATM   18  C   UNL     1      -7.001   4.028  68.885  1.00  0.00    -0.047 A  
HETATM   19  C   UNL     1      -9.608   4.542  68.013  1.00  0.00    -0.209 A  
HETATM   20  F   UNL     1      -7.725   1.969  69.767  1.00  0.00    -0.042 F  
HETATM   21  C   UNL     1      -9.309   3.367  68.714  1.00  0.00    -0.234 A  
HETATM   22  C   UNL     1      -8.008   3.112  69.129  1.00  0.00    -0.049 A  
HETATM   23  C   UNL     1      -7.293   5.194  68.175  1.00  0.00    -0.075 A  
ENDBRANCH  13  17
BRANCH  13  24
HETATM   24  C   UNL     1      -8.197   6.305  65.399  1.00  0.00    -0.142 C  
HETATM   25  H2  UNL     1      -7.974   5.002  64.260  1.00  0.00     0.000 HD 
HETATM   26  N   UNL     1      -7.688   5.981  64.291  1.00  0.00    -0.098 NA 
HETATM   27  H1  UNL     1      -7.276   5.720  63.396  1.00  0.00     0.000 HD 
ENDBRANCH  13  24
ENDBRANCH   4  11
BRANCH  10  28
HETATM   28  C   UNL     1      -9.218  13.163  67.361  1.00  0.00    -0.213 A  
HETATM   29  C   UNL     1      -8.987  14.215  68.272  1.00  0.00    -0.188 A  
HETATM   30  C   UNL     1      -8.086  12.409  67.002  1.00  0.00    -0.124 A  
HETATM   31  C   UNL     1      -6.596  13.899  68.195  1.00  0.00    -0.127 A  
HETATM   32  C   UNL     1      -7.699  14.598  68.660  1.00  0.00    -0.135 A  
HETATM   33  C   UNL     1      -6.793  12.785  67.389  1.00  0.00    -0.137 A  
ENDBRANCH  10  28
TORSDOF 4
ENDMDL
MODEL       78
REMARK 921   NORMALIZED FREE ENERGY PREDICTED BY IDOCK:   -4.70 KCAL/MOL
REMARK 922        TOTAL FREE ENERGY PREDICTED BY IDOCK:   -6.00 KCAL/MOL
REMARK 923 INTER-LIGAND FREE ENERGY PREDICTED BY IDOCK:   -5.96 KCAL/MOL
REMARK 924 INTRA-LIGAND FREE ENERGY PREDICTED BY IDOCK:   -0.04 KCAL/MOL
REMARK 927      BINDING AFFINITY PREDICTED BY RF-SCORE:    0.00 PKD
ROOT
HETATM    1  C   UNL     1      -8.206  14.980  69.878  1.00  0.00     0.208 C  
HETATM    2  C   UNL     1      -9.287  14.774  68.804  1.00  0.00    -0.198 C  
HETATM    3  C   UNL     1      -8.870  13.549  67.988  1.00  0.00    -0.181 C  
HETATM    4  N   UNL     1      -9.707  13.115  66.847  1.00  0.00    -0.237 NA 
HETATM    5  C   UNL     1     -10.231  14.251  66.086  1.00  0.00    -0.307 C  
HETATM    6  O   UNL     1     -11.013  16.706  69.853  1.00  0.00    -0.347 OA 
HETATM    7  O   UNL     1     -10.501  18.278  68.349  1.00  0.00    -0.352 OA 
HETATM    8  C   UNL     1     -10.735  15.439  66.929  1.00  0.00    -0.314 C  
HETATM    9  C   UNL     1     -10.434  17.012  68.809  1.00  0.00    -0.347 C  
HETATM   10  C   UNL     1      -9.664  16.008  67.912  1.00  0.00    -0.220 C  
ENDROOT
BRANCH   4  11
HETATM   11  C   UNL     1      -8.861  12.211  66.002  1.00  0.00     0.100 C  
HETATM   12  C   UNL     1      -8.942  10.137  67.470  1.00  0.00    -0.136 C  
HETATM   13  C   UNL     1      -9.444   9.220  66.332  1.00  0.00    -0.277 C  
HETATM   14  C   UNL     1      -9.560  11.392  64.890  1.00  0.00    -0.244 C  
HETATM   15  C   UNL     1     -10.248  10.096  65.334  1.00  0.00    -0.281 C  
HETATM   16  C   UNL     1      -8.051  11.240  66.887  1.00  0.00    -0.155 C  
BRANCH  13  17
HETATM   17  C   UNL     1      -8.194   8.467  65.759  1.00  0.00    -0.131 A  
HETATM   18  C   UNL     1      -7.004   7.644  63.768  1.00  0.00    -0.060 A  
HETATM   19  C   UNL     1      -7.276   7.752  66.549  1.00  0.00    -0.086 A  
HETATM   20  F   UNL     1      -5.242   6.102  64.023  1.00  0.00    -0.015 F  
HETATM   21  C   UNL     1      -6.285   6.956  65.960  1.00  0.00    -0.039 A  
HETATM   22  C   UNL     1      -6.168   6.895  64.577  1.00  0.00    -0.036 A  
HETATM   23  C   UNL     1      -7.999   8.428  64.352  1.00  0.00    -0.148 A  
ENDBRANCH  13  17
BRANCH  13  24
HETATM   24  C   UNL     1     -10.378   8.138  66.847  1.00  0.00    -0.331 C  
HETATM   25  H2  UNL     1     -10.555   6.426  67.132  1.00  0.00     0.000 HD 
HETATM   26  N   UNL     1     -11.153   7.240  67.274  1.00  0.00    -0.583 NA 
HETATM   27  H1  UNL     1     -11.780   6.514  67.621  1.00  0.00     0.000 HD 
ENDBRANCH  13  24
ENDBRANCH   4  11
BRANCH  10  28
HETATM   28  C   UNL     1      -8.474  16.701  67.182  1.00  0.00    -0.213 A  
HETATM   29  C   UNL     1      -7.147  16.232  67.263  1.00  0.00    -0.226 A  
HETATM   30  C   UNL     1      -8.678  17.808  66.338  1.00  0.00    -0.255 A  
HETATM   31  C   UNL     1      -6.302  18.073  65.952  1.00  0.00    -0.294 A  
HETATM   32  C   UNL     1      -6.074  16.919  66.685  1.00  0.00    -0.186 A  
HETATM   33  C   UNL     1      -7.609  18.499  65.753  1.00  0.00    -0.074 A  
ENDBRANCH  10  28
TORSDOF 4
ENDMDL
MODEL       79
REMARK 921   NORMALIZED FREE ENERGY PREDICTED BY IDOCK:   -4.58 KCAL/MOL
REMARK 922        TOTAL FREE ENERGY PREDICTED BY IDOCK:   -5.85 KCAL/MOL
REMARK 923 INTER-LIGAND FREE ENERGY PREDICTED BY IDOCK:   -5.08 KCAL/MOL
REMARK 924 INTRA-LIGAND FREE ENERGY PREDICTED BY IDOCK:   -0.77 KCAL/MOL
REMARK 927      BINDING AFFINITY PREDICTED BY RF-SCORE:    0.00 PKD
ROOT
HETATM    1  C   UNL     1      -8.837  10.014  69.926  1.00  0.00    -0.177 C  
HETATM    2  C   UNL     1      -7.822  10.224  68.791  1.00  0.00    -0.106 C  
HETATM    3  C   UNL     1      -7.062  11.513  69.112  1.00  0.00    -0.105 C  
HETATM    4  N   UNL     1      -6.026  11.999  68.173  1.00  0.00    -0.051 NA 
HETATM    5  C   UNL     1      -6.417  11.812  66.775  1.00  0.00    -0.069 C  
HETATM    6  O   UNL     1      -8.291   7.735  67.610  1.00  0.00    -0.119 OA 
HETATM    7  O   UNL     1      -9.573   8.527  65.961  1.00  0.00    -0.227 OA 
HETATM    8  C   UNL     1      -7.098  10.467  66.452  1.00  0.00    -0.128 C  
HETATM    9  C   UNL     1      -8.742   8.710  67.007  1.00  0.00    -0.127 C  
HETATM   10  C   UNL     1      -8.364  10.181  67.319  1.00  0.00    -0.121 C  
ENDROOT
BRANCH   4  11
HETATM   11  C   UNL     1      -5.778  13.441  68.503  1.00  0.00    -0.089 C  
HETATM   12  C   UNL     1      -7.993  14.398  67.700  1.00  0.00    -0.191 C  
HETATM   13  C   UNL     1      -8.303  15.092  69.045  1.00  0.00    -0.194 C  
HETATM   14  C   UNL     1      -6.136  13.933  69.925  1.00  0.00    -0.140 C  
HETATM   15  C   UNL     1      -7.610  14.280  70.171  1.00  0.00     0.721 C  
HETATM   16  C   UNL     1      -6.475  14.360  67.478  1.00  0.00    -0.066 C  
BRANCH  13  17
HETATM   17  C   UNL     1      -7.880  16.595  68.899  1.00  0.00    -0.240 A  
HETATM   18  C   UNL     1      -8.117  18.702  67.649  1.00  0.00    -0.262 A  
HETATM   19  C   UNL     1      -6.817  17.185  69.606  1.00  0.00     0.027 A  
HETATM   20  F   UNL     1      -6.571  20.442  68.001  1.00  0.00    -0.282 F  
HETATM   21  C   UNL     1      -6.379  18.479  69.299  1.00  0.00    -0.272 A  
HETATM   22  C   UNL     1      -7.020  19.220  68.314  1.00  0.00    -0.271 A  
HETATM   23  C   UNL     1      -8.548  17.408  67.944  1.00  0.00    -0.232 A  
ENDBRANCH  13  17
BRANCH  13  24
HETATM   24  C   UNL     1      -9.793  15.108  69.343  1.00  0.00    -0.212 C  
HETATM   25  H2  UNL     1     -11.352  14.506  68.842  1.00  0.00     0.000 HD 
HETATM   26  N   UNL     1     -11.029  15.121  69.590  1.00  0.00    -0.267 NA 
HETATM   27  H1  UNL     1     -12.029  15.132  69.791  1.00  0.00     0.000 HD 
ENDBRANCH  13  24
ENDBRANCH   4  11
BRANCH  10  28
HETATM   28  C   UNL     1      -9.547  11.146  67.007  1.00  0.00    -0.201 A  
HETATM   29  C   UNL     1     -10.477  11.559  67.984  1.00  0.00    -0.214 A  
HETATM   30  C   UNL     1      -9.710  11.716  65.732  1.00  0.00    -0.262 A  
HETATM   31  C   UNL     1     -11.780  12.796  66.373  1.00  0.00    -0.464 A  
HETATM   32  C   UNL     1     -11.591  12.345  67.670  1.00  0.00    -0.421 A  
HETATM   33  C   UNL     1     -10.822  12.507  65.411  1.00  0.00    -0.316 A  
ENDBRANCH  10  28
TORSDOF 4
ENDMDL
MODEL       80
REMARK 921   NORMALIZED FREE ENERGY PREDICTED BY IDOCK:   -4.57 KCAL/MOL
REMARK 922        TOTAL FREE ENERGY PREDICTED BY IDOCK:   -5.84 KCAL/MOL
REMARK 923 INTER-LIGAND FREE ENERGY PREDICTED BY IDOCK:   -5.76 KCAL/MOL
REMARK 924 INTRA-LIGAND FREE ENERGY PREDICTED BY IDOCK:   -0.08 KCAL/MOL
REMARK 927      BINDING AFFINITY PREDICTED BY RF-SCORE:    0.00 PKD
ROOT
HETATM    1  C   UNL     1      -7.251   4.903  69.237  1.00  0.00    -0.056 C  
HETATM    2  C   UNL     1      -8.694   5.426  69.160  1.00  0.00    -0.104 C  
HETATM    3  C   UNL     1      -8.656   6.705  68.321  1.00  0.00    -0.119 C  
HETATM    4  N   UNL     1      -9.906   7.464  68.094  1.00  0.00    -0.151 NA 
HETATM    5  C   UNL     1     -10.752   7.501  69.287  1.00  0.00    -0.176 C  
HETATM    6  O   UNL     1      -9.814   3.165  70.362  1.00  0.00    -0.099 OA 
HETATM    7  O   UNL     1     -10.088   4.112  72.367  1.00  0.00    -0.166 OA 
HETATM    8  C   UNL     1     -10.854   6.176  70.069  1.00  0.00    -0.408 C  
HETATM    9  C   UNL     1      -9.781   4.183  71.056  1.00  0.00    -0.190 C  
HETATM   10  C   UNL     1      -9.472   5.601  70.512  1.00  0.00    -0.203 C  
ENDROOT
BRANCH   4  11
HETATM   11  C   UNL     1      -9.508   8.837  67.641  1.00  0.00    -0.141 C  
HETATM   12  C   UNL     1     -11.599  10.093  68.360  1.00  0.00     0.043 C  
HETATM   13  C   UNL     1     -10.816  11.136  69.189  1.00  0.00    -0.284 C  
HETATM   14  C   UNL     1      -8.699   9.720  68.621  1.00  0.00    -0.122 C  
HETATM   15  C   UNL     1      -9.509  10.464  69.689  1.00  0.00    -0.118 C  
HETATM   16  C   UNL     1     -10.744   9.634  67.172  1.00  0.00    -0.258 C  
BRANCH  13  17
HETATM   17  C   UNL     1     -10.654  12.412  68.293  1.00  0.00    -0.236 A  
HETATM   18  C   UNL     1      -9.181  14.223  67.513  1.00  0.00    -0.197 A  
HETATM   19  C   UNL     1     -11.725  13.072  67.662  1.00  0.00    -0.415 A  
HETATM   20  F   UNL     1     -10.108  16.073  66.391  1.00  0.00    -0.251 F  
HETATM   21  C   UNL     1     -11.537  14.304  67.025  1.00  0.00    -0.406 A  
HETATM   22  C   UNL     1     -10.272  14.877  66.970  1.00  0.00    -0.256 A  
HETATM   23  C   UNL     1      -9.368  13.000  68.159  1.00  0.00    -0.217 A  
ENDBRANCH  13  17
BRANCH  13  24
HETATM   24  C   UNL     1     -11.596  11.586  70.414  1.00  0.00    -0.121 C  
HETATM   25  H2  UNL     1     -11.718  12.806  71.655  1.00  0.00     0.000 HD 
HETATM   26  N   UNL     1     -12.242  11.960  71.430  1.00  0.00    -0.118 NA 
HETATM   27  H1  UNL     1     -12.766  12.262  72.251  1.00  0.00     0.000 HD 
ENDBRANCH  13  24
ENDBRANCH   4  11
BRANCH  10  28
HETATM   28  C   UNL     1      -8.764   6.478  71.589  1.00  0.00    -0.132 A  
HETATM   29  C   UNL     1      -7.364   6.629  71.654  1.00  0.00    -0.087 A  
HETATM   30  C   UNL     1      -9.502   7.227  72.523  1.00  0.00    -0.180 A  
HETATM   31  C   UNL     1      -7.496   7.971  73.655  1.00  0.00    -0.195 A  
HETATM   32  C   UNL     1      -6.736   7.337  72.684  1.00  0.00    -0.063 A  
HETATM   33  C   UNL     1      -8.880   7.941  73.556  1.00  0.00    -0.333 A  
ENDBRANCH  10  28
TORSDOF 4
ENDMDL
MODEL       81
REMARK 921   NORMALIZED FREE ENERGY PREDICTED BY IDOCK:   -4.55 KCAL/MOL
REMARK 922        TOTAL FREE ENERGY PREDICTED BY IDOCK:   -5.82 KCAL/MOL
REMARK 923 INTER-LIGAND FREE ENERGY PREDICTED BY IDOCK:   -6.91 KCAL/MOL
REMARK 924 INTRA-LIGAND FREE ENERGY PREDICTED BY IDOCK:    1.09 KCAL/MOL
REMARK 927      BINDING AFFINITY PREDICTED BY RF-SCORE:    0.00 PKD
ROOT
HETATM    1  C   UNL     1     -12.401  12.628  65.484  1.00  0.00    -0.455 C  
HETATM    2  C   UNL     1     -10.938  12.393  65.892  1.00  0.00    -0.323 C  
HETATM    3  C   UNL     1     -10.708  10.880  65.859  1.00  0.00    -0.124 C  
HETATM    4  N   UNL     1      -9.385  10.336  66.239  1.00  0.00    -0.162 NA 
HETATM    5  C   UNL     1      -8.801  11.053  67.374  1.00  0.00    -0.138 C  
HETATM    6  O   UNL     1     -10.259  15.104  65.857  1.00  0.00    -0.283 OA 
HETATM    7  O   UNL     1     -10.332  15.363  68.076  1.00  0.00    -0.242 OA 
HETATM    8  C   UNL     1      -8.960  12.586  67.343  1.00  0.00    -0.188 C  
HETATM    9  C   UNL     1     -10.357  14.588  66.972  1.00  0.00    -0.263 C  
HETATM   10  C   UNL     1     -10.443  13.060  67.223  1.00  0.00    -0.238 C  
ENDROOT
BRANCH   4  11
HETATM   11  C   UNL     1      -9.578   8.878  66.531  1.00  0.00    -0.232 C  
HETATM   12  C   UNL     1      -7.918   8.651  68.443  1.00  0.00    -0.113 C  
HETATM   13  C   UNL     1      -8.956   8.045  69.413  1.00  0.00    -0.148 C  
HETATM   14  C   UNL     1     -10.699   8.477  67.520  1.00  0.00    -0.211 C  
HETATM   15  C   UNL     1     -10.356   8.581  69.010  1.00  0.00    -0.229 C  
HETATM   16  C   UNL     1      -8.256   8.239  67.004  1.00  0.00    -0.104 C  
BRANCH  13  17
HETATM   17  C   UNL     1      -8.763   6.489  69.385  1.00  0.00    -0.134 A  
HETATM   18  C   UNL     1      -9.800   4.268  69.608  1.00  0.00    -0.244 A  
HETATM   19  C   UNL     1      -7.509   5.853  69.361  1.00  0.00    -0.087 A  
HETATM   20  F   UNL     1      -8.432   2.366  69.841  1.00  0.00    -0.059 F  
HETATM   21  C   UNL     1      -7.402   4.465  69.516  1.00  0.00    -0.051 A  
HETATM   22  C   UNL     1      -8.545   3.687  69.655  1.00  0.00    -0.066 A  
HETATM   23  C   UNL     1      -9.908   5.652  69.465  1.00  0.00    -0.238 A  
ENDBRANCH  13  17
BRANCH  13  24
HETATM   24  C   UNL     1      -8.701   8.468  70.851  1.00  0.00    -0.166 C  
HETATM   25  H2  UNL     1      -7.851   8.072  72.322  1.00  0.00     0.000 HD 
HETATM   26  N   UNL     1      -8.489   8.818  72.043  1.00  0.00    -0.368 NA 
HETATM   27  H1  UNL     1      -8.318   9.102  73.008  1.00  0.00     0.000 HD 
ENDBRANCH  13  24
ENDBRANCH   4  11
BRANCH  10  28
HETATM   28  C   UNL     1     -11.289  12.743  68.493  1.00  0.00    -0.326 A  
HETATM   29  C   UNL     1     -11.648  13.724  69.439  1.00  0.00    -0.365 A  
HETATM   30  C   UNL     1     -11.801  11.454  68.727  1.00  0.00    -0.388 A  
HETATM   31  C   UNL     1     -12.714  12.103  70.874  1.00  0.00    -0.280 A  
HETATM   32  C   UNL     1     -12.322  13.409  70.623  1.00  0.00    -0.423 A  
HETATM   33  C   UNL     1     -12.479  11.131  69.910  1.00  0.00    -0.257 A  
ENDBRANCH  10  28
TORSDOF 4
ENDMDL
MODEL       82
REMARK 921   NORMALIZED FREE ENERGY PREDICTED BY IDOCK:   -4.54 KCAL/MOL
REMARK 922        TOTAL FREE ENERGY PREDICTED BY IDOCK:   -5.81 KCAL/MOL
REMARK 923 INTER-LIGAND FREE ENERGY PREDICTED BY IDOCK:   -6.10 KCAL/MOL
REMARK 924 INTRA-LIGAND FREE ENERGY PREDICTED BY IDOCK:    0.30 KCAL/MOL
REMARK 927      BINDING AFFINITY PREDICTED BY RF-SCORE:    0.00 PKD
ROOT
HETATM    1  C   UNL     1     -10.926  15.379  65.339  1.00  0.00    -0.376 C  
HETATM    2  C   UNL     1      -9.657  15.916  66.022  1.00  0.00    -0.385 C  
HETATM    3  C   UNL     1      -8.782  14.703  66.343  1.00  0.00     0.027 C  
HETATM    4  N   UNL     1      -7.491  14.901  67.040  1.00  0.00    -0.074 NA 
HETATM    5  C   UNL     1      -7.579  15.927  68.080  1.00  0.00    -0.131 C  
HETATM    6  O   UNL     1     -10.262  18.601  65.534  1.00  0.00    -0.474 OA 
HETATM    7  O   UNL     1     -10.978  19.030  67.606  1.00  0.00    -0.407 OA 
HETATM    8  C   UNL     1      -8.388  17.185  67.704  1.00  0.00    -0.197 C  
HETATM    9  C   UNL     1     -10.389  18.224  66.699  1.00  0.00    -0.381 C  
HETATM   10  C   UNL     1      -9.848  16.878  67.247  1.00  0.00    -0.265 C  
ENDROOT
BRANCH   4  11
HETATM   11  C   UNL     1      -7.083  13.568  67.594  1.00  0.00    -0.168 C  
HETATM   12  C   UNL     1      -9.186  13.052  68.926  1.00  0.00     0.297 C  
HETATM   13  C   UNL     1      -9.405  11.679  68.252  1.00  0.00    -0.191 C  
HETATM   14  C   UNL     1      -7.372  12.309  66.742  1.00  0.00     0.133 C  
HETATM   15  C   UNL     1      -8.795  11.746  66.826  1.00  0.00    -0.191 C  
HETATM   16  C   UNL     1      -7.684  13.356  68.999  1.00  0.00     0.146 C  
BRANCH  13  17
HETATM   17  C   UNL     1      -8.820  10.591  69.218  1.00  0.00    -0.135 A  
HETATM   18  C   UNL     1      -6.876   9.232  69.874  1.00  0.00    -0.055 A  
HETATM   19  C   UNL     1      -9.601   9.821  70.099  1.00  0.00    -0.287 A  
HETATM   20  F   UNL     1      -7.176   7.398  71.320  1.00  0.00    -0.064 F  
HETATM   21  C   UNL     1      -9.043   8.746  70.803  1.00  0.00    -0.233 A  
HETATM   22  C   UNL     1      -7.692   8.450  70.673  1.00  0.00    -0.083 A  
HETATM   23  C   UNL     1      -7.432  10.296  69.162  1.00  0.00    -0.105 A  
ENDBRANCH  13  17
BRANCH  13  24
HETATM   24  C   UNL     1     -10.881  11.351  68.103  1.00  0.00    -0.213 C  
HETATM   25  H2  UNL     1     -12.142  10.946  66.968  1.00  0.00     0.000 HD 
HETATM   26  N   UNL     1     -12.106  11.078  67.979  1.00  0.00    -0.727 NA 
HETATM   27  H1  UNL     1     -13.097  10.857  67.879  1.00  0.00     0.000 HD 
ENDBRANCH  13  24
ENDBRANCH   4  11
BRANCH  10  28
HETATM   28  C   UNL     1     -10.746  16.334  68.398  1.00  0.00    -0.311 A  
HETATM   29  C   UNL     1     -10.736  16.878  69.699  1.00  0.00    -0.151 A  
HETATM   30  C   UNL     1     -11.674  15.301  68.177  1.00  0.00    -0.297 A  
HETATM   31  C   UNL     1     -12.294  15.225  70.516  1.00  0.00    -0.434 A  
HETATM   32  C   UNL     1     -11.473  16.318  70.748  1.00  0.00    -0.327 A  
HETATM   33  C   UNL     1     -12.417  14.737  69.222  1.00  0.00    -0.045 A  
ENDBRANCH  10  28
TORSDOF 4
ENDMDL
MODEL       83
REMARK 921   NORMALIZED FREE ENERGY PREDICTED BY IDOCK:   -4.53 KCAL/MOL
REMARK 922        TOTAL FREE ENERGY PREDICTED BY IDOCK:   -5.79 KCAL/MOL
REMARK 923 INTER-LIGAND FREE ENERGY PREDICTED BY IDOCK:   -5.03 KCAL/MOL
REMARK 924 INTRA-LIGAND FREE ENERGY PREDICTED BY IDOCK:   -0.76 KCAL/MOL
REMARK 927      BINDING AFFINITY PREDICTED BY RF-SCORE:    0.00 PKD
ROOT
HETATM    1  C   UNL     1     -11.298  13.806  70.043  1.00  0.00    -0.089 C  
HETATM    2  C   UNL     1     -11.499  13.975  68.528  1.00  0.00    -0.336 C  
HETATM    3  C   UNL     1     -11.229  12.610  67.892  1.00  0.00    -0.266 C  
HETATM    4  N   UNL     1     -11.315  12.462  66.422  1.00  0.00    -0.323 NA 
HETATM    5  C   UNL     1     -10.763  13.622  65.719  1.00  0.00    -0.280 C  
HETATM    6  O   UNL     1     -12.524  16.568  68.728  1.00  0.00     0.566 OA 
HETATM    7  O   UNL     1     -10.635  17.585  68.103  1.00  0.00    -0.370 OA 
HETATM    8  C   UNL     1     -11.123  14.995  66.320  1.00  0.00    -0.334 C  
HETATM    9  C   UNL     1     -11.380  16.475  68.280  1.00  0.00    -0.180 C  
HETATM   10  C   UNL     1     -10.726  15.145  67.823  1.00  0.00    -0.279 C  
ENDROOT
BRANCH   4  11
HETATM   11  C   UNL     1     -10.599  11.193  66.066  1.00  0.00    -0.239 C  
HETATM   12  C   UNL     1      -8.345  11.723  67.116  1.00  0.00    -0.168 C  
HETATM   13  C   UNL     1      -8.313  10.428  67.958  1.00  0.00    -0.118 C  
HETATM   14  C   UNL     1     -10.717   9.996  67.040  1.00  0.00    -0.248 C  
HETATM   15  C   UNL     1      -9.779  10.014  68.253  1.00  0.00    -0.155 C  
HETATM   16  C   UNL     1      -9.103  11.467  65.807  1.00  0.00    -0.195 C  
BRANCH  13  17
HETATM   17  C   UNL     1      -7.432   9.391  67.179  1.00  0.00    -0.091 A  
HETATM   18  C   UNL     1      -5.374   8.970  65.896  1.00  0.00    -0.040 A  
HETATM   19  C   UNL     1      -7.865   8.101  66.822  1.00  0.00    -0.095 A  
HETATM   20  F   UNL     1      -5.160   6.973  64.667  1.00  0.00    -0.024 F  
HETATM   21  C   UNL     1      -7.098   7.292  65.975  1.00  0.00    -0.066 A  
HETATM   22  C   UNL     1      -5.869   7.738  65.506  1.00  0.00    -0.038 A  
HETATM   23  C   UNL     1      -6.142   9.783  66.730  1.00  0.00    -0.063 A  
ENDBRANCH  13  17
BRANCH  13  24
HETATM   24  C   UNL     1      -7.620  10.639  69.294  1.00  0.00    -0.138 C  
HETATM   25  H2  UNL     1      -7.013   9.845  70.724  1.00  0.00     0.000 HD 
HETATM   26  N   UNL     1      -7.045  10.813  70.403  1.00  0.00    -0.467 NA 
HETATM   27  H1  UNL     1      -6.580  10.955  71.299  1.00  0.00     0.000 HD 
ENDBRANCH  13  24
ENDBRANCH   4  11
BRANCH  10  28
HETATM   28  C   UNL     1      -9.184  15.167  68.046  1.00  0.00    -0.185 A  
HETATM   29  C   UNL     1      -8.270  15.549  67.042  1.00  0.00    -0.275 A  
HETATM   30  C   UNL     1      -8.622  14.866  69.300  1.00  0.00    -0.106 A  
HETATM   31  C   UNL     1      -6.366  15.059  68.442  1.00  0.00    -0.107 A  
HETATM   32  C   UNL     1      -6.885  15.469  67.224  1.00  0.00    -0.168 A  
HETATM   33  C   UNL     1      -7.236  14.787  69.489  1.00  0.00    -0.160 A  
ENDBRANCH  10  28
TORSDOF 4
ENDMDL
MODEL       84
REMARK 921   NORMALIZED FREE ENERGY PREDICTED BY IDOCK:   -4.53 KCAL/MOL
REMARK 922        TOTAL FREE ENERGY PREDICTED BY IDOCK:   -5.79 KCAL/MOL
REMARK 923 INTER-LIGAND FREE ENERGY PREDICTED BY IDOCK:   -5.26 KCAL/MOL
REMARK 924 INTRA-LIGAND FREE ENERGY PREDICTED BY IDOCK:   -0.53 KCAL/MOL
REMARK 927      BINDING AFFINITY PREDICTED BY RF-SCORE:    0.00 PKD
ROOT
HETATM    1  C   UNL     1      -5.905   6.448  68.343  1.00  0.00    -0.016 C  
HETATM    2  C   UNL     1      -7.074   6.757  69.293  1.00  0.00    -0.087 C  
HETATM    3  C   UNL     1      -8.280   7.096  68.413  1.00  0.00    -0.125 C  
HETATM    4  N   UNL     1      -9.562   7.472  69.050  1.00  0.00    -0.153 NA 
HETATM    5  C   UNL     1      -9.364   8.318  70.228  1.00  0.00    -0.159 C  
HETATM    6  O   UNL     1      -5.709   5.952  71.595  1.00  0.00    -0.021 OA 
HETATM    7  O   UNL     1      -5.230   8.023  72.285  1.00  0.00    -0.035 OA 
HETATM    8  C   UNL     1      -8.202   7.906  71.153  1.00  0.00    -0.109 C  
HETATM    9  C   UNL     1      -5.866   7.166  71.460  1.00  0.00    -0.037 C  
HETATM   10  C   UNL     1      -6.824   7.813  70.426  1.00  0.00    -0.046 C  
ENDROOT
BRANCH   4  11
HETATM   11  C   UNL     1     -10.390   8.150  67.999  1.00  0.00    -0.211 C  
HETATM   12  C   UNL     1      -8.950  10.217  67.658  1.00  0.00    -0.137 C  
HETATM   13  C   UNL     1      -8.831  10.013  66.131  1.00  0.00    -0.165 C  
HETATM   14  C   UNL     1     -10.129   7.783  66.519  1.00  0.00    -0.224 C  
HETATM   15  C   UNL     1      -8.950   8.493  65.843  1.00  0.00    -0.235 C  
HETATM   16  C   UNL     1     -10.303   9.684  68.145  1.00  0.00    -0.250 C  
BRANCH  13  17
HETATM   17  C   UNL     1      -9.897  10.944  65.455  1.00  0.00    -0.298 A  
HETATM   18  C   UNL     1     -11.225  11.456  63.448  1.00  0.00    -0.252 A  
HETATM   19  C   UNL     1     -10.342  12.160  66.006  1.00  0.00    -0.268 A  
HETATM   20  F   UNL     1     -12.329  13.529  63.284  1.00  0.00    -0.578 F  
HETATM   21  C   UNL     1     -11.159  13.027  65.271  1.00  0.00    -0.311 A  
HETATM   22  C   UNL     1     -11.579  12.677  63.994  1.00  0.00    -0.418 A  
HETATM   23  C   UNL     1     -10.402  10.595  64.174  1.00  0.00    -0.293 A  
ENDBRANCH  13  17
BRANCH  13  24
HETATM   24  C   UNL     1      -7.484  10.475  65.602  1.00  0.00    -0.129 C  
HETATM   25  H2  UNL     1      -6.453  10.539  64.196  1.00  0.00     0.000 HD 
HETATM   26  N   UNL     1      -6.366  10.857  65.161  1.00  0.00    -0.371 NA 
HETATM   27  H1  UNL     1      -5.461  11.167  64.806  1.00  0.00     0.000 HD 
ENDBRANCH  13  24
ENDBRANCH   4  11
BRANCH  10  28
HETATM   28  C   UNL     1      -6.291   9.199  69.952  1.00  0.00    -0.042 A  
HETATM   29  C   UNL     1      -6.451  10.380  70.705  1.00  0.00    -0.036 A  
HETATM   30  C   UNL     1      -5.554   9.330  68.761  1.00  0.00    -0.040 A  
HETATM   31  C   UNL     1      -5.432  11.738  68.990  1.00  0.00    -0.050 A  
HETATM   32  C   UNL     1      -6.057  11.632  70.223  1.00  0.00    -0.128 A  
HETATM   33  C   UNL     1      -5.153  10.582  68.274  1.00  0.00    -0.034 A  
ENDBRANCH  10  28
TORSDOF 4
ENDMDL
MODEL       85
REMARK 921   NORMALIZED FREE ENERGY PREDICTED BY IDOCK:   -4.52 KCAL/MOL
REMARK 922        TOTAL FREE ENERGY PREDICTED BY IDOCK:   -5.79 KCAL/MOL
REMARK 923 INTER-LIGAND FREE ENERGY PREDICTED BY IDOCK:   -6.80 KCAL/MOL
REMARK 924 INTRA-LIGAND FREE ENERGY PREDICTED BY IDOCK:    1.02 KCAL/MOL
REMARK 927      BINDING AFFINITY PREDICTED BY RF-SCORE:    0.00 PKD
ROOT
HETATM    1  C   UNL     1     -11.522  11.759  69.258  1.00  0.00    -0.369 C  
HETATM    2  C   UNL     1     -11.269  11.117  67.884  1.00  0.00    -0.365 C  
HETATM    3  C   UNL     1     -10.922   9.649  68.139  1.00  0.00    -0.132 C  
HETATM    4  N   UNL     1     -10.593   8.769  66.996  1.00  0.00    -0.264 NA 
HETATM    5  C   UNL     1      -9.786   9.457  65.986  1.00  0.00    -0.296 C  
HETATM    6  O   UNL     1     -12.130  13.348  66.436  1.00  0.00    -0.404 OA 
HETATM    7  O   UNL     1     -10.077  14.075  65.938  1.00  0.00    -0.300 OA 
HETATM    8  C   UNL     1     -10.209  10.906  65.673  1.00  0.00    -0.323 C  
HETATM    9  C   UNL     1     -10.915  13.145  66.440  1.00  0.00    -0.288 C  
HETATM   10  C   UNL     1     -10.250  11.833  66.929  1.00  0.00    -0.236 C  
ENDROOT
BRANCH   4  11
HETATM   11  C   UNL     1      -9.894   7.567  67.555  1.00  0.00    -0.162 C  
HETATM   12  C   UNL     1     -10.096   8.126  70.026  1.00  0.00    -0.196 C  
HETATM   13  C   UNL     1     -10.754   6.775  70.388  1.00  0.00    -0.281 C  
HETATM   14  C   UNL     1     -10.735   6.296  67.823  1.00  0.00    -0.383 C  
HETATM   15  C   UNL     1     -11.523   6.270  69.138  1.00  0.00    -0.229 C  
HETATM   16  C   UNL     1      -9.134   7.931  68.848  1.00  0.00    -0.141 C  
BRANCH  13  17
HETATM   17  C   UNL     1      -9.621   5.843  70.942  1.00  0.00    -0.202 A  
HETATM   18  C   UNL     1      -7.660   5.614  72.411  1.00  0.00    -0.101 A  
HETATM   19  C   UNL     1      -9.324   4.571  70.421  1.00  0.00    -0.217 A  
HETATM   20  F   UNL     1      -6.257   3.736  72.191  1.00  0.00    -0.011 F  
HETATM   21  C   UNL     1      -8.190   3.867  70.843  1.00  0.00    -0.077 A  
HETATM   22  C   UNL     1      -7.359   4.400  71.820  1.00  0.00    -0.068 A  
HETATM   23  C   UNL     1      -8.783   6.323  71.984  1.00  0.00    -0.134 A  
ENDBRANCH  13  17
BRANCH  13  24
HETATM   24  C   UNL     1     -11.761   6.920  71.517  1.00  0.00    -0.311 C  
HETATM   25  H2  UNL     1     -12.013   7.535  73.130  1.00  0.00     0.000 HD 
HETATM   26  N   UNL     1     -12.596   7.041  72.454  1.00  0.00    -0.505 NA 
HETATM   27  H1  UNL     1     -13.272   7.138  73.211  1.00  0.00     0.000 HD 
ENDBRANCH  13  24
ENDBRANCH   4  11
BRANCH  10  28
HETATM   28  C   UNL     1      -8.838  12.105  67.531  1.00  0.00    -0.175 A  
HETATM   29  C   UNL     1      -8.088  13.260  67.232  1.00  0.00    -0.150 A  
HETATM   30  C   UNL     1      -8.262  11.231  68.470  1.00  0.00    -0.150 A  
HETATM   31  C   UNL     1      -6.204  12.503  68.536  1.00  0.00    -0.063 A  
HETATM   32  C   UNL     1      -6.782  13.445  67.700  1.00  0.00    -0.174 A  
HETATM   33  C   UNL     1      -6.957  11.411  68.946  1.00  0.00    -0.098 A  
ENDBRANCH  10  28
TORSDOF 4
ENDMDL
MODEL       86
REMARK 921   NORMALIZED FREE ENERGY PREDICTED BY IDOCK:   -4.43 KCAL/MOL
REMARK 922        TOTAL FREE ENERGY PREDICTED BY IDOCK:   -5.67 KCAL/MOL
REMARK 923 INTER-LIGAND FREE ENERGY PREDICTED BY IDOCK:   -5.09 KCAL/MOL
REMARK 924 INTRA-LIGAND FREE ENERGY PREDICTED BY IDOCK:   -0.59 KCAL/MOL
REMARK 927      BINDING AFFINITY PREDICTED BY RF-SCORE:    0.00 PKD
ROOT
HETATM    1  C   UNL     1      -9.524  11.033  64.533  1.00  0.00    -0.269 C  
HETATM    2  C   UNL     1      -8.744   9.744  64.840  1.00  0.00    -0.207 C  
HETATM    3  C   UNL     1      -9.647   8.882  65.724  1.00  0.00    -0.174 C  
HETATM    4  N   UNL     1      -9.153   7.576  66.215  1.00  0.00    -0.168 NA 
HETATM    5  C   UNL     1      -7.740   7.629  66.593  1.00  0.00    -0.098 C  
HETATM    6  O   UNL     1      -6.662  10.317  63.065  1.00  0.00    -0.135 OA 
HETATM    7  O   UNL     1      -5.227  10.988  64.641  1.00  0.00    -0.212 OA 
HETATM    8  C   UNL     1      -6.827   8.425  65.639  1.00  0.00    -0.066 C  
HETATM    9  C   UNL     1      -6.394  10.429  64.262  1.00  0.00    -0.043 C  
HETATM   10  C   UNL     1      -7.290   9.898  65.411  1.00  0.00    -0.128 C  
ENDROOT
BRANCH   4  11
HETATM   11  C   UNL     1     -10.031   7.178  67.364  1.00  0.00    -0.172 C  
HETATM   12  C   UNL     1      -8.238   6.967  69.154  1.00  0.00    -0.121 C  
HETATM   13  C   UNL     1      -8.951   7.928  70.132  1.00  0.00    -0.151 C  
HETATM   14  C   UNL     1     -10.674   8.303  68.209  1.00  0.00    -0.076 C  
HETATM   15  C   UNL     1      -9.787   8.929  69.292  1.00  0.00    -0.176 C  
HETATM   16  C   UNL     1      -9.282   6.220  68.314  1.00  0.00    -0.111 C  
BRANCH  13  17
HETATM   17  C   UNL     1      -9.737   7.042  71.160  1.00  0.00    -0.173 A  
HETATM   18  C   UNL     1      -9.744   5.040  72.591  1.00  0.00    -0.183 A  
HETATM   19  C   UNL     1     -11.105   7.200  71.449  1.00  0.00    -0.267 A  
HETATM   20  F   UNL     1     -11.772   4.280  73.515  1.00  0.00    -0.352 F  
HETATM   21  C   UNL     1     -11.786   6.266  72.241  1.00  0.00    -0.344 A  
HETATM   22  C   UNL     1     -11.105   5.187  72.791  1.00  0.00    -0.266 A  
HETATM   23  C   UNL     1      -9.066   5.962  71.793  1.00  0.00    -0.148 A  
ENDBRANCH  13  17
BRANCH  13  24
HETATM   24  C   UNL     1      -7.961   8.736  70.954  1.00  0.00    -0.135 C  
HETATM   25  H2  UNL     1      -7.727   9.609  72.446  1.00  0.00     0.000 HD 
HETATM   26  N   UNL     1      -7.140   9.407  71.637  1.00  0.00    -0.310 NA 
HETATM   27  H1  UNL     1      -6.475   9.949  72.188  1.00  0.00     0.000 HD 
ENDBRANCH  13  24
ENDBRANCH   4  11
BRANCH  10  28
HETATM   28  C   UNL     1      -7.157  10.783  66.687  1.00  0.00    -0.133 A  
HETATM   29  C   UNL     1      -6.205  10.532  67.697  1.00  0.00    -0.056 A  
HETATM   30  C   UNL     1      -7.945  11.934  66.865  1.00  0.00    -0.132 A  
HETATM   31  C   UNL     1      -7.033  12.334  69.072  1.00  0.00    -0.078 A  
HETATM   32  C   UNL     1      -6.162  11.273  68.883  1.00  0.00    -0.052 A  
HETATM   33  C   UNL     1      -7.905  12.683  68.049  1.00  0.00    -0.149 A  
ENDBRANCH  10  28
TORSDOF 4
ENDMDL
MODEL       87
REMARK 921   NORMALIZED FREE ENERGY PREDICTED BY IDOCK:   -4.42 KCAL/MOL
REMARK 922        TOTAL FREE ENERGY PREDICTED BY IDOCK:   -5.65 KCAL/MOL
REMARK 923 INTER-LIGAND FREE ENERGY PREDICTED BY IDOCK:   -5.48 KCAL/MOL
REMARK 924 INTRA-LIGAND FREE ENERGY PREDICTED BY IDOCK:   -0.17 KCAL/MOL
REMARK 927      BINDING AFFINITY PREDICTED BY RF-SCORE:    0.00 PKD
ROOT
HETATM    1  C   UNL     1      -8.905   8.837  65.146  1.00  0.00    -0.177 C  
HETATM    2  C   UNL     1      -8.069   8.782  66.435  1.00  0.00    -0.103 C  
HETATM    3  C   UNL     1      -8.588   7.593  67.247  1.00  0.00    -0.121 C  
HETATM    4  N   UNL     1      -7.992   7.301  68.570  1.00  0.00    -0.122 NA 
HETATM    5  C   UNL     1      -7.700   8.521  69.324  1.00  0.00    -0.093 C  
HETATM    6  O   UNL     1      -6.260  10.746  65.609  1.00  0.00    -0.129 OA 
HETATM    7  O   UNL     1      -7.160  12.383  66.835  1.00  0.00    -0.059 OA 
HETATM    8  C   UNL     1      -7.090   9.676  68.507  1.00  0.00    -0.069 C  
HETATM    9  C   UNL     1      -7.063  11.085  66.479  1.00  0.00    -0.136 C  
HETATM   10  C   UNL     1      -7.954  10.100  67.278  1.00  0.00    -0.110 C  
ENDROOT
BRANCH   4  11
HETATM   11  C   UNL     1      -8.951   6.404  69.294  1.00  0.00    -0.133 C  
HETATM   12  C   UNL     1      -7.806   6.380  71.564  1.00  0.00    -0.101 C  
HETATM   13  C   UNL     1      -9.073   6.827  72.327  1.00  0.00    -0.137 C  
HETATM   14  C   UNL     1     -10.179   7.053  69.974  1.00  0.00    -0.206 C  
HETATM   15  C   UNL     1      -9.940   7.672  71.357  1.00  0.00    -0.203 C  
HETATM   16  C   UNL     1      -8.209   5.546  70.341  1.00  0.00    -0.104 C  
BRANCH  13  17
HETATM   17  C   UNL     1      -9.735   5.535  72.920  1.00  0.00    -0.170 A  
HETATM   18  C   UNL     1      -9.442   3.201  73.644  1.00  0.00    -0.119 A  
HETATM   19  C   UNL     1     -11.123   5.361  73.068  1.00  0.00    -0.368 A  
HETATM   20  F   UNL     1     -11.337   1.855  74.020  1.00  0.00    -0.223 F  
HETATM   21  C   UNL     1     -11.658   4.120  73.437  1.00  0.00    -0.162 A  
HETATM   22  C   UNL     1     -10.816   3.048  73.705  1.00  0.00    -0.215 A  
HETATM   23  C   UNL     1      -8.908   4.433  73.265  1.00  0.00    -0.106 A  
ENDBRANCH  13  17
BRANCH  13  24
HETATM   24  C   UNL     1      -8.734   7.704  73.521  1.00  0.00    -0.215 C  
HETATM   25  H2  UNL     1      -8.880   7.872  75.251  1.00  0.00     0.000 HD 
HETATM   26  N   UNL     1      -8.454   8.432  74.512  1.00  0.00    -0.322 NA 
HETATM   27  H1  UNL     1      -8.227   9.021  75.313  1.00  0.00     0.000 HD 
ENDBRANCH  13  24
ENDBRANCH   4  11
BRANCH  10  28
HETATM   28  C   UNL     1      -9.306  10.761  67.683  1.00  0.00    -0.156 A  
HETATM   29  C   UNL     1      -9.692  10.955  69.025  1.00  0.00    -0.181 A  
HETATM   30  C   UNL     1     -10.192  11.268  66.715  1.00  0.00    -0.263 A  
HETATM   31  C   UNL     1     -11.843  11.844  68.390  1.00  0.00    -0.352 A  
HETATM   32  C   UNL     1     -10.949  11.459  69.376  1.00  0.00    -0.260 A  
HETATM   33  C   UNL     1     -11.451  11.776  67.059  1.00  0.00    -0.368 A  
ENDBRANCH  10  28
TORSDOF 4
ENDMDL
MODEL       88
REMARK 921   NORMALIZED FREE ENERGY PREDICTED BY IDOCK:   -4.39 KCAL/MOL
REMARK 922        TOTAL FREE ENERGY PREDICTED BY IDOCK:   -5.62 KCAL/MOL
REMARK 923 INTER-LIGAND FREE ENERGY PREDICTED BY IDOCK:   -5.95 KCAL/MOL
REMARK 924 INTRA-LIGAND FREE ENERGY PREDICTED BY IDOCK:    0.33 KCAL/MOL
REMARK 927      BINDING AFFINITY PREDICTED BY RF-SCORE:    0.00 PKD
ROOT
HETATM    1  C   UNL     1      -7.411  11.097  66.001  1.00  0.00     0.036 C  
HETATM    2  C   UNL     1      -8.801  11.504  66.515  1.00  0.00    -0.190 C  
HETATM    3  C   UNL     1      -8.653  12.898  67.130  1.00  0.00    -0.198 C  
HETATM    4  N   UNL     1      -9.830  13.551  67.745  1.00  0.00    -0.227 NA 
HETATM    5  C   UNL     1     -10.660  12.602  68.489  1.00  0.00    -0.243 C  
HETATM    6  O   UNL     1     -10.114   9.323  65.362  1.00  0.00    -0.062 OA 
HETATM    7  O   UNL     1     -10.283   8.157  67.261  1.00  0.00    -0.223 OA 
HETATM    8  C   UNL     1     -10.876  11.235  67.810  1.00  0.00    -0.284 C  
HETATM    9  C   UNL     1      -9.982   9.286  66.586  1.00  0.00    -0.264 C  
HETATM   10  C   UNL     1      -9.548  10.495  67.455  1.00  0.00    -0.181 C  
ENDROOT
BRANCH   4  11
HETATM   11  C   UNL     1      -9.312  14.655  68.618  1.00  0.00    -0.206 C  
HETATM   12  C   UNL     1      -8.825  16.372  66.807  1.00  0.00    -0.255 C  
HETATM   13  C   UNL     1      -9.672  17.477  67.478  1.00  0.00    -0.278 C  
HETATM   14  C   UNL     1     -10.337  15.648  69.217  1.00  0.00    -0.250 C  
HETATM   15  C   UNL     1     -10.795  16.786  68.297  1.00  0.00    -0.366 C  
HETATM   16  C   UNL     1      -8.221  15.462  67.884  1.00  0.00    -0.150 C  
BRANCH  13  17
HETATM   17  C   UNL     1      -8.684  18.398  68.275  1.00  0.00    -0.321 A  
HETATM   18  C   UNL     1      -7.849  20.676  68.683  1.00  0.00     0.560 A  
HETATM   19  C   UNL     1      -7.632  17.916  69.074  1.00  0.00    -0.150 A  
HETATM   20  F   UNL     1      -5.850  20.982  69.890  1.00  0.00    -0.400 F  
HETATM   21  C   UNL     1      -6.680  18.789  69.614  1.00  0.00    -0.123 A  
HETATM   22  C   UNL     1      -6.786  20.158  69.401  1.00  0.00    -0.218 A  
HETATM   23  C   UNL     1      -8.792  19.807  68.134  1.00  0.00    -0.347 A  
ENDBRANCH  13  17
BRANCH  13  24
HETATM   24  C   UNL     1     -10.341  18.377  66.453  1.00  0.00    -0.405 C  
HETATM   25  H2  UNL     1     -11.570  18.460  65.217  1.00  0.00     0.000 HD 
HETATM   26  N   UNL     1     -10.898  19.124  65.602  1.00  0.00    -0.382 NA 
HETATM   27  H1  UNL     1     -11.347  19.728  64.915  1.00  0.00     0.000 HD 
ENDBRANCH  13  24
ENDBRANCH   4  11
BRANCH  10  28
HETATM   28  C   UNL     1      -8.755  10.030  68.714  1.00  0.00    -0.136 A  
HETATM   29  C   UNL     1      -7.359   9.833  68.709  1.00  0.00    -0.074 A  
HETATM   30  C   UNL     1      -9.392   9.847  69.954  1.00  0.00    -0.250 A  
HETATM   31  C   UNL     1      -7.356   9.045  70.990  1.00  0.00    -0.125 A  
HETATM   32  C   UNL     1      -6.673   9.321  69.816  1.00  0.00    -0.051 A  
HETATM   33  C   UNL     1      -8.711   9.337  71.068  1.00  0.00    -0.182 A  
ENDBRANCH  10  28
TORSDOF 4
ENDMDL
MODEL       89
REMARK 921   NORMALIZED FREE ENERGY PREDICTED BY IDOCK:   -4.37 KCAL/MOL
REMARK 922        TOTAL FREE ENERGY PREDICTED BY IDOCK:   -5.60 KCAL/MOL
REMARK 923 INTER-LIGAND FREE ENERGY PREDICTED BY IDOCK:   -5.35 KCAL/MOL
REMARK 924 INTRA-LIGAND FREE ENERGY PREDICTED BY IDOCK:   -0.25 KCAL/MOL
REMARK 927      BINDING AFFINITY PREDICTED BY RF-SCORE:    0.00 PKD
ROOT
HETATM    1  C   UNL     1     -10.492  11.565  66.197  1.00  0.00    -0.296 C  
HETATM    2  C   UNL     1     -10.192  10.077  65.956  1.00  0.00    -0.277 C  
HETATM    3  C   UNL     1     -10.620   9.330  67.222  1.00  0.00    -0.233 C  
HETATM    4  N   UNL     1     -10.424   7.866  67.304  1.00  0.00    -0.304 NA 
HETATM    5  C   UNL     1      -9.156   7.446  66.705  1.00  0.00    -0.151 C  
HETATM    6  O   UNL     1      -9.540  10.414  63.260  1.00  0.00    -0.302 OA 
HETATM    7  O   UNL     1      -7.329  10.314  63.568  1.00  0.00    -0.141 OA 
HETATM    8  C   UNL     1      -8.786   8.142  65.380  1.00  0.00    -0.128 C  
HETATM    9  C   UNL     1      -8.595  10.192  64.018  1.00  0.00    -0.192 C  
HETATM   10  C   UNL     1      -8.745   9.699  65.480  1.00  0.00    -0.176 C  
ENDROOT
BRANCH   4  11
HETATM   11  C   UNL     1     -10.515   7.492  68.754  1.00  0.00    -0.194 C  
HETATM   12  C   UNL     1      -9.740   5.078  68.572  1.00  0.00    -0.215 C  
HETATM   13  C   UNL     1      -8.625   5.245  69.628  1.00  0.00    -0.101 C  
HETATM   14  C   UNL     1      -9.287   7.769  69.654  1.00  0.00    -0.153 C  
HETATM   15  C   UNL     1      -8.164   6.727  69.605  1.00  0.00    -0.131 C  
HETATM   16  C   UNL     1     -10.911   6.009  68.909  1.00  0.00    -0.395 C  
BRANCH  13  17
HETATM   17  C   UNL     1      -9.190   4.704  70.988  1.00  0.00    -0.195 A  
HETATM   18  C   UNL     1     -10.127   2.798  72.230  1.00  0.00    -0.225 A  
HETATM   19  C   UNL     1      -9.510   5.522  72.087  1.00  0.00    -0.169 A  
HETATM   20  F   UNL     1     -11.163   3.165  74.313  1.00  0.00    -0.208 F  
HETATM   21  C   UNL     1     -10.176   5.000  73.203  1.00  0.00    -0.214 A  
HETATM   22  C   UNL     1     -10.493   3.648  73.259  1.00  0.00    -0.177 A  
HETATM   23  C   UNL     1      -9.475   3.318  71.112  1.00  0.00    -0.221 A  
ENDBRANCH  13  17
BRANCH  13  24
HETATM   24  C   UNL     1      -7.412   4.384  69.313  1.00  0.00    -0.055 C  
HETATM   25  H2  UNL     1      -6.750   2.772  69.397  1.00  0.00     0.000 HD 
HETATM   26  N   UNL     1      -6.407   3.669  69.051  1.00  0.00    -0.029 NA 
HETATM   27  H1  UNL     1      -5.594   3.091  68.839  1.00  0.00     0.000 HD 
ENDBRANCH  13  24
ENDBRANCH   4  11
BRANCH  10  28
HETATM   28  C   UNL     1      -7.582  10.222  66.376  1.00  0.00    -0.117 A  
HETATM   29  C   UNL     1      -6.571   9.382  66.887  1.00  0.00    -0.068 A  
HETATM   30  C   UNL     1      -7.442  11.590  66.668  1.00  0.00    -0.078 A  
HETATM   31  C   UNL     1      -5.552  11.184  68.125  1.00  0.00    -0.042 A  
HETATM   32  C   UNL     1      -5.590   9.845  67.769  1.00  0.00    -0.039 A  
HETATM   33  C   UNL     1      -6.460  12.062  67.549  1.00  0.00    -0.124 A  
ENDBRANCH  10  28
TORSDOF 4
ENDMDL
MODEL       90
REMARK 921   NORMALIZED FREE ENERGY PREDICTED BY IDOCK:   -4.36 KCAL/MOL
REMARK 922        TOTAL FREE ENERGY PREDICTED BY IDOCK:   -5.59 KCAL/MOL
REMARK 923 INTER-LIGAND FREE ENERGY PREDICTED BY IDOCK:   -5.36 KCAL/MOL
REMARK 924 INTRA-LIGAND FREE ENERGY PREDICTED BY IDOCK:   -0.23 KCAL/MOL
REMARK 927      BINDING AFFINITY PREDICTED BY RF-SCORE:    0.00 PKD
ROOT
HETATM    1  C   UNL     1      -5.636   7.114  64.905  1.00  0.00    -0.033 C  
HETATM    2  C   UNL     1      -7.146   7.306  65.121  1.00  0.00    -0.064 C  
HETATM    3  C   UNL     1      -7.379   8.809  65.288  1.00  0.00    -0.085 C  
HETATM    4  N   UNL     1      -8.749   9.309  65.544  1.00  0.00    -0.164 NA 
HETATM    5  C   UNL     1      -9.492   8.435  66.454  1.00  0.00    -0.227 C  
HETATM    6  O   UNL     1      -7.790   4.644  64.567  1.00  0.00    -0.083 OA 
HETATM    7  O   UNL     1      -8.050   4.045  66.704  1.00  0.00    -0.097 OA 
HETATM    8  C   UNL     1      -9.318   6.922  66.211  1.00  0.00    -0.144 C  
HETATM    9  C   UNL     1      -7.864   4.980  65.749  1.00  0.00    -0.092 C  
HETATM   10  C   UNL     1      -7.830   6.450  66.243  1.00  0.00    -0.101 C  
ENDROOT
BRANCH   4  11
HETATM   11  C   UNL     1      -8.614  10.701  66.083  1.00  0.00    -0.159 C  
HETATM   12  C   UNL     1     -11.034  11.082  66.760  1.00  0.00    -0.279 C  
HETATM   13  C   UNL     1     -10.679  11.467  68.214  1.00  0.00    -0.240 C  
HETATM   14  C   UNL     1      -8.221  10.870  67.570  1.00  0.00    -0.116 C  
HETATM   15  C   UNL     1      -9.360  10.741  68.590  1.00  0.00    -0.184 C  
HETATM   16  C   UNL     1      -9.900  11.513  65.822  1.00  0.00    -0.266 C  
BRANCH  13  17
HETATM   17  C   UNL     1     -10.668  13.033  68.288  1.00  0.00    -0.261 A  
HETATM   18  C   UNL     1     -11.894  15.134  67.914  1.00  0.00    -0.192 A  
HETATM   19  C   UNL     1      -9.514  13.800  68.530  1.00  0.00    -0.162 A  
HETATM   20  F   UNL     1     -10.727  17.179  67.933  1.00  0.00    -0.337 F  
HETATM   21  C   UNL     1      -9.538  15.195  68.408  1.00  0.00    -0.212 A  
HETATM   22  C   UNL     1     -10.721  15.848  68.085  1.00  0.00    -0.302 A  
HETATM   23  C   UNL     1     -11.870  13.743  68.024  1.00  0.00    -0.408 A  
ENDBRANCH  13  17
BRANCH  13  24
HETATM   24  C   UNL     1     -11.746  11.013  69.196  1.00  0.00    -0.333 C  
HETATM   25  H2  UNL     1     -13.035  11.545  70.245  1.00  0.00     0.000 HD 
HETATM   26  N   UNL     1     -12.632  10.638  70.011  1.00  0.00    -0.484 NA 
HETATM   27  H1  UNL     1     -13.348  10.333  70.671  1.00  0.00     0.000 HD 
ENDBRANCH  13  24
ENDBRANCH   4  11
BRANCH  10  28
HETATM   28  C   UNL     1      -7.188   6.555  67.659  1.00  0.00    -0.090 A  
HETATM   29  C   UNL     1      -5.898   6.068  67.953  1.00  0.00    -0.013 A  
HETATM   30  C   UNL     1      -7.846   7.211  68.714  1.00  0.00    -0.122 A  
HETATM   31  C   UNL     1      -6.100   6.635  70.290  1.00  0.00    -0.027 A  
HETATM   32  C   UNL     1      -5.372   6.079  69.250  1.00  0.00    -0.004 A  
HETATM   33  C   UNL     1      -7.325   7.229  70.015  1.00  0.00    -0.083 A  
ENDBRANCH  10  28
TORSDOF 4
ENDMDL
MODEL       91
REMARK 921   NORMALIZED FREE ENERGY PREDICTED BY IDOCK:   -4.31 KCAL/MOL
REMARK 922        TOTAL FREE ENERGY PREDICTED BY IDOCK:   -5.53 KCAL/MOL
REMARK 923 INTER-LIGAND FREE ENERGY PREDICTED BY IDOCK:   -4.92 KCAL/MOL
REMARK 924 INTRA-LIGAND FREE ENERGY PREDICTED BY IDOCK:   -0.61 KCAL/MOL
REMARK 927      BINDING AFFINITY PREDICTED BY RF-SCORE:    0.00 PKD
ROOT
HETATM    1  C   UNL     1      -9.482   3.963  66.124  1.00  0.00    -0.191 C  
HETATM    2  C   UNL     1      -8.930   4.732  67.336  1.00  0.00    -0.115 C  
HETATM    3  C   UNL     1      -9.872   5.914  67.574  1.00  0.00    -0.125 C  
HETATM    4  N   UNL     1      -9.580   6.868  68.668  1.00  0.00    -0.133 NA 
HETATM    5  C   UNL     1      -8.148   7.149  68.786  1.00  0.00    -0.121 C  
HETATM    6  O   UNL     1      -6.998   2.811  67.956  1.00  0.00    -0.047 OA 
HETATM    7  O   UNL     1      -5.289   3.943  67.067  1.00  0.00    -0.011 OA 
HETATM    8  C   UNL     1      -7.218   5.928  68.636  1.00  0.00    -0.083 C  
HETATM    9  C   UNL     1      -6.577   3.855  67.458  1.00  0.00    -0.042 C  
HETATM   10  C   UNL     1      -7.418   5.148  67.299  1.00  0.00    -0.083 C  
ENDROOT
BRANCH   4  11
HETATM   11  C   UNL     1     -10.378   8.107  68.393  1.00  0.00    -0.199 C  
HETATM   12  C   UNL     1      -8.485   9.803  68.479  1.00  0.00    -0.115 C  
HETATM   13  C   UNL     1      -8.807  10.391  67.086  1.00  0.00    -0.141 C  
HETATM   14  C   UNL     1     -10.609   8.511  66.917  1.00  0.00    -0.279 C  
HETATM   15  C   UNL     1      -9.465   9.271  66.236  1.00  0.00    -0.284 C  
HETATM   16  C   UNL     1      -9.780   9.316  69.143  1.00  0.00    -0.164 C  
BRANCH  13  17
HETATM   17  C   UNL     1      -9.654  11.690  67.317  1.00  0.00    -0.182 A  
HETATM   18  C   UNL     1      -9.907  13.808  68.545  1.00  0.00    -0.204 A  
HETATM   19  C   UNL     1     -10.942  11.893  66.789  1.00  0.00    -0.337 A  
HETATM   20  F   UNL     1     -11.957  14.963  68.457  1.00  0.00    -0.338 F  
HETATM   21  C   UNL     1     -11.714  12.995  67.177  1.00  0.00    -0.439 A  
HETATM   22  C   UNL     1     -11.198  13.933  68.063  1.00  0.00    -0.271 A  
HETATM   23  C   UNL     1      -9.140  12.704  68.168  1.00  0.00    -0.204 A  
ENDBRANCH  13  17
BRANCH  13  24
HETATM   24  C   UNL     1      -7.551  10.839  66.358  1.00  0.00    -0.141 C  
HETATM   25  H2  UNL     1      -6.010  11.638  66.536  1.00  0.00     0.000 HD 
HETATM   26  N   UNL     1      -6.508  11.212  65.754  1.00  0.00    -0.369 NA 
HETATM   27  H1  UNL     1      -5.665  11.512  65.265  1.00  0.00     0.000 HD 
ENDBRANCH  13  24
ENDBRANCH   4  11
BRANCH  10  28
HETATM   28  C   UNL     1      -6.972   5.962  66.047  1.00  0.00    -0.062 A  
HETATM   29  C   UNL     1      -7.419   5.667  64.742  1.00  0.00    -0.079 A  
HETATM   30  C   UNL     1      -6.141   7.091  66.165  1.00  0.00    -0.036 A  
HETATM   31  C   UNL     1      -6.027   7.378  63.764  1.00  0.00    -0.048 A  
HETATM   32  C   UNL     1      -6.935   6.341  63.616  1.00  0.00    -0.043 A  
HETATM   33  C   UNL     1      -5.655   7.773  65.042  1.00  0.00    -0.037 A  
ENDBRANCH  10  28
TORSDOF 4
ENDMDL
MODEL       92
REMARK 921   NORMALIZED FREE ENERGY PREDICTED BY IDOCK:   -4.20 KCAL/MOL
REMARK 922        TOTAL FREE ENERGY PREDICTED BY IDOCK:   -5.39 KCAL/MOL
REMARK 923 INTER-LIGAND FREE ENERGY PREDICTED BY IDOCK:   -5.01 KCAL/MOL
REMARK 924 INTRA-LIGAND FREE ENERGY PREDICTED BY IDOCK:   -0.38 KCAL/MOL
REMARK 927      BINDING AFFINITY PREDICTED BY RF-SCORE:    0.00 PKD
ROOT
HETATM    1  C   UNL     1      -9.887   7.715  66.529  1.00  0.00    -0.242 C  
HETATM    2  C   UNL     1      -8.438   8.184  66.737  1.00  0.00    -0.123 C  
HETATM    3  C   UNL     1      -8.498   9.412  67.647  1.00  0.00    -0.119 C  
HETATM    4  N   UNL     1      -7.245  10.114  68.006  1.00  0.00    -0.084 NA 
HETATM    5  C   UNL     1      -6.314  10.190  66.879  1.00  0.00    -0.069 C  
HETATM    6  O   UNL     1      -7.303   5.959  65.482  1.00  0.00    -0.072 OA 
HETATM    7  O   UNL     1      -6.859   7.011  63.561  1.00  0.00    -0.042 OA 
HETATM    8  C   UNL     1      -6.197   8.911  66.027  1.00  0.00    -0.056 C  
HETATM    9  C   UNL     1      -7.256   7.016  64.850  1.00  0.00    -0.078 C  
HETATM   10  C   UNL     1      -7.561   8.410  65.456  1.00  0.00    -0.090 C  
ENDROOT
BRANCH   4  11
HETATM   11  C   UNL     1      -7.632  11.471  68.513  1.00  0.00    -0.130 C  
HETATM   12  C   UNL     1      -8.586  12.421  66.356  1.00  0.00     0.076 C  
HETATM   13  C   UNL     1      -9.939  12.803  66.998  1.00  0.00    -0.231 C  
HETATM   14  C   UNL     1      -9.033  11.636  69.149  1.00  0.00     0.335 C  
HETATM   15  C   UNL     1     -10.201  11.826  68.175  1.00  0.00    -0.210 C  
HETATM   16  C   UNL     1      -7.471  12.532  67.403  1.00  0.00    -0.153 C  
BRANCH  13  17
HETATM   17  C   UNL     1      -9.869  14.329  67.353  1.00  0.00    -0.235 A  
HETATM   18  C   UNL     1      -8.976  16.550  66.781  1.00  0.00    -0.261 A  
HETATM   19  C   UNL     1     -10.351  14.880  68.554  1.00  0.00    -0.237 A  
HETATM   20  F   UNL     1      -9.131  18.302  68.347  1.00  0.00    -0.282 F  
HETATM   21  C   UNL     1     -10.098  16.217  68.885  1.00  0.00    -0.251 A  
HETATM   22  C   UNL     1      -9.400  17.036  68.006  1.00  0.00    -0.245 A  
HETATM   23  C   UNL     1      -9.216  15.215  66.454  1.00  0.00    -0.334 A  
ENDBRANCH  13  17
BRANCH  13  24
HETATM   24  C   UNL     1     -11.091  12.658  66.018  1.00  0.00    -0.287 C  
HETATM   25  H2  UNL     1     -12.008  11.528  65.056  1.00  0.00     0.000 HD 
HETATM   26  N   UNL     1     -12.047  12.537  65.205  1.00  0.00    -0.440 NA 
HETATM   27  H1  UNL     1     -12.821  12.440  64.547  1.00  0.00     0.000 HD 
ENDBRANCH  13  24
ENDBRANCH   4  11
BRANCH  10  28
HETATM   28  C   UNL     1      -8.163   9.371  64.387  1.00  0.00    -0.147 A  
HETATM   29  C   UNL     1      -9.519   9.757  64.381  1.00  0.00    -0.233 A  
HETATM   30  C   UNL     1      -7.357   9.965  63.399  1.00  0.00    -0.134 A  
HETATM   31  C   UNL     1      -9.263  11.015  62.338  1.00  0.00    -0.284 A  
HETATM   32  C   UNL     1     -10.069  10.540  63.361  1.00  0.00    -0.154 A  
HETATM   33  C   UNL     1      -7.900  10.752  62.375  1.00  0.00    -0.195 A  
ENDBRANCH  10  28
TORSDOF 4
ENDMDL
MODEL       93
REMARK 921   NORMALIZED FREE ENERGY PREDICTED BY IDOCK:   -4.16 KCAL/MOL
REMARK 922        TOTAL FREE ENERGY PREDICTED BY IDOCK:   -5.34 KCAL/MOL
REMARK 923 INTER-LIGAND FREE ENERGY PREDICTED BY IDOCK:   -5.20 KCAL/MOL
REMARK 924 INTRA-LIGAND FREE ENERGY PREDICTED BY IDOCK:   -0.14 KCAL/MOL
REMARK 927      BINDING AFFINITY PREDICTED BY RF-SCORE:    0.00 PKD
ROOT
HETATM    1  C   UNL     1      -8.831  12.444  67.620  1.00  0.00    -0.177 C  
HETATM    2  C   UNL     1      -9.787  11.242  67.546  1.00  0.00    -0.195 C  
HETATM    3  C   UNL     1      -9.590  10.441  68.835  1.00  0.00    -0.192 C  
HETATM    4  N   UNL     1     -10.360   9.194  69.042  1.00  0.00    -0.211 NA 
HETATM    5  C   UNL     1     -10.485   8.413  67.810  1.00  0.00    -0.220 C  
HETATM    6  O   UNL     1     -11.092  12.138  65.242  1.00  0.00    -0.303 OA 
HETATM    7  O   UNL     1     -10.020  10.759  63.849  1.00  0.00    -0.296 OA 
HETATM    8  C   UNL     1     -10.776   9.229  66.534  1.00  0.00     0.010 C  
HETATM    9  C   UNL     1     -10.329  11.182  65.091  1.00  0.00    -0.293 C  
HETATM   10  C   UNL     1      -9.728  10.352  66.255  1.00  0.00    -0.256 C  
ENDROOT
BRANCH   4  11
HETATM   11  C   UNL     1      -9.668   8.427  70.129  1.00  0.00    -0.173 C  
HETATM   12  C   UNL     1     -10.803   6.178  69.786  1.00  0.00    -0.421 C  
HETATM   13  C   UNL     1      -9.471   5.406  69.653  1.00  0.00    -0.194 C  
HETATM   14  C   UNL     1      -8.321   7.745  69.792  1.00  0.00    -0.131 C  
HETATM   15  C   UNL     1      -8.408   6.385  69.088  1.00  0.00    -0.122 C  
HETATM   16  C   UNL     1     -10.615   7.369  70.735  1.00  0.00    -0.234 C  
BRANCH  13  17
HETATM   17  C   UNL     1      -9.166   4.764  71.050  1.00  0.00    -0.194 A  
HETATM   18  C   UNL     1      -7.462   4.093  72.694  1.00  0.00    -0.073 A  
HETATM   19  C   UNL     1     -10.122   4.092  71.832  1.00  0.00    -0.214 A  
HETATM   20  F   UNL     1      -8.062   2.675  74.475  1.00  0.00    -0.060 F  
HETATM   21  C   UNL     1      -9.745   3.389  72.983  1.00  0.00    -0.175 A  
HETATM   22  C   UNL     1      -8.419   3.381  73.395  1.00  0.00    -0.075 A  
HETATM   23  C   UNL     1      -7.833   4.784  71.540  1.00  0.00    -0.100 A  
ENDBRANCH  13  17
BRANCH  13  24
HETATM   24  C   UNL     1      -9.586   4.245  68.679  1.00  0.00    -0.142 C  
HETATM   25  H2  UNL     1      -8.747   2.882  67.984  1.00  0.00     0.000 HD 
HETATM   26  N   UNL     1      -9.680   3.281  67.872  1.00  0.00    -0.184 NA 
HETATM   27  H1  UNL     1      -9.757   2.501  67.219  1.00  0.00     0.000 HD 
ENDBRANCH  13  24
ENDBRANCH   4  11
BRANCH  10  28
HETATM   28  C   UNL     1      -8.322   9.794  65.883  1.00  0.00    -0.128 A  
HETATM   29  C   UNL     1      -8.135   8.550  65.244  1.00  0.00    -0.138 A  
HETATM   30  C   UNL     1      -7.154  10.544  66.108  1.00  0.00    -0.135 A  
HETATM   31  C   UNL     1      -5.732   8.739  65.345  1.00  0.00    -0.047 A  
HETATM   32  C   UNL     1      -6.865   8.016  65.006  1.00  0.00    -0.055 A  
HETATM   33  C   UNL     1      -5.878  10.016  65.868  1.00  0.00    -0.071 A  
ENDBRANCH  10  28
TORSDOF 4
ENDMDL
MODEL       94
REMARK 921   NORMALIZED FREE ENERGY PREDICTED BY IDOCK:   -4.04 KCAL/MOL
REMARK 922        TOTAL FREE ENERGY PREDICTED BY IDOCK:   -5.19 KCAL/MOL
REMARK 923 INTER-LIGAND FREE ENERGY PREDICTED BY IDOCK:   -4.37 KCAL/MOL
REMARK 924 INTRA-LIGAND FREE ENERGY PREDICTED BY IDOCK:   -0.82 KCAL/MOL
REMARK 927      BINDING AFFINITY PREDICTED BY RF-SCORE:    0.00 PKD
ROOT
HETATM    1  C   UNL     1      -7.348  10.488  70.158  1.00  0.00     0.040 C  
HETATM    2  C   UNL     1      -6.356  10.962  69.083  1.00  0.00    -0.058 C  
HETATM    3  C   UNL     1      -6.291  12.487  69.184  1.00  0.00    -0.095 C  
HETATM    4  N   UNL     1      -5.432  13.243  68.245  1.00  0.00    -0.084 NA 
HETATM    5  C   UNL     1      -5.474  12.686  66.892  1.00  0.00     0.420 C  
HETATM    6  O   UNL     1      -5.506   8.384  68.416  1.00  0.00    -0.032 OA 
HETATM    7  O   UNL     1      -6.721   8.244  66.546  1.00  0.00    -0.061 OA 
HETATM    8  C   UNL     1      -5.444  11.147  66.806  1.00  0.00    -0.098 C  
HETATM    9  C   UNL     1      -6.231   8.942  67.591  1.00  0.00    -0.056 C  
HETATM   10  C   UNL     1      -6.583  10.452  67.617  1.00  0.00    -0.066 C  
ENDROOT
BRANCH   4  11
HETATM   11  C   UNL     1      -5.889  14.670  68.284  1.00  0.00    -0.116 C  
HETATM   12  C   UNL     1      -8.208  14.351  67.294  1.00  0.00    -0.223 C  
HETATM   13  C   UNL     1      -8.924  15.048  68.473  1.00  0.00    -0.186 C  
HETATM   14  C   UNL     1      -6.564  15.181  69.579  1.00  0.00    -0.163 C  
HETATM   15  C   UNL     1      -8.053  14.852  69.742  1.00  0.00     0.112 C  
HETATM   16  C   UNL     1      -6.821  14.975  67.093  1.00  0.00     0.142 C  
BRANCH  13  17
HETATM   17  C   UNL     1      -9.207  16.527  68.035  1.00  0.00    -0.214 A  
HETATM   18  C   UNL     1     -10.333  18.040  66.454  1.00  0.00    -0.382 A  
HETATM   19  C   UNL     1      -8.525  17.644  68.550  1.00  0.00    -0.289 A  
HETATM   20  F   UNL     1      -9.720  20.312  66.384  1.00  0.00    -0.471 F  
HETATM   21  C   UNL     1      -8.699  18.915  67.990  1.00  0.00    -0.330 A  
HETATM   22  C   UNL     1      -9.587  19.100  66.938  1.00  0.00    -0.325 A  
HETATM   23  C   UNL     1     -10.152  16.769  67.002  1.00  0.00    -0.276 A  
ENDBRANCH  13  17
BRANCH  13  24
HETATM   24  C   UNL     1     -10.285  14.431  68.753  1.00  0.00    -0.239 C  
HETATM   25  H2  UNL     1     -11.762  14.597  69.666  1.00  0.00     0.000 HD 
HETATM   26  N   UNL     1     -11.414  13.921  68.986  1.00  0.00    -0.278 NA 
HETATM   27  H1  UNL     1     -12.327  13.507  69.173  1.00  0.00     0.000 HD 
ENDBRANCH  13  24
ENDBRANCH   4  11
BRANCH  10  28
HETATM   28  C   UNL     1      -8.000  10.712  67.023  1.00  0.00    -0.121 A  
HETATM   29  C   UNL     1      -8.207  11.139  65.695  1.00  0.00     0.047 A  
HETATM   30  C   UNL     1      -9.164  10.467  67.773  1.00  0.00    -0.148 A  
HETATM   31  C   UNL     1     -10.593  11.316  66.013  1.00  0.00    -0.314 A  
HETATM   32  C   UNL     1      -9.477  11.464  65.205  1.00  0.00    -0.223 A  
HETATM   33  C   UNL     1     -10.439  10.787  67.287  1.00  0.00    -0.282 A  
ENDBRANCH  10  28
TORSDOF 4
ENDMDL
MODEL       95
REMARK 921   NORMALIZED FREE ENERGY PREDICTED BY IDOCK:   -3.92 KCAL/MOL
REMARK 922        TOTAL FREE ENERGY PREDICTED BY IDOCK:   -5.05 KCAL/MOL
REMARK 923 INTER-LIGAND FREE ENERGY PREDICTED BY IDOCK:   -4.72 KCAL/MOL
REMARK 924 INTRA-LIGAND FREE ENERGY PREDICTED BY IDOCK:   -0.32 KCAL/MOL
REMARK 927      BINDING AFFINITY PREDICTED BY RF-SCORE:    0.00 PKD
ROOT
HETATM    1  C   UNL     1     -10.599  14.927  70.449  1.00  0.00     0.012 C  
HETATM    2  C   UNL     1     -10.688  14.490  68.978  1.00  0.00    -0.258 C  
HETATM    3  C   UNL     1     -10.201  13.041  68.917  1.00  0.00     0.002 C  
HETATM    4  N   UNL     1     -10.142  12.347  67.611  1.00  0.00    -0.196 NA 
HETATM    5  C   UNL     1      -9.678  13.230  66.540  1.00  0.00    -0.273 C  
HETATM    6  O   UNL     1     -12.035  16.793  68.144  1.00  0.00     0.416 OA 
HETATM    7  O   UNL     1     -10.238  17.768  67.244  1.00  0.00    -0.324 OA 
HETATM    8  C   UNL     1     -10.253  14.660  66.562  1.00  0.00    -0.282 C  
HETATM    9  C   UNL     1     -10.855  16.708  67.804  1.00  0.00    -0.292 C  
HETATM   10  C   UNL     1     -10.007  15.413  67.907  1.00  0.00    -0.221 C  
ENDROOT
BRANCH   4  11
HETATM   11  C   UNL     1      -9.249  11.155  67.789  1.00  0.00    -0.153 C  
HETATM   12  C   UNL     1     -10.280   9.645  66.022  1.00  0.00    -0.255 C  
HETATM   13  C   UNL     1      -8.937   9.396  65.299  1.00  0.00    -0.250 C  
HETATM   14  C   UNL     1      -7.927  11.112  66.985  1.00  0.00    -0.145 C  
HETATM   15  C   UNL     1      -8.033  10.636  65.532  1.00  0.00    -0.116 C  
HETATM   16  C   UNL     1     -10.026   9.849  67.521  1.00  0.00    -0.229 C  
BRANCH  13  17
HETATM   17  C   UNL     1      -8.387   8.018  65.806  1.00  0.00    -0.142 A  
HETATM   18  C   UNL     1      -6.419   6.602  66.230  1.00  0.00    -0.043 A  
HETATM   19  C   UNL     1      -9.195   6.897  66.068  1.00  0.00    -0.062 A  
HETATM   20  F   UNL     1      -6.710   4.301  66.637  1.00  0.00    -0.045 F  
HETATM   21  C   UNL     1      -8.626   5.648  66.346  1.00  0.00    -0.123 A  
HETATM   22  C   UNL     1      -7.246   5.507  66.408  1.00  0.00    -0.077 A  
HETATM   23  C   UNL     1      -6.983   7.845  65.942  1.00  0.00    -0.057 A  
ENDBRANCH  13  17
BRANCH  13  24
HETATM   24  C   UNL     1      -9.123   9.241  63.798  1.00  0.00     0.075 C  
HETATM   25  H2  UNL     1      -9.172   8.100  62.480  1.00  0.00     0.000 HD 
HETATM   26  N   UNL     1      -9.277   9.112  62.554  1.00  0.00    -0.546 NA 
HETATM   27  H1  UNL     1      -9.401   9.008  61.547  1.00  0.00     0.000 HD 
ENDBRANCH  13  24
ENDBRANCH   4  11
BRANCH  10  28
HETATM   28  C   UNL     1      -8.504  15.740  68.157  1.00  0.00    -0.162 A  
HETATM   29  C   UNL     1      -7.932  15.781  69.445  1.00  0.00    -0.211 A  
HETATM   30  C   UNL     1      -7.613  15.948  67.088  1.00  0.00    -0.255 A  
HETATM   31  C   UNL     1      -5.788  16.480  68.588  1.00  0.00    -0.125 A  
HETATM   32  C   UNL     1      -6.607  16.172  69.663  1.00  0.00    -0.182 A  
HETATM   33  C   UNL     1      -6.284  16.338  67.298  1.00  0.00    -0.205 A  
ENDBRANCH  10  28
TORSDOF 4
ENDMDL
MODEL       96
REMARK 921   NORMALIZED FREE ENERGY PREDICTED BY IDOCK:   -3.85 KCAL/MOL
REMARK 922        TOTAL FREE ENERGY PREDICTED BY IDOCK:   -4.96 KCAL/MOL
REMARK 923 INTER-LIGAND FREE ENERGY PREDICTED BY IDOCK:   -5.07 KCAL/MOL
REMARK 924 INTRA-LIGAND FREE ENERGY PREDICTED BY IDOCK:    0.11 KCAL/MOL
REMARK 927      BINDING AFFINITY PREDICTED BY RF-SCORE:    0.00 PKD
ROOT
HETATM    1  C   UNL     1      -6.959  11.062  65.613  1.00  0.00     0.156 C  
HETATM    2  C   UNL     1      -8.067  10.806  66.647  1.00  0.00    -0.142 C  
HETATM    3  C   UNL     1      -9.072  11.952  66.510  1.00  0.00    -0.211 C  
HETATM    4  N   UNL     1     -10.249  11.999  67.406  1.00  0.00    -0.199 NA 
HETATM    5  C   UNL     1      -9.918  11.591  68.772  1.00  0.00    -0.157 C  
HETATM    6  O   UNL     1      -7.137   8.265  67.345  1.00  0.00    -0.077 OA 
HETATM    7  O   UNL     1      -6.174   8.916  69.253  1.00  0.00    -0.041 OA 
HETATM    8  C   UNL     1      -8.979  10.374  68.891  1.00  0.00    -0.170 C  
HETATM    9  C   UNL     1      -6.954   9.153  68.179  1.00  0.00    -0.076 C  
HETATM   10  C   UNL     1      -7.627  10.549  68.130  1.00  0.00    -0.091 C  
ENDROOT
BRANCH   4  11
HETATM   11  C   UNL     1     -10.787  13.398  67.349  1.00  0.00    -0.268 C  
HETATM   12  C   UNL     1      -8.785  14.615  68.336  1.00  0.00    -0.175 C  
HETATM   13  C   UNL     1      -8.659  15.593  67.146  1.00  0.00    -0.235 C  
HETATM   14  C   UNL     1     -10.575  14.205  66.046  1.00  0.00    -0.297 C  
HETATM   15  C   UNL     1      -9.208  14.880  65.882  1.00  0.00    -0.115 C  
HETATM   16  C   UNL     1     -10.258  14.233  68.533  1.00  0.00    -0.245 C  
BRANCH  13  17
HETATM   17  C   UNL     1      -9.367  16.927  67.567  1.00  0.00    -0.232 A  
HETATM   18  C   UNL     1      -9.994  19.224  66.946  1.00  0.00    -0.443 A  
HETATM   19  C   UNL     1      -9.802  17.209  68.875  1.00  0.00    -0.273 A  
HETATM   20  F   UNL     1     -10.749  20.712  68.609  1.00  0.00    -0.316 F  
HETATM   21  C   UNL     1     -10.264  18.484  69.221  1.00  0.00     0.050 A  
HETATM   22  C   UNL     1     -10.341  19.485  68.260  1.00  0.00    -0.411 A  
HETATM   23  C   UNL     1      -9.522  17.958  66.601  1.00  0.00    -0.303 A  
ENDBRANCH  13  17
BRANCH  13  24
HETATM   24  C   UNL     1      -7.211  15.963  66.870  1.00  0.00    -0.138 C  
HETATM   25  H2  UNL     1      -6.143  16.829  65.796  1.00  0.00     0.000 HD 
HETATM   26  N   UNL     1      -6.010  16.270  66.639  1.00  0.00    -0.216 NA 
HETATM   27  H1  UNL     1      -5.038  16.518  66.453  1.00  0.00     0.000 HD 
ENDBRANCH  13  24
ENDBRANCH   4  11
BRANCH  10  28
HETATM   28  C   UNL     1      -6.710  11.640  68.761  1.00  0.00    -0.077 A  
HETATM   29  C   UNL     1      -6.437  11.707  70.143  1.00  0.00     0.029 A  
HETATM   30  C   UNL     1      -6.044  12.587  67.962  1.00  0.00    -0.088 A  
HETATM   31  C   UNL     1      -5.146  13.731  69.898  1.00  0.00    -0.089 A  
HETATM   32  C   UNL     1      -5.694  12.748  70.708  1.00  0.00    -0.131 A  
HETATM   33  C   UNL     1      -5.296  13.632  68.521  1.00  0.00    -0.089 A  
ENDBRANCH  10  28
TORSDOF 4
ENDMDL
MODEL       97
REMARK 921   NORMALIZED FREE ENERGY PREDICTED BY IDOCK:   -3.72 KCAL/MOL
REMARK 922        TOTAL FREE ENERGY PREDICTED BY IDOCK:   -4.79 KCAL/MOL
REMARK 923 INTER-LIGAND FREE ENERGY PREDICTED BY IDOCK:   -5.66 KCAL/MOL
REMARK 924 INTRA-LIGAND FREE ENERGY PREDICTED BY IDOCK:    0.87 KCAL/MOL
REMARK 927      BINDING AFFINITY PREDICTED BY RF-SCORE:    0.00 PKD
ROOT
HETATM    1  C   UNL     1     -10.867  15.323  64.596  1.00  0.00    -0.280 C  
HETATM    2  C   UNL     1     -11.635  15.154  65.917  1.00  0.00    -0.086 C  
HETATM    3  C   UNL     1     -11.204  16.305  66.828  1.00  0.00     0.217 C  
HETATM    4  N   UNL     1     -11.757  16.395  68.198  1.00  0.00    -0.009 NA 
HETATM    5  C   UNL     1     -11.877  15.080  68.831  1.00  0.00    -0.307 C  
HETATM    6  O   UNL     1     -13.265  13.093  64.963  1.00  0.00    -0.694 OA 
HETATM    7  O   UNL     1     -12.133  11.452  65.971  1.00  0.00     0.039 OA 
HETATM    8  C   UNL     1     -12.403  13.951  67.922  1.00  0.00    -0.016 C  
HETATM    9  C   UNL     1     -12.386  12.759  65.759  1.00  0.00    -0.323 C  
HETATM   10  C   UNL     1     -11.564  13.753  66.620  1.00  0.00    -0.392 C  
ENDROOT
BRANCH   4  11
HETATM   11  C   UNL     1     -10.862  17.315  68.973  1.00  0.00    -0.044 C  
HETATM   12  C   UNL     1      -8.624  16.514  68.072  1.00  0.00    -0.184 C  
HETATM   13  C   UNL     1      -8.173  17.927  67.637  1.00  0.00    -0.232 C  
HETATM   14  C   UNL     1     -10.554  18.706  68.369  1.00  0.00    -0.132 C  
HETATM   15  C   UNL     1      -9.445  18.754  67.311  1.00  0.00    -0.326 C  
HETATM   16  C   UNL     1      -9.526  16.620  69.308  1.00  0.00    -0.127 C  
BRANCH  13  17
HETATM   17  C   UNL     1      -7.242  18.484  68.769  1.00  0.00    -0.316 A  
HETATM   18  C   UNL     1      -5.793  17.982  70.694  1.00  0.00     0.115 A  
HETATM   19  C   UNL     1      -7.134  19.847  69.099  1.00  0.00    -0.296 A  
HETATM   20  F   UNL     1      -5.127  19.725  72.131  1.00  0.00    -0.342 F  
HETATM   21  C   UNL     1      -6.423  20.260  70.232  1.00  0.00    -0.199 A  
HETATM   22  C   UNL     1      -5.773  19.325  71.028  1.00  0.00    -0.129 A  
HETATM   23  C   UNL     1      -6.510  17.568  69.571  1.00  0.00    -0.202 A  
ENDBRANCH  13  17
BRANCH  13  24
HETATM   24  C   UNL     1      -7.320  17.886  66.380  1.00  0.00    -0.265 C  
HETATM   25  H2  UNL     1      -5.712  18.115  65.744  1.00  0.00     0.000 HD 
HETATM   26  N   UNL     1      -6.611  17.853  65.338  1.00  0.00    -0.292 NA 
HETATM   27  H1  UNL     1      -6.038  17.826  64.495  1.00  0.00     0.000 HD 
ENDBRANCH  13  24
ENDBRANCH   4  11
BRANCH  10  28
HETATM   28  C   UNL     1     -10.130  13.209  66.897  1.00  0.00    -0.245 A  
HETATM   29  C   UNL     1      -9.442  12.371  65.995  1.00  0.00    -0.168 A  
HETATM   30  C   UNL     1      -9.413  13.586  68.046  1.00  0.00    -0.220 A  
HETATM   31  C   UNL     1      -7.570  12.117  67.496  1.00  0.00    -0.151 A  
HETATM   32  C   UNL     1      -8.197  11.809  66.299  1.00  0.00     0.070 A  
HETATM   33  C   UNL     1      -8.165  13.030  68.356  1.00  0.00    -0.123 A  
ENDBRANCH  10  28
TORSDOF 4
ENDMDL
MODEL       98
REMARK 921   NORMALIZED FREE ENERGY PREDICTED BY IDOCK:   -3.71 KCAL/MOL
REMARK 922        TOTAL FREE ENERGY PREDICTED BY IDOCK:   -4.78 KCAL/MOL
REMARK 923 INTER-LIGAND FREE ENERGY PREDICTED BY IDOCK:   -3.87 KCAL/MOL
REMARK 924 INTRA-LIGAND FREE ENERGY PREDICTED BY IDOCK:   -0.91 KCAL/MOL
REMARK 927      BINDING AFFINITY PREDICTED BY RF-SCORE:    0.00 PKD
ROOT
HETATM    1  C   UNL     1      -5.643  11.432  69.255  1.00  0.00    -0.049 C  
HETATM    2  C   UNL     1      -7.168  11.399  69.447  1.00  0.00    -0.030 C  
HETATM    3  C   UNL     1      -7.518  10.002  69.964  1.00  0.00    -0.173 C  
HETATM    4  N   UNL     1      -8.933   9.652  70.217  1.00  0.00    -0.241 NA 
HETATM    5  C   UNL     1      -9.827  10.206  69.198  1.00  0.00    -0.214 C  
HETATM    6  O   UNL     1      -7.511  14.132  68.974  1.00  0.00    -0.124 OA 
HETATM    7  O   UNL     1      -8.252  13.887  66.880  1.00  0.00    -0.102 OA 
HETATM    8  C   UNL     1      -9.516  11.650  68.757  1.00  0.00    -0.068 C  
HETATM    9  C   UNL     1      -7.890  13.379  68.076  1.00  0.00    -0.148 C  
HETATM   10  C   UNL     1      -8.058  11.846  68.234  1.00  0.00    -0.154 C  
ENDROOT
BRANCH   4  11
HETATM   11  C   UNL     1      -9.011   8.156  70.284  1.00  0.00    -0.146 C  
HETATM   12  C   UNL     1      -8.543   7.644  67.838  1.00  0.00    -0.122 C  
HETATM   13  C   UNL     1      -7.374   6.683  68.152  1.00  0.00    -0.090 C  
HETATM   14  C   UNL     1      -7.723   7.378  70.644  1.00  0.00    -0.091 C  
HETATM   15  C   UNL     1      -6.737   7.131  69.495  1.00  0.00    -0.049 C  
HETATM   16  C   UNL     1      -9.578   7.582  68.969  1.00  0.00    -0.153 C  
BRANCH  13  17
HETATM   17  C   UNL     1      -7.945   5.224  68.096  1.00  0.00    -0.091 A  
HETATM   18  C   UNL     1      -9.449   3.630  66.977  1.00  0.00    -0.219 A  
HETATM   19  C   UNL     1      -7.748   4.263  69.104  1.00  0.00    -0.054 A  
HETATM   20  F   UNL     1      -9.964   1.586  68.026  1.00  0.00    -0.195 F  
HETATM   21  C   UNL     1      -8.431   3.041  69.077  1.00  0.00    -0.100 A  
HETATM   22  C   UNL     1      -9.287   2.741  68.025  1.00  0.00    -0.204 A  
HETATM   23  C   UNL     1      -8.779   4.853  67.007  1.00  0.00    -0.103 A  
ENDBRANCH  13  17
BRANCH  13  24
HETATM   24  C   UNL     1      -6.290   6.745  67.089  1.00  0.00    -0.041 C  
HETATM   25  H2  UNL     1      -5.581   5.913  65.729  1.00  0.00     0.000 HD 
HETATM   26  N   UNL     1      -5.391   6.795  66.207  1.00  0.00    -0.017 NA 
HETATM   27  H1  UNL     1      -4.663   6.836  65.493  1.00  0.00     0.000 HD 
ENDBRANCH  13  24
ENDBRANCH   4  11
BRANCH  10  28
HETATM   28  C   UNL     1      -7.789  11.106  66.890  1.00  0.00    -0.152 A  
HETATM   29  C   UNL     1      -8.822  10.655  66.043  1.00  0.00    -0.187 A  
HETATM   30  C   UNL     1      -6.480  10.906  66.414  1.00  0.00    -0.130 A  
HETATM   31  C   UNL     1      -7.264   9.631  64.511  1.00  0.00    -0.121 A  
HETATM   32  C   UNL     1      -8.569   9.905  64.889  1.00  0.00    -0.183 A  
HETATM   33  C   UNL     1      -6.219  10.159  65.258  1.00  0.00    -0.118 A  
ENDBRANCH  10  28
TORSDOF 4
ENDMDL
MODEL       99
REMARK 921   NORMALIZED FREE ENERGY PREDICTED BY IDOCK:   -3.66 KCAL/MOL
REMARK 922        TOTAL FREE ENERGY PREDICTED BY IDOCK:   -4.72 KCAL/MOL
REMARK 923 INTER-LIGAND FREE ENERGY PREDICTED BY IDOCK:   -5.02 KCAL/MOL
REMARK 924 INTRA-LIGAND FREE ENERGY PREDICTED BY IDOCK:    0.30 KCAL/MOL
REMARK 927      BINDING AFFINITY PREDICTED BY RF-SCORE:    0.00 PKD
ROOT
HETATM    1  C   UNL     1      -9.699  12.849  64.362  1.00  0.00     0.137 C  
HETATM    2  C   UNL     1     -10.344  12.789  65.756  1.00  0.00    -0.297 C  
HETATM    3  C   UNL     1      -9.947  14.076  66.482  1.00  0.00    -0.284 C  
HETATM    4  N   UNL     1     -10.397  14.295  67.874  1.00  0.00    -0.231 NA 
HETATM    5  C   UNL     1     -10.351  13.066  68.668  1.00  0.00    -0.191 C  
HETATM    6  O   UNL     1     -11.855  10.503  65.203  1.00  0.00     1.535 OA 
HETATM    7  O   UNL     1     -10.506   9.096  66.295  1.00  0.00    -0.185 OA 
HETATM    8  C   UNL     1     -10.844  11.794  67.950  1.00  0.00    -0.255 C  
HETATM    9  C   UNL     1     -10.890  10.343  65.952  1.00  0.00     0.149 C  
HETATM   10  C   UNL     1     -10.095  11.498  66.612  1.00  0.00    -0.242 C  
ENDROOT
BRANCH   4  11
HETATM   11  C   UNL     1      -9.530  15.373  68.451  1.00  0.00    -0.200 C  
HETATM   12  C   UNL     1      -9.180  16.748  66.341  1.00  0.00    -0.309 C  
HETATM   13  C   UNL     1      -9.670  18.063  66.989  1.00  0.00    -0.303 C  
HETATM   14  C   UNL     1     -10.224  16.605  69.081  1.00  0.00    -0.309 C  
HETATM   15  C   UNL     1     -10.682  17.696  68.106  1.00  0.00    -0.312 C  
HETATM   16  C   UNL     1      -8.510  15.869  67.405  1.00  0.00    -0.194 C  
BRANCH  13  17
HETATM   17  C   UNL     1      -8.396  18.864  67.428  1.00  0.00    -0.294 A  
HETATM   18  C   UNL     1      -7.088  19.824  69.279  1.00  0.00    -0.335 A  
HETATM   19  C   UNL     1      -7.544  19.539  66.535  1.00  0.00    -0.279 A  
HETATM   20  F   UNL     1      -5.372  21.366  68.811  1.00  0.00    -0.343 F  
HETATM   21  C   UNL     1      -6.529  20.381  67.005  1.00  0.00    -0.272 A  
HETATM   22  C   UNL     1      -6.320  20.530  68.370  1.00  0.00    -0.316 A  
HETATM   23  C   UNL     1      -8.108  18.994  68.814  1.00  0.00    -0.372 A  
ENDBRANCH  13  17
BRANCH  13  24
HETATM   24  C   UNL     1     -10.393  18.950  65.990  1.00  0.00    -0.429 C  
HETATM   25  H2  UNL     1     -10.527  20.573  65.363  1.00  0.00     0.000 HD 
HETATM   26  N   UNL     1     -10.993  19.688  65.161  1.00  0.00    -0.244 NA 
HETATM   27  H1  UNL     1     -11.478  20.284  64.491  1.00  0.00     0.000 HD 
ENDBRANCH  13  24
ENDBRANCH   4  11
BRANCH  10  28
HETATM   28  C   UNL     1      -8.601  11.107  66.824  1.00  0.00    -0.157 A  
HETATM   29  C   UNL     1      -7.959  11.186  68.077  1.00  0.00    -0.117 A  
HETATM   30  C   UNL     1      -7.825  10.584  65.774  1.00  0.00    -0.154 A  
HETATM   31  C   UNL     1      -5.833  10.521  67.149  1.00  0.00    -0.050 A  
HETATM   32  C   UNL     1      -6.593  10.927  68.234  1.00  0.00    -0.058 A  
HETATM   33  C   UNL     1      -6.458  10.320  65.925  1.00  0.00    -0.111 A  
ENDBRANCH  10  28
TORSDOF 4
ENDMDL
MODEL      100
REMARK 921   NORMALIZED FREE ENERGY PREDICTED BY IDOCK:   -3.66 KCAL/MOL
REMARK 922        TOTAL FREE ENERGY PREDICTED BY IDOCK:   -4.72 KCAL/MOL
REMARK 923 INTER-LIGAND FREE ENERGY PREDICTED BY IDOCK:   -4.55 KCAL/MOL
REMARK 924 INTRA-LIGAND FREE ENERGY PREDICTED BY IDOCK:   -0.17 KCAL/MOL
REMARK 927      BINDING AFFINITY PREDICTED BY RF-SCORE:    0.00 PKD
ROOT
HETATM    1  C   UNL     1      -6.075   6.317  72.233  1.00  0.00    -0.038 C  
HETATM    2  C   UNL     1      -6.436   6.158  70.748  1.00  0.00    -0.041 C  
HETATM    3  C   UNL     1      -6.435   7.563  70.141  1.00  0.00    -0.034 C  
HETATM    4  N   UNL     1      -6.782   7.739  68.713  1.00  0.00    -0.052 NA 
HETATM    5  C   UNL     1      -7.875   6.857  68.299  1.00  0.00    -0.118 C  
HETATM    6  O   UNL     1      -6.304   3.367  70.784  1.00  0.00    -0.022 OA 
HETATM    7  O   UNL     1      -8.516   3.057  70.859  1.00  0.00    -0.062 OA 
HETATM    8  C   UNL     1      -7.809   5.417  68.845  1.00  0.00    -0.083 C  
HETATM    9  C   UNL     1      -7.435   3.851  70.717  1.00  0.00    -0.041 C  
HETATM   10  C   UNL     1      -7.730   5.340  70.402  1.00  0.00    -0.076 C  
ENDROOT
BRANCH   4  11
HETATM   11  C   UNL     1      -7.120   9.187  68.519  1.00  0.00    -0.072 C  
HETATM   12  C   UNL     1      -9.645   8.964  68.324  1.00  0.00    -0.159 C  
HETATM   13  C   UNL     1      -9.928   9.992  69.442  1.00  0.00    -0.239 C  
HETATM   14  C   UNL     1      -7.341  10.056  69.779  1.00  0.00    -0.141 C  
HETATM   15  C   UNL     1      -8.729   9.969  70.427  1.00  0.00     0.207 C  
HETATM   16  C   UNL     1      -8.348   9.341  67.597  1.00  0.00    -0.116 C  
BRANCH  13  17
HETATM   17  C   UNL     1     -10.240  11.361  68.745  1.00  0.00    -0.209 A  
HETATM   18  C   UNL     1     -11.489  12.557  66.992  1.00  0.00    -0.419 A  
HETATM   19  C   UNL     1      -9.512  12.543  68.971  1.00  0.00     0.400 A  
HETATM   20  F   UNL     1     -10.873  14.757  66.424  1.00  0.00    -0.297 F  
HETATM   21  C   UNL     1      -9.727  13.683  68.186  1.00  0.00    -0.229 A  
HETATM   22  C   UNL     1     -10.700  13.676  67.194  1.00  0.00    -0.277 A  
HETATM   23  C   UNL     1     -11.268  11.416  67.765  1.00  0.00    -0.346 A  
ENDBRANCH  13  17
BRANCH  13  24
HETATM   24  C   UNL     1     -11.176   9.637  70.234  1.00  0.00    -0.271 C  
HETATM   25  H2  UNL     1     -12.825   9.079  70.118  1.00  0.00     0.000 HD 
HETATM   26  N   UNL     1     -12.212   9.342  70.890  1.00  0.00    -0.417 NA 
HETATM   27  H1  UNL     1     -13.049   9.104  71.421  1.00  0.00     0.000 HD 
ENDBRANCH  13  24
ENDBRANCH   4  11
BRANCH  10  28
HETATM   28  C   UNL     1      -9.037   5.818  71.103  1.00  0.00    -0.157 A  
HETATM   29  C   UNL     1     -10.324   5.541  70.596  1.00  0.00    -0.332 A  
HETATM   30  C   UNL     1      -9.002   6.501  72.332  1.00  0.00    -0.133 A  
HETATM   31  C   UNL     1     -11.401   6.826  72.331  1.00  0.00    -0.306 A  
HETATM   32  C   UNL     1     -11.485   6.059  71.179  1.00  0.00    -0.246 A  
HETATM   33  C   UNL     1     -10.161   7.021  72.924  1.00  0.00    -0.225 A  
ENDBRANCH  10  28
TORSDOF 4
ENDMDL
MODEL      101
REMARK 921   NORMALIZED FREE ENERGY PREDICTED BY IDOCK:   -3.63 KCAL/MOL
REMARK 922        TOTAL FREE ENERGY PREDICTED BY IDOCK:   -4.68 KCAL/MOL
REMARK 923 INTER-LIGAND FREE ENERGY PREDICTED BY IDOCK:   -4.23 KCAL/MOL
REMARK 924 INTRA-LIGAND FREE ENERGY PREDICTED BY IDOCK:   -0.46 KCAL/MOL
REMARK 927      BINDING AFFINITY PREDICTED BY RF-SCORE:    0.00 PKD
ROOT
HETATM    1  C   UNL     1      -9.843  11.547  64.686  1.00  0.00    -0.283 C  
HETATM    2  C   UNL     1     -10.403  12.974  64.564  1.00  0.00    -0.386 C  
HETATM    3  C   UNL     1      -9.274  13.926  64.964  1.00  0.00     1.335 C  
HETATM    4  N   UNL     1      -9.523  15.385  64.976  1.00  0.00     0.135 NA 
HETATM    5  C   UNL     1     -10.856  15.712  65.487  1.00  0.00    -0.346 C  
HETATM    6  O   UNL     1     -12.791  12.172  63.353  1.00  0.00    -0.765 OA 
HETATM    7  O   UNL     1     -14.032  12.361  65.201  1.00  0.00     1.394 OA 
HETATM    8  C   UNL     1     -11.996  14.798  64.998  1.00  0.00    -0.318 C  
HETATM    9  C   UNL     1     -12.879  12.541  64.525  1.00  0.00    -0.262 C  
HETATM   10  C   UNL     1     -11.757  13.284  65.294  1.00  0.00    -0.357 C  
ENDROOT
BRANCH   4  11
HETATM   11  C   UNL     1      -8.435  16.009  65.797  1.00  0.00     0.498 C  
HETATM   12  C   UNL     1      -9.874  17.517  67.252  1.00  0.00    -0.294 C  
HETATM   13  C   UNL     1      -9.301  16.965  68.577  1.00  0.00    -0.259 C  
HETATM   14  C   UNL     1      -7.985  15.277  67.084  1.00  0.00    -0.251 C  
HETATM   15  C   UNL     1      -8.852  15.500  68.328  1.00  0.00    -0.179 C  
HETATM   16  C   UNL     1      -8.795  17.464  66.163  1.00  0.00    -0.180 C  
BRANCH  13  17
HETATM   17  C   UNL     1      -8.196  17.968  69.056  1.00  0.00    -0.039 A  
HETATM   18  C   UNL     1      -7.358  20.283  69.059  1.00  0.00     0.048 A  
HETATM   19  C   UNL     1      -6.988  17.577  69.662  1.00  0.00     0.140 A  
HETATM   20  F   UNL     1      -5.163  20.722  69.786  1.00  0.00    -0.278 F  
HETATM   21  C   UNL     1      -5.969  18.507  69.903  1.00  0.00    -0.231 A  
HETATM   22  C   UNL     1      -6.156  19.847  69.586  1.00  0.00    -0.331 A  
HETATM   23  C   UNL     1      -8.371  19.356  68.806  1.00  0.00    -0.379 A  
ENDBRANCH  13  17
BRANCH  13  24
HETATM   24  C   UNL     1     -10.346  16.942  69.680  1.00  0.00    -0.111 C  
HETATM   25  H2  UNL     1     -11.468  15.935  70.557  1.00  0.00     0.000 HD 
HETATM   26  N   UNL     1     -11.214  16.922  70.594  1.00  0.00    -0.271 NA 
HETATM   27  H1  UNL     1     -11.915  16.907  71.335  1.00  0.00     0.000 HD 
ENDBRANCH  13  24
ENDBRANCH   4  11
BRANCH  10  28
HETATM   28  C   UNL     1     -11.796  12.947  66.815  1.00  0.00    -0.452 A  
HETATM   29  C   UNL     1     -11.580  11.648  67.318  1.00  0.00    -0.316 A  
HETATM   30  C   UNL     1     -11.984  13.951  67.782  1.00  0.00    -0.390 A  
HETATM   31  C   UNL     1     -12.014  12.339  69.589  1.00  0.00    -0.347 A  
HETATM   32  C   UNL     1     -11.715  11.340  68.676  1.00  0.00    -0.391 A  
HETATM   33  C   UNL     1     -12.118  13.650  69.144  1.00  0.00    -0.361 A  
ENDBRANCH  10  28
TORSDOF 4
ENDMDL
MODEL      102
REMARK 921   NORMALIZED FREE ENERGY PREDICTED BY IDOCK:   -3.53 KCAL/MOL
REMARK 922        TOTAL FREE ENERGY PREDICTED BY IDOCK:   -4.56 KCAL/MOL
REMARK 923 INTER-LIGAND FREE ENERGY PREDICTED BY IDOCK:   -3.87 KCAL/MOL
REMARK 924 INTRA-LIGAND FREE ENERGY PREDICTED BY IDOCK:   -0.69 KCAL/MOL
REMARK 927      BINDING AFFINITY PREDICTED BY RF-SCORE:    0.00 PKD
ROOT
HETATM    1  C   UNL     1      -9.272   6.618  68.038  1.00  0.00    -0.112 C  
HETATM    2  C   UNL     1      -7.864   6.655  67.422  1.00  0.00    -0.113 C  
HETATM    3  C   UNL     1      -7.037   7.624  68.269  1.00  0.00    -0.080 C  
HETATM    4  N   UNL     1      -5.630   7.896  67.898  1.00  0.00    -0.032 NA 
HETATM    5  C   UNL     1      -5.450   7.990  66.449  1.00  0.00    -0.028 C  
HETATM    6  O   UNL     1      -8.348   4.558  65.638  1.00  0.00    -0.112 OA 
HETATM    7  O   UNL     1      -8.640   5.869  63.853  1.00  0.00     0.019 OA 
HETATM    8  C   UNL     1      -6.219   6.945  65.616  1.00  0.00    -0.039 C  
HETATM    9  C   UNL     1      -8.288   5.683  65.142  1.00  0.00    -0.146 C  
HETATM   10  C   UNL     1      -7.757   6.938  65.882  1.00  0.00    -0.098 C  
ENDROOT
BRANCH   4  11
HETATM   11  C   UNL     1      -5.227   9.158  68.601  1.00  0.00    -0.034 C  
HETATM   12  C   UNL     1      -6.893  10.743  67.516  1.00  0.00    -0.079 C  
HETATM   13  C   UNL     1      -7.449  11.252  68.865  1.00  0.00    -0.123 C  
HETATM   14  C   UNL     1      -5.889   9.473  69.964  1.00  0.00    -0.036 C  
HETATM   15  C   UNL     1      -7.279  10.117  69.910  1.00  0.00    -0.155 C  
HETATM   16  C   UNL     1      -5.412  10.378  67.675  1.00  0.00    -0.044 C  
BRANCH  13  17
HETATM   17  C   UNL     1      -6.731  12.611  69.178  1.00  0.00    -0.086 A  
HETATM   18  C   UNL     1      -5.475  13.964  70.805  1.00  0.00    -0.163 A  
HETATM   19  C   UNL     1      -6.825  13.755  68.365  1.00  0.00    -0.101 A  
HETATM   20  F   UNL     1      -5.196  16.271  70.427  1.00  0.00    -0.143 F  
HETATM   21  C   UNL     1      -6.308  14.985  68.790  1.00  0.00    -0.082 A  
HETATM   22  C   UNL     1      -5.654  15.084  70.011  1.00  0.00    -0.121 A  
HETATM   23  C   UNL     1      -6.000  12.740  70.389  1.00  0.00    -0.104 A  
ENDBRANCH  13  17
BRANCH  13  24
HETATM   24  C   UNL     1      -8.931  11.577  68.780  1.00  0.00    -0.047 C  
HETATM   25  H2  UNL     1     -10.259  12.387  69.571  1.00  0.00     0.000 HD 
HETATM   26  N   UNL     1     -10.161  11.846  68.711  1.00  0.00    -0.369 NA 
HETATM   27  H1  UNL     1     -11.156  12.064  68.654  1.00  0.00     0.000 HD 
ENDBRANCH  13  24
ENDBRANCH   4  11
BRANCH  10  28
HETATM   28  C   UNL     1      -8.467   8.232  65.383  1.00  0.00    -0.189 A  
HETATM   29  C   UNL     1      -8.054   8.938  64.234  1.00  0.00    -0.158 A  
HETATM   30  C   UNL     1      -9.615   8.731  66.024  1.00  0.00    -0.297 A  
HETATM   31  C   UNL     1      -9.697  10.671  64.579  1.00  0.00    -0.367 A  
HETATM   32  C   UNL     1      -8.637  10.151  63.853  1.00  0.00    -0.197 A  
HETATM   33  C   UNL     1     -10.205   9.944  65.647  1.00  0.00    -0.229 A  
ENDBRANCH  10  28
TORSDOF 4
ENDMDL
MODEL      103
REMARK 921   NORMALIZED FREE ENERGY PREDICTED BY IDOCK:   -3.27 KCAL/MOL
REMARK 922        TOTAL FREE ENERGY PREDICTED BY IDOCK:   -4.24 KCAL/MOL
REMARK 923 INTER-LIGAND FREE ENERGY PREDICTED BY IDOCK:   -3.77 KCAL/MOL
REMARK 924 INTRA-LIGAND FREE ENERGY PREDICTED BY IDOCK:   -0.47 KCAL/MOL
REMARK 927      BINDING AFFINITY PREDICTED BY RF-SCORE:    0.00 PKD
ROOT
HETATM    1  C   UNL     1     -10.116  12.650  67.568  1.00  0.00    -0.212 C  
HETATM    2  C   UNL     1      -8.759  12.158  67.040  1.00  0.00    -0.190 C  
HETATM    3  C   UNL     1      -9.053  11.010  66.071  1.00  0.00    -0.195 C  
HETATM    4  N   UNL     1      -7.929  10.304  65.416  1.00  0.00    -0.145 NA 
HETATM    5  C   UNL     1      -6.799  10.108  66.325  1.00  0.00    -0.104 C  
HETATM    6  O   UNL     1      -7.300  14.237  68.204  1.00  0.00    -0.104 OA 
HETATM    7  O   UNL     1      -6.532  13.018  69.913  1.00  0.00    -0.073 OA 
HETATM    8  C   UNL     1      -6.458  11.310  67.229  1.00  0.00    -0.085 C  
HETATM    9  C   UNL     1      -7.176  13.132  68.733  1.00  0.00    -0.085 C  
HETATM   10  C   UNL     1      -7.658  11.801  68.098  1.00  0.00    -0.117 C  
ENDROOT
BRANCH   4  11
HETATM   11  C   UNL     1      -8.470   9.005  64.898  1.00  0.00    -0.178 C  
HETATM   12  C   UNL     1      -7.044   7.422  66.285  1.00  0.00    -0.070 C  
HETATM   13  C   UNL     1      -8.259   6.650  66.848  1.00  0.00    -0.113 C  
HETATM   14  C   UNL     1      -9.719   8.410  65.590  1.00  0.00     0.244 C  
HETATM   15  C   UNL     1      -9.468   7.624  66.882  1.00  0.00    -0.222 C  
HETATM   16  C   UNL     1      -7.365   7.928  64.873  1.00  0.00    -0.073 C  
BRANCH  13  17
HETATM   17  C   UNL     1      -8.425   5.353  65.983  1.00  0.00    -0.123 A  
HETATM   18  C   UNL     1      -7.325   3.481  64.825  1.00  0.00    -0.071 A  
HETATM   19  C   UNL     1      -9.633   4.958  65.381  1.00  0.00    -0.115 A  
HETATM   20  F   UNL     1      -8.555   2.173  63.302  1.00  0.00    -0.080 F  
HETATM   21  C   UNL     1      -9.672   3.888  64.478  1.00  0.00    -0.183 A  
HETATM   22  C   UNL     1      -8.517   3.170  64.195  1.00  0.00    -0.089 A  
HETATM   23  C   UNL     1      -7.281   4.554  65.716  1.00  0.00    -0.075 A  
ENDBRANCH  13  17
BRANCH  13  24
HETATM   24  C   UNL     1      -8.017   6.172  68.270  1.00  0.00    -0.107 C  
HETATM   25  H2  UNL     1      -8.614   5.145  69.548  1.00  0.00     0.000 HD 
HETATM   26  N   UNL     1      -7.817   5.775  69.450  1.00  0.00    -0.092 NA 
HETATM   27  H1  UNL     1      -7.654   5.454  70.404  1.00  0.00     0.000 HD 
ENDBRANCH  13  24
ENDBRANCH   4  11
BRANCH  10  28
HETATM   28  C   UNL     1      -8.079  10.774  69.191  1.00  0.00    -0.133 A  
HETATM   29  C   UNL     1      -7.147  10.035  69.949  1.00  0.00    -0.130 A  
HETATM   30  C   UNL     1      -9.431  10.577  69.528  1.00  0.00    -0.106 A  
HETATM   31  C   UNL     1      -8.885   8.801  71.080  1.00  0.00    -0.275 A  
HETATM   32  C   UNL     1      -7.539   9.045  70.856  1.00  0.00    -0.141 A  
HETATM   33  C   UNL     1      -9.830   9.589  70.438  1.00  0.00    -0.329 A  
ENDBRANCH  10  28
TORSDOF 4
ENDMDL
MODEL      104
REMARK 921   NORMALIZED FREE ENERGY PREDICTED BY IDOCK:   -3.10 KCAL/MOL
REMARK 922        TOTAL FREE ENERGY PREDICTED BY IDOCK:   -4.03 KCAL/MOL
REMARK 923 INTER-LIGAND FREE ENERGY PREDICTED BY IDOCK:   -4.36 KCAL/MOL
REMARK 924 INTRA-LIGAND FREE ENERGY PREDICTED BY IDOCK:    0.33 KCAL/MOL
REMARK 927      BINDING AFFINITY PREDICTED BY RF-SCORE:    0.00 PKD
ROOT
HETATM    1  C   UNL     1     -10.081   9.463  68.004  1.00  0.00    -0.230 C  
HETATM    2  C   UNL     1      -8.546   9.541  67.946  1.00  0.00    -0.119 C  
HETATM    3  C   UNL     1      -8.170  11.005  68.184  1.00  0.00    -0.124 C  
HETATM    4  N   UNL     1      -6.745  11.404  68.155  1.00  0.00    -0.057 NA 
HETATM    5  C   UNL     1      -6.000  10.709  67.104  1.00  0.00    -0.056 C  
HETATM    6  O   UNL     1      -8.186   6.771  67.846  1.00  0.00    -0.115 OA 
HETATM    7  O   UNL     1      -7.784   6.695  65.650  1.00  0.00    -0.085 OA 
HETATM    8  C   UNL     1      -6.325   9.210  66.942  1.00  0.00    -0.063 C  
HETATM    9  C   UNL     1      -7.975   7.380  66.796  1.00  0.00    -0.115 C  
HETATM   10  C   UNL     1      -7.838   8.921  66.691  1.00  0.00    -0.100 C  
ENDROOT
BRANCH   4  11
HETATM   11  C   UNL     1      -6.710  12.893  67.981  1.00  0.00    -0.109 C  
HETATM   12  C   UNL     1      -9.151  13.260  67.368  1.00  0.00    -0.216 C  
HETATM   13  C   UNL     1      -9.381  14.312  68.476  1.00  0.00    -0.200 C  
HETATM   14  C   UNL     1      -6.941  13.776  69.230  1.00  0.00    -0.042 C  
HETATM   15  C   UNL     1      -8.402  14.003  69.639  1.00  0.00     0.853 C  
HETATM   16  C   UNL     1      -7.698  13.335  66.881  1.00  0.00     0.272 C  
BRANCH  13  17
HETATM   17  C   UNL     1      -9.255  15.724  67.805  1.00  0.00    -0.197 A  
HETATM   18  C   UNL     1      -8.601  18.084  68.052  1.00  0.00    -0.267 A  
HETATM   19  C   UNL     1      -9.814  16.056  66.558  1.00  0.00    -0.284 A  
HETATM   20  F   UNL     1      -9.269  19.651  66.426  1.00  0.00    -0.330 F  
HETATM   21  C   UNL     1      -9.818  17.379  66.099  1.00  0.00    -0.260 A  
HETATM   22  C   UNL     1      -9.228  18.383  66.855  1.00  0.00    -0.287 A  
HETATM   23  C   UNL     1      -8.606  16.769  68.517  1.00  0.00    -0.245 A  
ENDBRANCH  13  17
BRANCH  13  24
HETATM   24  C   UNL     1     -10.792  14.245  69.036  1.00  0.00    -0.255 C  
HETATM   25  H2  UNL     1     -12.481  14.086  68.626  1.00  0.00     0.000 HD 
HETATM   26  N   UNL     1     -11.963  14.189  69.500  1.00  0.00    -0.321 NA 
HETATM   27  H1  UNL     1     -12.910  14.143  69.876  1.00  0.00     0.000 HD 
ENDBRANCH  13  24
ENDBRANCH   4  11
BRANCH  10  28
HETATM   28  C   UNL     1      -8.337   9.440  65.309  1.00  0.00    -0.147 A  
HETATM   29  C   UNL     1      -9.530  10.175  65.152  1.00  0.00    -0.319 A  
HETATM   30  C   UNL     1      -7.577   9.256  64.141  1.00  0.00    -0.113 A  
HETATM   31  C   UNL     1      -9.293  10.251  62.752  1.00  0.00    -0.340 A  
HETATM   32  C   UNL     1     -10.017  10.549  63.896  1.00  0.00    -0.348 A  
HETATM   33  C   UNL     1      -8.057   9.631  62.879  1.00  0.00    -0.140 A  
ENDBRANCH  10  28
TORSDOF 4
ENDMDL
MODEL      105
REMARK 921   NORMALIZED FREE ENERGY PREDICTED BY IDOCK:   -3.03 KCAL/MOL
REMARK 922        TOTAL FREE ENERGY PREDICTED BY IDOCK:   -3.94 KCAL/MOL
REMARK 923 INTER-LIGAND FREE ENERGY PREDICTED BY IDOCK:   -4.35 KCAL/MOL
REMARK 924 INTRA-LIGAND FREE ENERGY PREDICTED BY IDOCK:    0.41 KCAL/MOL
REMARK 927      BINDING AFFINITY PREDICTED BY RF-SCORE:    0.00 PKD
ROOT
HETATM    1  C   UNL     1      -5.947  18.535  65.502  1.00  0.00    -0.272 C  
HETATM    2  C   UNL     1      -5.942  17.878  66.892  1.00  0.00    -0.176 C  
HETATM    3  C   UNL     1      -6.151  16.378  66.671  1.00  0.00     0.272 C  
HETATM    4  N   UNL     1      -6.224  15.474  67.841  1.00  0.00    -0.138 NA 
HETATM    5  C   UNL     1      -6.963  16.073  68.954  1.00  0.00    -0.148 C  
HETATM    6  O   UNL     1      -5.155  20.201  68.232  1.00  0.00    -0.183 OA 
HETATM    7  O   UNL     1      -7.193  20.694  69.004  1.00  0.00     0.165 OA 
HETATM    8  C   UNL     1      -6.669  17.562  69.221  1.00  0.00    -0.221 C  
HETATM    9  C   UNL     1      -6.329  19.862  68.387  1.00  0.00    -0.273 C  
HETATM   10  C   UNL     1      -6.900  18.479  67.979  1.00  0.00    -0.228 C  
ENDROOT
BRANCH   4  11
HETATM   11  C   UNL     1      -6.851  14.196  67.369  1.00  0.00    -0.007 C  
HETATM   12  C   UNL     1      -8.542  13.889  69.242  1.00  0.00     0.490 C  
HETATM   13  C   UNL     1      -9.745  13.764  68.280  1.00  0.00    -0.231 C  
HETATM   14  C   UNL     1      -8.037  14.291  66.379  1.00  0.00     0.913 C  
HETATM   15  C   UNL     1      -9.413  14.569  66.995  1.00  0.00    -0.247 C  
HETATM   16  C   UNL     1      -7.284  13.327  68.569  1.00  0.00    -0.110 C  
BRANCH  13  17
HETATM   17  C   UNL     1     -10.035  12.234  68.098  1.00  0.00    -0.210 A  
HETATM   18  C   UNL     1     -10.026  10.289  66.591  1.00  0.00    -0.270 A  
HETATM   19  C   UNL     1     -10.724  11.447  69.039  1.00  0.00    -0.245 A  
HETATM   20  F   UNL     1     -11.170   8.329  67.218  1.00  0.00    -0.174 F  
HETATM   21  C   UNL     1     -11.105  10.134  68.737  1.00  0.00    -0.250 A  
HETATM   22  C   UNL     1     -10.769   9.572  67.512  1.00  0.00    -0.245 A  
HETATM   23  C   UNL     1      -9.655  11.602  66.884  1.00  0.00    -0.199 A  
ENDBRANCH  13  17
BRANCH  13  24
HETATM   24  C   UNL     1     -11.010  14.358  68.877  1.00  0.00    -0.255 C  
HETATM   25  H2  UNL     1     -11.900  15.833  69.148  1.00  0.00     0.000 HD 
HETATM   26  N   UNL     1     -12.060  14.851  69.372  1.00  0.00    -0.464 NA 
HETATM   27  H1  UNL     1     -12.910  15.249  69.772  1.00  0.00     0.000 HD 
ENDBRANCH  13  24
ENDBRANCH   4  11
BRANCH  10  28
HETATM   28  C   UNL     1      -8.401  18.586  67.571  1.00  0.00    -0.267 A  
HETATM   29  C   UNL     1      -9.356  17.603  67.902  1.00  0.00    -0.268 A  
HETATM   30  C   UNL     1      -8.898  19.717  66.900  1.00  0.00    -0.401 A  
HETATM   31  C   UNL     1     -11.104  18.741  66.688  1.00  0.00     0.171 A  
HETATM   32  C   UNL     1     -10.677  17.662  67.445  1.00  0.00    -0.262 A  
HETATM   33  C   UNL     1     -10.221  19.784  66.442  1.00  0.00    -0.614 A  
ENDBRANCH  10  28
TORSDOF 4
ENDMDL
MODEL      106
REMARK 921   NORMALIZED FREE ENERGY PREDICTED BY IDOCK:   -2.60 KCAL/MOL
REMARK 922        TOTAL FREE ENERGY PREDICTED BY IDOCK:   -3.42 KCAL/MOL
REMARK 923 INTER-LIGAND FREE ENERGY PREDICTED BY IDOCK:   -3.94 KCAL/MOL
REMARK 924 INTRA-LIGAND FREE ENERGY PREDICTED BY IDOCK:    0.53 KCAL/MOL
REMARK 927      BINDING AFFINITY PREDICTED BY RF-SCORE:    0.00 PKD
ROOT
HETATM    1  C   UNL     1     -10.254  13.209  65.891  1.00  0.00    -0.294 C  
HETATM    2  C   UNL     1      -9.117  12.730  66.808  1.00  0.00    -0.209 C  
HETATM    3  C   UNL     1      -9.425  11.275  67.169  1.00  0.00    -0.170 C  
HETATM    4  N   UNL     1      -8.515  10.543  68.078  1.00  0.00    -0.118 NA 
HETATM    5  C   UNL     1      -8.027  11.389  69.168  1.00  0.00     0.055 C  
HETATM    6  O   UNL     1      -7.557  15.020  66.443  1.00  0.00     0.397 OA 
HETATM    7  O   UNL     1      -8.096  15.951  68.401  1.00  0.00    -0.140 OA 
HETATM    8  C   UNL     1      -7.632  12.824  68.768  1.00  0.00    -0.025 C  
HETATM    9  C   UNL     1      -8.107  14.913  67.539  1.00  0.00    -0.182 C  
HETATM   10  C   UNL     1      -8.777  13.615  68.059  1.00  0.00    -0.176 C  
ENDROOT
BRANCH   4  11
HETATM   11  C   UNL     1      -9.268   9.348  68.583  1.00  0.00    -0.131 C  
HETATM   12  C   UNL     1      -7.566   8.518  70.279  1.00  0.00    -0.075 C  
HETATM   13  C   UNL     1      -8.577   8.505  71.447  1.00  0.00    -0.224 C  
HETATM   14  C   UNL     1     -10.260   9.557  69.752  1.00  0.00    -0.249 C  
HETATM   15  C   UNL     1      -9.652   9.588  71.159  1.00  0.00    -0.082 C  
HETATM   16  C   UNL     1      -8.294   8.213  68.964  1.00  0.00    -0.128 C  
BRANCH  13  17
HETATM   17  C   UNL     1      -9.087   7.031  71.602  1.00  0.00    -0.139 A  
HETATM   18  C   UNL     1      -8.554   4.631  71.484  1.00  0.00    -0.125 A  
HETATM   19  C   UNL     1     -10.441   6.678  71.747  1.00  0.00    -0.233 A  
HETATM   20  F   UNL     1     -10.300   3.052  71.473  1.00  0.00    -0.176 F  
HETATM   21  C   UNL     1     -10.845   5.337  71.701  1.00  0.00    -0.181 A  
HETATM   22  C   UNL     1      -9.902   4.328  71.554  1.00  0.00    -0.189 A  
HETATM   23  C   UNL     1      -8.150   5.966  71.517  1.00  0.00    -0.115 A  
ENDBRANCH  13  17
BRANCH  13  24
HETATM   24  C   UNL     1      -7.918   8.857  72.771  1.00  0.00     0.425 C  
HETATM   25  H2  UNL     1      -6.433   9.368  73.530  1.00  0.00     0.000 HD 
HETATM   26  N   UNL     1      -7.371   9.148  73.868  1.00  0.00    -0.103 NA 
HETATM   27  H1  UNL     1      -6.928   9.384  74.757  1.00  0.00     0.000 HD 
ENDBRANCH  13  24
ENDBRANCH   4  11
BRANCH  10  28
HETATM   28  C   UNL     1      -9.972  13.935  69.005  1.00  0.00     0.011 A  
HETATM   29  C   UNL     1     -10.001  15.064  69.849  1.00  0.00    -0.026 A  
HETATM   30  C   UNL     1     -11.131  13.137  69.016  1.00  0.00    -0.282 A  
HETATM   31  C   UNL     1     -12.109  14.414  70.826  1.00  0.00    -0.408 A  
HETATM   32  C   UNL     1     -11.034  15.287  70.765  1.00  0.00    -0.312 A  
HETATM   33  C   UNL     1     -12.172  13.356  69.929  1.00  0.00    -0.337 A  
ENDBRANCH  10  28
TORSDOF 4
ENDMDL
MODEL      107
REMARK 921   NORMALIZED FREE ENERGY PREDICTED BY IDOCK:   -2.55 KCAL/MOL
REMARK 922        TOTAL FREE ENERGY PREDICTED BY IDOCK:   -3.35 KCAL/MOL
REMARK 923 INTER-LIGAND FREE ENERGY PREDICTED BY IDOCK:   -3.25 KCAL/MOL
REMARK 924 INTRA-LIGAND FREE ENERGY PREDICTED BY IDOCK:   -0.11 KCAL/MOL
REMARK 927      BINDING AFFINITY PREDICTED BY RF-SCORE:    0.00 PKD
ROOT
HETATM    1  C   UNL     1      -9.012   9.305  63.924  1.00  0.00    -0.092 C  
HETATM    2  C   UNL     1      -7.762   8.585  64.455  1.00  0.00    -0.126 C  
HETATM    3  C   UNL     1      -8.233   7.650  65.572  1.00  0.00    -0.135 C  
HETATM    4  N   UNL     1      -7.238   6.836  66.306  1.00  0.00    -0.070 NA 
HETATM    5  C   UNL     1      -6.001   7.575  66.561  1.00  0.00    -0.040 C  
HETATM    6  O   UNL     1      -6.075   9.564  62.454  1.00  0.00    -0.096 OA 
HETATM    7  O   UNL     1      -5.126  11.131  63.733  1.00  0.00    -0.209 OA 
HETATM    8  C   UNL     1      -5.491   8.439  65.390  1.00  0.00    -0.035 C  
HETATM    9  C   UNL     1      -5.923  10.055  63.573  1.00  0.00    -0.128 C  
HETATM   10  C   UNL     1      -6.539   9.474  64.872  1.00  0.00    -0.086 C  
ENDROOT
BRANCH   4  11
HETATM   11  C   UNL     1      -7.896   6.379  67.574  1.00  0.00    -0.105 C  
HETATM   12  C   UNL     1      -7.699   3.869  67.220  1.00  0.00    -0.080 C  
HETATM   13  C   UNL     1      -6.996   3.626  68.574  1.00  0.00    -0.050 C  
HETATM   14  C   UNL     1      -7.012   6.223  68.834  1.00  0.00    -0.076 C  
HETATM   15  C   UNL     1      -6.218   4.916  68.946  1.00  0.00    -0.031 C  
HETATM   16  C   UNL     1      -8.660   5.058  67.345  1.00  0.00    -0.104 C  
BRANCH  13  17
HETATM   17  C   UNL     1      -8.095   3.150  69.587  1.00  0.00    -0.062 A  
HETATM   18  C   UNL     1      -9.263   3.549  71.716  1.00  0.00    -0.183 A  
HETATM   19  C   UNL     1      -8.744   1.904  69.515  1.00  0.00    -0.111 A  
HETATM   20  F   UNL     1     -10.596   1.846  72.646  1.00  0.00    -0.203 F  
HETATM   21  C   UNL     1      -9.583   1.468  70.548  1.00  0.00    -0.132 A  
HETATM   22  C   UNL     1      -9.822   2.285  71.646  1.00  0.00    -0.148 A  
HETATM   23  C   UNL     1      -8.417   3.980  70.694  1.00  0.00    -0.097 A  
ENDBRANCH  13  17
BRANCH  13  24
HETATM   24  C   UNL     1      -5.989   2.491  68.494  1.00  0.00    -0.024 C  
HETATM   25  H2  UNL     1      -4.404   2.032  67.927  1.00  0.00     0.000 HD 
HETATM   26  N   UNL     1      -5.152   1.550  68.426  1.00  0.00    -0.007 NA 
HETATM   27  H1  UNL     1      -4.476   0.789  68.372  1.00  0.00     0.000 HD 
ENDBRANCH  13  24
ENDBRANCH   4  11
BRANCH  10  28
HETATM   28  C   UNL     1      -6.844  10.601  65.905  1.00  0.00    -0.115 A  
HETATM   29  C   UNL     1      -5.835  11.298  66.600  1.00  0.00    -0.138 A  
HETATM   30  C   UNL     1      -8.161  11.032  66.150  1.00  0.00    -0.141 A  
HETATM   31  C   UNL     1      -7.441  12.554  67.889  1.00  0.00    -0.120 A  
HETATM   32  C   UNL     1      -6.124  12.236  67.596  1.00  0.00    -0.120 A  
HETATM   33  C   UNL     1      -8.458  11.973  67.144  1.00  0.00    -0.180 A  
ENDBRANCH  10  28
TORSDOF 4
ENDMDL
MODEL      108
REMARK 921   NORMALIZED FREE ENERGY PREDICTED BY IDOCK:   -2.36 KCAL/MOL
REMARK 922        TOTAL FREE ENERGY PREDICTED BY IDOCK:   -3.12 KCAL/MOL
REMARK 923 INTER-LIGAND FREE ENERGY PREDICTED BY IDOCK:   -2.80 KCAL/MOL
REMARK 924 INTRA-LIGAND FREE ENERGY PREDICTED BY IDOCK:   -0.33 KCAL/MOL
REMARK 927      BINDING AFFINITY PREDICTED BY RF-SCORE:    0.00 PKD
ROOT
HETATM    1  C   UNL     1      -6.115   6.070  72.969  1.00  0.00    -0.053 C  
HETATM    2  C   UNL     1      -6.700   6.232  71.557  1.00  0.00    -0.056 C  
HETATM    3  C   UNL     1      -6.634   7.724  71.221  1.00  0.00    -0.041 C  
HETATM    4  N   UNL     1      -7.160   8.201  69.922  1.00  0.00    -0.058 NA 
HETATM    5  C   UNL     1      -8.389   7.506  69.537  1.00  0.00    -0.131 C  
HETATM    6  O   UNL     1      -6.865   3.485  71.069  1.00  0.00    -0.031 OA 
HETATM    7  O   UNL     1      -9.064   3.342  71.440  1.00  0.00    -0.095 OA 
HETATM    8  C   UNL     1      -8.402   5.986  69.797  1.00  0.00    -0.126 C  
HETATM    9  C   UNL     1      -7.935   4.061  71.272  1.00  0.00    -0.071 C  
HETATM   10  C   UNL     1      -8.110   5.602  71.282  1.00  0.00    -0.114 C  
ENDROOT
BRANCH   4  11
HETATM   11  C   UNL     1      -7.363   9.681  70.048  1.00  0.00    -0.130 C  
HETATM   12  C   UNL     1      -6.529  10.375  67.749  1.00  0.00    -0.061 C  
HETATM   13  C   UNL     1      -7.818  11.152  67.399  1.00  0.00    -0.121 C  
HETATM   14  C   UNL     1      -8.747  10.259  69.668  1.00  0.00    -0.125 C  
HETATM   15  C   UNL     1      -8.994  10.499  68.174  1.00  0.00    -0.138 C  
HETATM   16  C   UNL     1      -6.280  10.448  69.261  1.00  0.00    -0.046 C  
BRANCH  13  17
HETATM   17  C   UNL     1      -7.539  12.667  67.688  1.00  0.00    -0.152 A  
HETATM   18  C   UNL     1      -5.869  14.414  68.156  1.00  0.00    -0.135 A  
HETATM   19  C   UNL     1      -8.542  13.611  67.975  1.00  0.00    -0.175 A  
HETATM   20  F   UNL     1      -6.578  16.517  68.943  1.00  0.00    -0.139 F  
HETATM   21  C   UNL     1      -8.214  14.905  68.398  1.00  0.00    -0.151 A  
HETATM   22  C   UNL     1      -6.883  15.290  68.501  1.00  0.00    -0.112 A  
HETATM   23  C   UNL     1      -6.194  13.121  67.745  1.00  0.00    -0.156 A  
ENDBRANCH  13  17
BRANCH  13  24
HETATM   24  C   UNL     1      -8.144  11.067  65.917  1.00  0.00    -0.075 C  
HETATM   25  H2  UNL     1      -9.051  10.197  64.706  1.00  0.00     0.000 HD 
HETATM   26  N   UNL     1      -8.416  10.995  64.688  1.00  0.00    -0.374 NA 
HETATM   27  H1  UNL     1      -8.635  10.939  63.693  1.00  0.00     0.000 HD 
ENDBRANCH  13  24
ENDBRANCH   4  11
BRANCH  10  28
HETATM   28  C   UNL     1      -9.245   6.035  72.258  1.00  0.00    -0.146 A  
HETATM   29  C   UNL     1     -10.469   6.578  71.816  1.00  0.00    -0.239 A  
HETATM   30  C   UNL     1      -9.130   5.842  73.646  1.00  0.00    -0.127 A  
HETATM   31  C   UNL     1     -11.240   6.949  74.072  1.00  0.00     1.183 A  
HETATM   32  C   UNL     1     -11.439   7.055  72.704  1.00  0.00    -0.250 A  
HETATM   33  C   UNL     1     -10.098   6.315  74.542  1.00  0.00    -0.353 A  
ENDBRANCH  10  28
TORSDOF 4
ENDMDL
MODEL      109
REMARK 921   NORMALIZED FREE ENERGY PREDICTED BY IDOCK:   -2.24 KCAL/MOL
REMARK 922        TOTAL FREE ENERGY PREDICTED BY IDOCK:   -2.97 KCAL/MOL
REMARK 923 INTER-LIGAND FREE ENERGY PREDICTED BY IDOCK:   -3.34 KCAL/MOL
REMARK 924 INTRA-LIGAND FREE ENERGY PREDICTED BY IDOCK:    0.37 KCAL/MOL
REMARK 927      BINDING AFFINITY PREDICTED BY RF-SCORE:    0.00 PKD
ROOT
HETATM    1  C   UNL     1      -5.171   7.478  65.779  1.00  0.00    -0.025 C  
HETATM    2  C   UNL     1      -6.316   8.013  64.904  1.00  0.00    -0.048 C  
HETATM    3  C   UNL     1      -7.121   8.981  65.774  1.00  0.00    -0.085 C  
HETATM    4  N   UNL     1      -8.320   9.641  65.210  1.00  0.00    -0.127 NA 
HETATM    5  C   UNL     1      -9.098   8.737  64.361  1.00  0.00     0.342 C  
HETATM    6  O   UNL     1      -5.355   6.854  62.549  1.00  0.00    -0.030 OA 
HETATM    7  O   UNL     1      -6.800   5.150  62.554  1.00  0.00    -0.029 OA 
HETATM    8  C   UNL     1      -8.272   7.834  63.422  1.00  0.00     0.016 C  
HETATM    9  C   UNL     1      -6.354   6.327  63.040  1.00  0.00    -0.033 C  
HETATM   10  C   UNL     1      -7.213   6.960  64.165  1.00  0.00    -0.068 C  
ENDROOT
BRANCH   4  11
HETATM   11  C   UNL     1      -9.121  10.157  66.368  1.00  0.00    -0.152 C  
HETATM   12  C   UNL     1      -8.897  12.646  65.903  1.00  0.00     0.423 C  
HETATM   13  C   UNL     1     -10.422  12.895  65.918  1.00  0.00    -0.294 C  
HETATM   14  C   UNL     1     -10.650  10.309  66.183  1.00  0.00    -0.124 C  
HETATM   15  C   UNL     1     -11.123  11.583  65.474  1.00  0.00    -0.254 C  
HETATM   16  C   UNL     1      -8.553  11.503  66.865  1.00  0.00    -0.163 C  
BRANCH  13  17
HETATM   17  C   UNL     1     -10.788  13.443  67.341  1.00  0.00    -0.279 A  
HETATM   18  C   UNL     1     -11.704  15.297  68.674  1.00  0.00    -0.367 A  
HETATM   19  C   UNL     1     -10.398  12.828  68.544  1.00  0.00    -0.231 A  
HETATM   20  F   UNL     1     -11.397  15.311  71.009  1.00  0.00    -0.297 F  
HETATM   21  C   UNL     1     -10.603  13.461  69.776  1.00  0.00     0.605 A  
HETATM   22  C   UNL     1     -11.238  14.696  69.830  1.00  0.00    -0.231 A  
HETATM   23  C   UNL     1     -11.490  14.673  67.445  1.00  0.00    -0.384 A  
ENDBRANCH  13  17
BRANCH  13  24
HETATM   24  C   UNL     1     -10.827  13.984  64.938  1.00  0.00    -0.410 C  
HETATM   25  H2  UNL     1     -12.149  14.977  64.380  1.00  0.00     0.000 HD 
HETATM   26  N   UNL     1     -11.165  14.887  64.126  1.00  0.00    -0.553 NA 
HETATM   27  H1  UNL     1     -11.437  15.618  63.468  1.00  0.00     0.000 HD 
ENDBRANCH  13  24
ENDBRANCH   4  11
BRANCH  10  28
HETATM   28  C   UNL     1      -7.854   5.865  65.070  1.00  0.00    -0.106 A  
HETATM   29  C   UNL     1      -9.210   5.889  65.458  1.00  0.00     0.056 A  
HETATM   30  C   UNL     1      -7.118   4.746  65.498  1.00  0.00    -0.064 A  
HETATM   31  C   UNL     1      -8.958   3.928  66.841  1.00  0.00    -0.147 A  
HETATM   32  C   UNL     1      -9.748   4.956  66.351  1.00  0.00    -0.200 A  
HETATM   33  C   UNL     1      -7.651   3.806  66.390  1.00  0.00    -0.084 A  
ENDBRANCH  10  28
TORSDOF 4
ENDMDL
MODEL      110
REMARK 921   NORMALIZED FREE ENERGY PREDICTED BY IDOCK:   -2.23 KCAL/MOL
REMARK 922        TOTAL FREE ENERGY PREDICTED BY IDOCK:   -2.96 KCAL/MOL
REMARK 923 INTER-LIGAND FREE ENERGY PREDICTED BY IDOCK:   -3.39 KCAL/MOL
REMARK 924 INTRA-LIGAND FREE ENERGY PREDICTED BY IDOCK:    0.43 KCAL/MOL
REMARK 927      BINDING AFFINITY PREDICTED BY RF-SCORE:    0.00 PKD
ROOT
HETATM    1  C   UNL     1      -9.054   9.483  63.894  1.00  0.00    -0.172 C  
HETATM    2  C   UNL     1      -7.889   8.620  64.404  1.00  0.00    -0.138 C  
HETATM    3  C   UNL     1      -8.503   7.514  65.264  1.00  0.00    -0.063 C  
HETATM    4  N   UNL     1      -7.617   6.531  65.927  1.00  0.00    -0.085 NA 
HETATM    5  C   UNL     1      -6.398   7.152  66.447  1.00  0.00    -0.047 C  
HETATM    6  O   UNL     1      -5.966   9.882  62.816  1.00  0.00    -0.100 OA 
HETATM    7  O   UNL     1      -5.127  11.134  64.465  1.00  0.00    -0.243 OA 
HETATM    8  C   UNL     1      -5.740   8.197  65.525  1.00  0.00    -0.040 C  
HETATM    9  C   UNL     1      -5.927  10.145  64.018  1.00  0.00    -0.140 C  
HETATM   10  C   UNL     1      -6.698   9.358  65.110  1.00  0.00    -0.080 C  
ENDROOT
BRANCH   4  11
HETATM   11  C   UNL     1      -8.422   5.873  67.008  1.00  0.00    -0.107 C  
HETATM   12  C   UNL     1      -6.638   5.798  68.817  1.00  0.00    -0.051 C  
HETATM   13  C   UNL     1      -7.517   6.517  69.864  1.00  0.00    -0.088 C  
HETATM   14  C   UNL     1      -9.262   6.778  67.940  1.00  0.00    -0.112 C  
HETATM   15  C   UNL     1      -8.509   7.437  69.102  1.00  0.00    -0.133 C  
HETATM   16  C   UNL     1      -7.526   4.969  67.880  1.00  0.00    -0.079 C  
BRANCH  13  17
HETATM   17  C   UNL     1      -8.145   5.410  70.780  1.00  0.00    -0.111 A  
HETATM   18  C   UNL     1     -10.192   4.364  71.659  1.00  0.00    -0.186 A  
HETATM   19  C   UNL     1      -7.409   4.634  71.693  1.00  0.00    -0.069 A  
HETATM   20  F   UNL     1     -10.049   2.894  73.493  1.00  0.00    -0.127 F  
HETATM   21  C   UNL     1      -8.054   3.790  72.605  1.00  0.00    -0.088 A  
HETATM   22  C   UNL     1      -9.439   3.675  72.593  1.00  0.00    -0.121 A  
HETATM   23  C   UNL     1      -9.552   5.215  70.757  1.00  0.00    -0.241 A  
ENDBRANCH  13  17
BRANCH  13  24
HETATM   24  C   UNL     1      -6.692   7.399  70.787  1.00  0.00    -0.047 C  
HETATM   25  H2  UNL     1      -5.097   7.684  71.432  1.00  0.00     0.000 HD 
HETATM   26  N   UNL     1      -6.007   8.130  71.552  1.00  0.00    -0.035 NA 
HETATM   27  H1  UNL     1      -5.453   8.722  72.171  1.00  0.00     0.000 HD 
ENDBRANCH  13  24
ENDBRANCH   4  11
BRANCH  10  28
HETATM   28  C   UNL     1      -7.089  10.282  66.303  1.00  0.00    -0.117 A  
HETATM   29  C   UNL     1      -8.387  10.317  66.851  1.00  0.00    -0.123 A  
HETATM   30  C   UNL     1      -6.134  11.089  66.946  1.00  0.00    -0.089 A  
HETATM   31  C   UNL     1      -7.805  12.084  68.388  1.00  0.00    -0.147 A  
HETATM   32  C   UNL     1      -8.750  11.222  67.855  1.00  0.00    -0.138 A  
HETATM   33  C   UNL     1      -6.489  11.995  67.954  1.00  0.00    -0.072 A  
ENDBRANCH  10  28
TORSDOF 4
ENDMDL
MODEL      111
REMARK 921   NORMALIZED FREE ENERGY PREDICTED BY IDOCK:   -1.64 KCAL/MOL
REMARK 922        TOTAL FREE ENERGY PREDICTED BY IDOCK:   -2.22 KCAL/MOL
REMARK 923 INTER-LIGAND FREE ENERGY PREDICTED BY IDOCK:   -3.05 KCAL/MOL
REMARK 924 INTRA-LIGAND FREE ENERGY PREDICTED BY IDOCK:    0.83 KCAL/MOL
REMARK 927      BINDING AFFINITY PREDICTED BY RF-SCORE:    0.00 PKD
ROOT
HETATM    1  C   UNL     1     -12.661  10.242  68.643  1.00  0.00     2.036 C  
HETATM    2  C   UNL     1     -11.335  10.828  69.156  1.00  0.00    -0.348 C  
HETATM    3  C   UNL     1     -11.473  12.351  69.095  1.00  0.00    -0.302 C  
HETATM    4  N   UNL     1     -10.332  13.202  69.501  1.00  0.00     0.463 NA 
HETATM    5  C   UNL     1      -9.050  12.652  69.057  1.00  0.00     0.513 C  
HETATM    6  O   UNL     1     -10.310   8.365  69.988  1.00  0.00    -0.201 OA 
HETATM    7  O   UNL     1      -8.957   8.100  68.230  1.00  0.00    -0.136 OA 
HETATM    8  C   UNL     1      -8.894  11.126  69.214  1.00  0.00     0.168 C  
HETATM    9  C   UNL     1      -9.803   8.843  68.973  1.00  0.00    -0.180 C  
HETATM   10  C   UNL     1     -10.011  10.304  68.497  1.00  0.00    -0.177 C  
ENDROOT
BRANCH   4  11
HETATM   11  C   UNL     1     -10.584  14.570  68.940  1.00  0.00    -0.249 C  
HETATM   12  C   UNL     1      -8.255  15.540  69.248  1.00  0.00    -0.255 C  
HETATM   13  C   UNL     1      -8.117  15.958  67.767  1.00  0.00    -0.155 C  
HETATM   14  C   UNL     1     -10.415  14.772  67.415  1.00  0.00    -0.256 C  
HETATM   15  C   UNL     1      -8.982  14.990  66.916  1.00  0.00    -0.276 C  
HETATM   16  C   UNL     1      -9.727  15.624  69.671  1.00  0.00    -0.276 C  
BRANCH  13  17
HETATM   17  C   UNL     1      -8.475  17.482  67.680  1.00  0.00    -0.215 A  
HETATM   18  C   UNL     1      -9.404  19.459  68.813  1.00  0.00    -0.444 A  
HETATM   19  C   UNL     1      -8.459  18.227  66.487  1.00  0.00    -0.287 A  
HETATM   20  F   UNL     1      -9.953  21.370  67.551  1.00  0.00    -0.525 F  
HETATM   21  C   UNL     1      -8.959  19.535  66.448  1.00  0.00    -0.410 A  
HETATM   22  C   UNL     1      -9.442  20.133  67.605  1.00  0.00    -0.387 A  
HETATM   23  C   UNL     1      -8.917  18.152  68.852  1.00  0.00    -0.140 A  
ENDBRANCH  13  17
BRANCH  13  24
HETATM   24  C   UNL     1      -6.683  15.841  67.277  1.00  0.00    -0.162 C  
HETATM   25  H2  UNL     1      -5.054  16.426  67.490  1.00  0.00     0.000 HD 
HETATM   26  N   UNL     1      -5.493  15.744  66.871  1.00  0.00    -0.103 NA 
HETATM   27  H1  UNL     1      -4.531  15.665  66.542  1.00  0.00     0.000 HD 
ENDBRANCH  13  24
ENDBRANCH   4  11
BRANCH  10  28
HETATM   28  C   UNL     1      -9.943  10.408  66.944  1.00  0.00    -0.254 A  
HETATM   29  C   UNL     1      -8.753  10.207  66.214  1.00  0.00    -0.152 A  
HETATM   30  C   UNL     1     -11.096  10.646  66.175  1.00  0.00     0.133 A  
HETATM   31  C   UNL     1      -9.822  10.746  64.119  1.00  0.00    -0.384 A  
HETATM   32  C   UNL     1      -8.684  10.401  64.830  1.00  0.00    -0.197 A  
HETATM   33  C   UNL     1     -11.035  10.839  64.788  1.00  0.00     0.103 A  
ENDBRANCH  10  28
TORSDOF 4
ENDMDL
MODEL      112
REMARK 921   NORMALIZED FREE ENERGY PREDICTED BY IDOCK:   -1.43 KCAL/MOL
REMARK 922        TOTAL FREE ENERGY PREDICTED BY IDOCK:   -1.97 KCAL/MOL
REMARK 923 INTER-LIGAND FREE ENERGY PREDICTED BY IDOCK:   -3.82 KCAL/MOL
REMARK 924 INTRA-LIGAND FREE ENERGY PREDICTED BY IDOCK:    1.86 KCAL/MOL
REMARK 927      BINDING AFFINITY PREDICTED BY RF-SCORE:    0.00 PKD
ROOT
HETATM    1  C   UNL     1     -13.275  11.721  64.096  1.00  0.00     0.447 C  
HETATM    2  C   UNL     1     -11.797  12.146  64.093  1.00  0.00    -0.490 C  
HETATM    3  C   UNL     1     -10.968  10.861  64.052  1.00  0.00     0.148 C  
HETATM    4  N   UNL     1      -9.491  10.946  64.071  1.00  0.00    -0.242 NA 
HETATM    5  C   UNL     1      -9.012  11.995  64.974  1.00  0.00     0.545 C  
HETATM    6  O   UNL     1     -12.350  14.868  63.775  1.00  0.00    -0.673 OA 
HETATM    7  O   UNL     1     -11.999  15.400  65.916  1.00  0.00     0.173 OA 
HETATM    8  C   UNL     1      -9.803  13.317  64.934  1.00  0.00    -0.044 C  
HETATM    9  C   UNL     1     -11.956  14.525  64.891  1.00  0.00    -0.422 C  
HETATM   10  C   UNL     1     -11.330  13.143  65.210  1.00  0.00    -0.321 C  
ENDROOT
BRANCH   4  11
HETATM   11  C   UNL     1      -8.978   9.591  64.457  1.00  0.00    -0.212 C  
HETATM   12  C   UNL     1      -7.368  10.303  66.291  1.00  0.00    -0.118 C  
HETATM   13  C   UNL     1      -7.987   9.361  67.347  1.00  0.00    -0.106 C  
HETATM   14  C   UNL     1      -9.765   8.793  65.523  1.00  0.00     0.103 C  
HETATM   15  C   UNL     1      -9.483   9.156  66.986  1.00  0.00    -0.201 C  
HETATM   16  C   UNL     1      -7.502   9.673  64.898  1.00  0.00    -0.118 C  
BRANCH  13  17
HETATM   17  C   UNL     1      -7.093   8.073  67.400  1.00  0.00    -0.083 A  
HETATM   18  C   UNL     1      -6.598   5.855  66.457  1.00  0.00    -0.055 A  
HETATM   19  C   UNL     1      -6.193   7.783  68.441  1.00  0.00    -0.040 A  
HETATM   20  F   UNL     1      -5.197   4.377  67.638  1.00  0.00    -0.009 F  
HETATM   21  C   UNL     1      -5.558   6.537  68.518  1.00  0.00    -0.016 A  
HETATM   22  C   UNL     1      -5.778   5.579  67.536  1.00  0.00    -0.013 A  
HETATM   23  C   UNL     1      -7.241   7.091  66.384  1.00  0.00    -0.075 A  
ENDBRANCH  13  17
BRANCH  13  24
HETATM   24  C   UNL     1      -7.932   9.960  68.742  1.00  0.00    -0.093 C  
HETATM   25  H2  UNL     1      -7.921   9.597  70.449  1.00  0.00     0.000 HD 
HETATM   26  N   UNL     1      -7.886  10.457  69.900  1.00  0.00    -0.340 NA 
HETATM   27  H1  UNL     1      -7.848  10.860  70.837  1.00  0.00     0.000 HD 
ENDBRANCH  13  24
ENDBRANCH   4  11
BRANCH  10  28
HETATM   28  C   UNL     1     -11.637  12.708  66.675  1.00  0.00    -0.443 A  
HETATM   29  C   UNL     1     -11.968  13.626  67.693  1.00  0.00    -0.386 A  
HETATM   30  C   UNL     1     -11.667  11.352  67.044  1.00  0.00     0.001 A  
HETATM   31  C   UNL     1     -12.055  11.894  69.371  1.00  0.00    -0.277 A  
HETATM   32  C   UNL     1     -12.145  13.233  69.024  1.00  0.00    -0.268 A  
HETATM   33  C   UNL     1     -11.846  10.951  68.375  1.00  0.00    -0.195 A  
ENDBRANCH  10  28
TORSDOF 4
ENDMDL
MODEL      113
REMARK 921   NORMALIZED FREE ENERGY PREDICTED BY IDOCK:   -0.17 KCAL/MOL
REMARK 922        TOTAL FREE ENERGY PREDICTED BY IDOCK:   -0.42 KCAL/MOL
REMARK 923 INTER-LIGAND FREE ENERGY PREDICTED BY IDOCK:   -1.20 KCAL/MOL
REMARK 924 INTRA-LIGAND FREE ENERGY PREDICTED BY IDOCK:    0.78 KCAL/MOL
REMARK 927      BINDING AFFINITY PREDICTED BY RF-SCORE:    0.00 PKD
ROOT
HETATM    1  C   UNL     1     -11.385   6.872  66.555  1.00  0.00     0.983 C  
HETATM    2  C   UNL     1     -11.278   7.833  67.751  1.00  0.00     0.424 C  
HETATM    3  C   UNL     1     -11.115   9.240  67.173  1.00  0.00     0.340 C  
HETATM    4  N   UNL     1     -10.955  10.390  68.091  1.00  0.00    -0.264 NA 
HETATM    5  C   UNL     1     -10.111  10.062  69.241  1.00  0.00    -0.213 C  
HETATM    6  O   UNL     1     -11.904   5.886  69.656  1.00  0.00     0.232 OA 
HETATM    7  O   UNL     1      -9.798   5.577  70.334  1.00  0.00    -0.175 OA 
HETATM    8  C   UNL     1     -10.354   8.676  69.869  1.00  0.00    -0.213 C  
HETATM    9  C   UNL     1     -10.727   6.247  69.622  1.00  0.00    -0.306 C  
HETATM   10  C   UNL     1     -10.218   7.496  68.856  1.00  0.00    -0.214 C  
ENDROOT
BRANCH   4  11
HETATM   11  C   UNL     1     -10.394  11.522  67.283  1.00  0.00    -0.206 C  
HETATM   12  C   UNL     1      -9.172  12.747  69.145  1.00  0.00     0.686 C  
HETATM   13  C   UNL     1      -7.819  12.752  68.398  1.00  0.00    -0.132 C  
HETATM   14  C   UNL     1      -9.028  11.312  66.589  1.00  0.00    -0.180 C  
HETATM   15  C   UNL     1      -7.785  11.513  67.464  1.00  0.00    -0.132 C  
HETATM   16  C   UNL     1     -10.320  12.810  68.129  1.00  0.00    -0.243 C  
BRANCH  13  17
HETATM   17  C   UNL     1      -7.674  14.155  67.712  1.00  0.00    -0.175 A  
HETATM   18  C   UNL     1      -8.697  15.879  66.285  1.00  0.00    -0.372 A  
HETATM   19  C   UNL     1      -6.467  14.874  67.640  1.00  0.00    -0.168 A  
HETATM   20  F   UNL     1      -7.357  17.605  65.407  1.00  0.00    -0.167 F  
HETATM   21  C   UNL     1      -6.365  16.034  66.862  1.00  0.00     0.138 A  
HETATM   22  C   UNL     1      -7.473  16.517  66.178  1.00  0.00     0.118 A  
HETATM   23  C   UNL     1      -8.798  14.717  67.050  1.00  0.00    -0.258 A  
ENDBRANCH  13  17
BRANCH  13  24
HETATM   24  C   UNL     1      -6.644  12.636  69.355  1.00  0.00    -0.067 C  
HETATM   25  H2  UNL     1      -5.635  11.523  70.242  1.00  0.00     0.000 HD 
HETATM   26  N   UNL     1      -5.669  12.538  70.149  1.00  0.00    -0.141 NA 
HETATM   27  H1  UNL     1      -4.881  12.460  70.791  1.00  0.00     0.000 HD 
ENDBRANCH  13  24
ENDBRANCH   4  11
BRANCH  10  28
HETATM   28  C   UNL     1      -8.758   7.292  68.351  1.00  0.00    -0.122 A  
HETATM   29  C   UNL     1      -7.643   7.897  68.967  1.00  0.00    -0.099 A  
HETATM   30  C   UNL     1      -8.467   6.428  67.280  1.00  0.00    -0.111 A  
HETATM   31  C   UNL     1      -6.119   7.014  67.317  1.00  0.00    -0.040 A  
HETATM   32  C   UNL     1      -6.350   7.787  68.445  1.00  0.00    -0.045 A  
HETATM   33  C   UNL     1      -7.174   6.310  66.754  1.00  0.00    -0.074 A  
ENDBRANCH  10  28
TORSDOF 4
ENDMDL
MODEL      114
REMARK 921   NORMALIZED FREE ENERGY PREDICTED BY IDOCK:    0.06 KCAL/MOL
REMARK 922        TOTAL FREE ENERGY PREDICTED BY IDOCK:   -0.13 KCAL/MOL
REMARK 923 INTER-LIGAND FREE ENERGY PREDICTED BY IDOCK:    0.22 KCAL/MOL
REMARK 924 INTRA-LIGAND FREE ENERGY PREDICTED BY IDOCK:   -0.36 KCAL/MOL
REMARK 927      BINDING AFFINITY PREDICTED BY RF-SCORE:    0.00 PKD
ROOT
HETATM    1  C   UNL     1      -9.819   5.840  63.117  1.00  0.00     2.084 C  
HETATM    2  C   UNL     1     -10.008   5.393  64.576  1.00  0.00     1.097 C  
HETATM    3  C   UNL     1      -9.523   6.547  65.456  1.00  0.00     0.481 C  
HETATM    4  N   UNL     1      -9.551   6.400  66.929  1.00  0.00    -0.144 NA 
HETATM    5  C   UNL     1      -9.164   5.054  67.356  1.00  0.00    -0.119 C  
HETATM    6  O   UNL     1     -11.414   3.070  63.917  1.00  0.00    -0.010 OA 
HETATM    7  O   UNL     1      -9.685   1.689  64.224  1.00  0.00    -0.134 OA 
HETATM    8  C   UNL     1      -9.739   3.899  66.512  1.00  0.00    -0.186 C  
HETATM    9  C   UNL     1     -10.260   2.906  64.312  1.00  0.00    -0.024 C  
HETATM   10  C   UNL     1      -9.404   4.006  64.991  1.00  0.00    -0.163 C  
ENDROOT
BRANCH   4  11
HETATM   11  C   UNL     1      -8.646   7.454  67.492  1.00  0.00    -0.122 C  
HETATM   12  C   UNL     1     -10.236   9.433  67.350  1.00  0.00    -0.298 C  
HETATM   13  C   UNL     1     -10.082   9.800  68.843  1.00  0.00    -0.194 C  
HETATM   14  C   UNL     1      -8.621   7.646  69.027  1.00  0.00    -0.136 C  
HETATM   15  C   UNL     1      -9.747   8.500  69.622  1.00  0.00    -0.179 C  
HETATM   16  C   UNL     1      -8.928   8.821  66.833  1.00  0.00    -0.155 C  
BRANCH  13  17
HETATM   17  C   UNL     1      -9.033  10.962  68.929  1.00  0.00    -0.146 A  
HETATM   18  C   UNL     1      -8.525  13.331  68.496  1.00  0.00    -0.067 A  
HETATM   19  C   UNL     1      -7.675  10.774  69.244  1.00  0.00    -0.129 A  
HETATM   20  F   UNL     1      -6.294  14.078  68.598  1.00  0.00    -0.077 F  
HETATM   21  C   UNL     1      -6.756  11.825  69.129  1.00  0.00    -0.110 A  
HETATM   22  C   UNL     1      -7.184  13.088  68.741  1.00  0.00    -0.082 A  
HETATM   23  C   UNL     1      -9.440  12.283  68.598  1.00  0.00    -0.030 A  
ENDBRANCH  13  17
BRANCH  13  24
HETATM   24  C   UNL     1     -11.370  10.362  69.424  1.00  0.00    -0.250 C  
HETATM   25  H2  UNL     1     -12.461  10.307  70.783  1.00  0.00     0.000 HD 
HETATM   26  N   UNL     1     -12.438  10.827  69.906  1.00  0.00    -0.451 NA 
HETATM   27  H1  UNL     1     -13.302  11.204  70.295  1.00  0.00     0.000 HD 
ENDBRANCH  13  24
ENDBRANCH   4  11
BRANCH  10  28
HETATM   28  C   UNL     1      -7.888   3.812  64.686  1.00  0.00    -0.085 A  
HETATM   29  C   UNL     1      -7.325   4.053  63.416  1.00  0.00    -0.050 A  
HETATM   30  C   UNL     1      -6.980   3.446  65.696  1.00  0.00    -0.057 A  
HETATM   31  C   UNL     1      -5.141   3.312  64.126  1.00  0.00    -0.008 A  
HETATM   32  C   UNL     1      -5.983   3.780  63.130  1.00  0.00    -0.014 A  
HETATM   33  C   UNL     1      -5.634   3.174  65.417  1.00  0.00    -0.017 A  
ENDBRANCH  10  28
TORSDOF 4
ENDMDL
MODEL      115
REMARK 921   NORMALIZED FREE ENERGY PREDICTED BY IDOCK:    0.51 KCAL/MOL
REMARK 922        TOTAL FREE ENERGY PREDICTED BY IDOCK:    0.42 KCAL/MOL
REMARK 923 INTER-LIGAND FREE ENERGY PREDICTED BY IDOCK:   -0.34 KCAL/MOL
REMARK 924 INTRA-LIGAND FREE ENERGY PREDICTED BY IDOCK:    0.76 KCAL/MOL
REMARK 927      BINDING AFFINITY PREDICTED BY RF-SCORE:    0.00 PKD
ROOT
HETATM    1  C   UNL     1      -6.398  10.537  66.303  1.00  0.00    -0.106 C  
HETATM    2  C   UNL     1      -7.349  11.683  65.921  1.00  0.00     0.612 C  
HETATM    3  C   UNL     1      -6.835  12.937  66.632  1.00  0.00     1.183 C  
HETATM    4  N   UNL     1      -7.571  14.213  66.481  1.00  0.00     0.857 NA 
HETATM    5  C   UNL     1      -9.021  14.015  66.487  1.00  0.00    -0.092 C  
HETATM    6  O   UNL     1      -8.741  10.191  64.011  1.00  0.00    -0.179 OA 
HETATM    7  O   UNL     1     -10.515   9.797  65.311  1.00  0.00     0.033 OA 
HETATM    8  C   UNL     1      -9.529  12.799  65.688  1.00  0.00     0.037 C  
HETATM    9  C   UNL     1      -9.344  10.418  65.061  1.00  0.00    -0.229 C  
HETATM   10  C   UNL     1      -8.886  11.446  66.127  1.00  0.00    -0.186 C  
ENDROOT
BRANCH   4  11
HETATM   11  C   UNL     1      -7.118  15.114  67.590  1.00  0.00    -0.186 C  
HETATM   12  C   UNL     1      -7.972  17.320  66.657  1.00  0.00    -0.296 C  
HETATM   13  C   UNL     1      -8.773  17.671  67.932  1.00  0.00    -0.245 C  
HETATM   14  C   UNL     1      -8.065  15.313  68.797  1.00  0.00    -0.165 C  
HETATM   15  C   UNL     1      -9.188  16.341  68.615  1.00  0.00    -0.227 C  
HETATM   16  C   UNL     1      -6.731  16.503  67.038  1.00  0.00    -0.240 C  
BRANCH  13  17
HETATM   17  C   UNL     1      -7.889  18.652  68.778  1.00  0.00    -0.319 A  
HETATM   18  C   UNL     1      -5.658  19.609  69.177  1.00  0.00    -0.235 A  
HETATM   19  C   UNL     1      -8.321  19.274  69.963  1.00  0.00     1.065 A  
HETATM   20  F   UNL     1      -5.245  20.802  71.165  1.00  0.00    -0.264 F  
HETATM   21  C   UNL     1      -7.426  19.996  70.764  1.00  0.00     1.006 A  
HETATM   22  C   UNL     1      -6.101  20.143  70.374  1.00  0.00    -0.348 A  
HETATM   23  C   UNL     1      -6.544  18.880  68.384  1.00  0.00    -0.260 A  
ENDBRANCH  13  17
BRANCH  13  24
HETATM   24  C   UNL     1     -10.046  18.435  67.607  1.00  0.00    -0.360 C  
HETATM   25  H2  UNL     1     -11.594  18.348  66.808  1.00  0.00     0.000 HD 
HETATM   26  N   UNL     1     -11.102  19.068  67.338  1.00  0.00    -0.278 NA 
HETATM   27  H1  UNL     1     -11.957  19.581  67.121  1.00  0.00     0.000 HD 
ENDBRANCH  13  24
ENDBRANCH   4  11
BRANCH  10  28
HETATM   28  C   UNL     1      -9.315  11.005  67.559  1.00  0.00    -0.167 A  
HETATM   29  C   UNL     1     -10.660  10.977  67.981  1.00  0.00    -0.241 A  
HETATM   30  C   UNL     1      -8.373  10.542  68.495  1.00  0.00    -0.129 A  
HETATM   31  C   UNL     1     -10.053  10.331  70.226  1.00  0.00    -0.012 A  
HETATM   32  C   UNL     1     -11.024  10.675  69.298  1.00  0.00    -0.294 A  
HETATM   33  C   UNL     1      -8.730  10.235  69.815  1.00  0.00    -0.069 A  
ENDBRANCH  10  28
TORSDOF 4
ENDMDL
MODEL      116
REMARK 921   NORMALIZED FREE ENERGY PREDICTED BY IDOCK:    0.62 KCAL/MOL
REMARK 922        TOTAL FREE ENERGY PREDICTED BY IDOCK:    0.56 KCAL/MOL
REMARK 923 INTER-LIGAND FREE ENERGY PREDICTED BY IDOCK:    0.95 KCAL/MOL
REMARK 924 INTRA-LIGAND FREE ENERGY PREDICTED BY IDOCK:   -0.39 KCAL/MOL
REMARK 927      BINDING AFFINITY PREDICTED BY RF-SCORE:    0.00 PKD
ROOT
HETATM    1  C   UNL     1      -6.872  13.339  71.301  1.00  0.00     2.803 C  
HETATM    2  C   UNL     1      -6.050  13.403  70.003  1.00  0.00    -0.125 C  
HETATM    3  C   UNL     1      -6.068  14.861  69.541  1.00  0.00    -0.113 C  
HETATM    4  N   UNL     1      -5.379  15.235  68.286  1.00  0.00    -0.107 NA 
HETATM    5  C   UNL     1      -5.551  14.225  67.241  1.00  0.00     0.621 C  
HETATM    6  O   UNL     1      -5.129  10.771  70.195  1.00  0.00    -0.041 OA 
HETATM    7  O   UNL     1      -6.553   9.944  68.684  1.00  0.00    -0.050 OA 
HETATM    8  C   UNL     1      -5.437  12.760  67.709  1.00  0.00    -0.124 C  
HETATM    9  C   UNL     1      -5.983  10.981  69.332  1.00  0.00    -0.050 C  
HETATM   10  C   UNL     1      -6.422  12.392  68.863  1.00  0.00    -0.090 C  
ENDROOT
BRANCH   4  11
HETATM   11  C   UNL     1      -5.916  16.573  67.872  1.00  0.00    -0.123 C  
HETATM   12  C   UNL     1      -8.295  15.870  67.317  1.00  0.00    -0.211 C  
HETATM   13  C   UNL     1      -8.937  16.922  68.249  1.00  0.00    -0.235 C  
HETATM   14  C   UNL     1      -6.496  17.494  68.972  1.00  0.00    -0.227 C  
HETATM   15  C   UNL     1      -7.940  17.209  69.403  1.00  0.00     0.261 C  
HETATM   16  C   UNL     1      -6.973  16.414  66.760  1.00  0.00    -0.212 C  
BRANCH  13  17
HETATM   17  C   UNL     1      -9.349  18.143  67.354  1.00  0.00    -0.254 A  
HETATM   18  C   UNL     1     -10.555  18.938  65.362  1.00  0.00     0.174 A  
HETATM   19  C   UNL     1      -8.805  19.433  67.486  1.00  0.00    -0.352 A  
HETATM   20  F   UNL     1     -10.171  21.120  64.566  1.00  0.00     0.547 F  
HETATM   21  C   UNL     1      -9.083  20.431  66.544  1.00  0.00    -0.280 A  
HETATM   22  C   UNL     1      -9.940  20.172  65.482  1.00  0.00     0.020 A  
HETATM   23  C   UNL     1     -10.270  17.938  66.292  1.00  0.00    -0.363 A  
ENDBRANCH  13  17
BRANCH  13  24
HETATM   24  C   UNL     1     -10.225  16.414  68.874  1.00  0.00    -0.258 C  
HETATM   25  H2  UNL     1     -11.885  15.977  68.559  1.00  0.00     0.000 HD 
HETATM   26  N   UNL     1     -11.295  15.992  69.392  1.00  0.00    -0.347 NA 
HETATM   27  H1  UNL     1     -12.159  15.650  69.811  1.00  0.00     0.000 HD 
ENDBRANCH  13  24
ENDBRANCH   4  11
BRANCH  10  28
HETATM   28  C   UNL     1      -7.915  12.399  68.415  1.00  0.00    -0.149 A  
HETATM   29  C   UNL     1      -8.349  11.853  67.189  1.00  0.00    -0.174 A  
HETATM   30  C   UNL     1      -8.928  12.898  69.253  1.00  0.00     0.964 A  
HETATM   31  C   UNL     1     -10.628  12.556  67.563  1.00  0.00    -0.238 A  
HETATM   32  C   UNL     1      -9.675  11.955  66.755  1.00  0.00    -0.218 A  
HETATM   33  C   UNL     1     -10.259  13.000  68.826  1.00  0.00    -0.102 A  
ENDBRANCH  10  28
TORSDOF 4
ENDMDL
MODEL      117
REMARK 921   NORMALIZED FREE ENERGY PREDICTED BY IDOCK:    1.59 KCAL/MOL
REMARK 922        TOTAL FREE ENERGY PREDICTED BY IDOCK:    1.75 KCAL/MOL
REMARK 923 INTER-LIGAND FREE ENERGY PREDICTED BY IDOCK:    0.88 KCAL/MOL
REMARK 924 INTRA-LIGAND FREE ENERGY PREDICTED BY IDOCK:    0.87 KCAL/MOL
REMARK 927      BINDING AFFINITY PREDICTED BY RF-SCORE:    0.00 PKD
ROOT
HETATM    1  C   UNL     1      -5.707   6.463  65.639  1.00  0.00    -0.022 C  
HETATM    2  C   UNL     1      -6.501   7.477  64.800  1.00  0.00    -0.041 C  
HETATM    3  C   UNL     1      -6.342   8.837  65.484  1.00  0.00    -0.062 C  
HETATM    4  N   UNL     1      -7.028  10.021  64.919  1.00  0.00    -0.132 NA 
HETATM    5  C   UNL     1      -8.368   9.698  64.428  1.00  0.00    -0.168 C  
HETATM    6  O   UNL     1      -7.024   5.684  62.721  1.00  0.00    -0.041 OA 
HETATM    7  O   UNL     1      -9.132   5.268  63.334  1.00  0.00     0.077 OA 
HETATM    8  C   UNL     1      -8.491   8.368  63.659  1.00  0.00     0.012 C  
HETATM    9  C   UNL     1      -7.980   5.961  63.446  1.00  0.00    -0.110 C  
HETATM   10  C   UNL     1      -7.994   7.128  64.467  1.00  0.00    -0.104 C  
ENDROOT
BRANCH   4  11
HETATM   11  C   UNL     1      -7.056  11.066  65.994  1.00  0.00    -0.010 C  
HETATM   12  C   UNL     1      -9.090  12.369  65.202  1.00  0.00     0.585 C  
HETATM   13  C   UNL     1      -9.820  12.261  66.559  1.00  0.00    -0.240 C  
HETATM   14  C   UNL     1      -7.827  10.747  67.297  1.00  0.00    -0.113 C  
HETATM   15  C   UNL     1      -9.346  10.957  67.254  1.00  0.00    -0.168 C  
HETATM   16  C   UNL     1      -7.574  12.407  65.435  1.00  0.00     3.200 C  
BRANCH  13  17
HETATM   17  C   UNL     1      -9.565  13.603  67.330  1.00  0.00    -0.238 A  
HETATM   18  C   UNL     1      -9.092  14.698  69.483  1.00  0.00     0.222 A  
HETATM   19  C   UNL     1      -9.770  14.879  66.776  1.00  0.00    -0.263 A  
HETATM   20  F   UNL     1      -9.342  17.031  69.678  1.00  0.00    -0.023 F  
HETATM   21  C   UNL     1      -9.695  16.030  67.570  1.00  0.00    -0.228 A  
HETATM   22  C   UNL     1      -9.374  15.929  68.918  1.00  0.00    -0.233 A  
HETATM   23  C   UNL     1      -9.177  13.549  68.695  1.00  0.00    -0.022 A  
ENDBRANCH  13  17
BRANCH  13  24
HETATM   24  C   UNL     1     -11.327  12.164  66.385  1.00  0.00    -0.356 C  
HETATM   25  H2  UNL     1     -12.815  13.072  66.328  1.00  0.00     0.000 HD 
HETATM   26  N   UNL     1     -12.577  12.084  66.240  1.00  0.00     0.612 NA 
HETATM   27  H1  UNL     1     -13.588  12.019  66.123  1.00  0.00     0.000 HD 
ENDBRANCH  13  24
ENDBRANCH   4  11
BRANCH  10  28
HETATM   28  C   UNL     1      -8.899   6.797  65.692  1.00  0.00    -0.043 A  
HETATM   29  C   UNL     1      -9.459   5.521  65.908  1.00  0.00    -0.115 A  
HETATM   30  C   UNL     1      -9.151   7.751  66.694  1.00  0.00    -0.195 A  
HETATM   31  C   UNL     1     -10.663   6.264  67.863  1.00  0.00    -0.380 A  
HETATM   32  C   UNL     1     -10.349   5.263  66.956  1.00  0.00    -0.286 A  
HETATM   33  C   UNL     1     -10.039   7.499  67.748  1.00  0.00    -0.235 A  
ENDBRANCH  10  28
TORSDOF 4
ENDMDL
MODEL      118
REMARK 921   NORMALIZED FREE ENERGY PREDICTED BY IDOCK:    2.93 KCAL/MOL
REMARK 922        TOTAL FREE ENERGY PREDICTED BY IDOCK:    3.41 KCAL/MOL
REMARK 923 INTER-LIGAND FREE ENERGY PREDICTED BY IDOCK:    2.25 KCAL/MOL
REMARK 924 INTRA-LIGAND FREE ENERGY PREDICTED BY IDOCK:    1.16 KCAL/MOL
REMARK 927      BINDING AFFINITY PREDICTED BY RF-SCORE:    0.00 PKD
ROOT
HETATM    1  C   UNL     1     -12.512  10.329  65.965  1.00  0.00     7.200 C  
HETATM    2  C   UNL     1     -11.031  10.674  66.190  1.00  0.00     0.015 C  
HETATM    3  C   UNL     1     -10.353   9.400  66.696  1.00  0.00    -0.214 C  
HETATM    4  N   UNL     1      -8.912   9.428  67.035  1.00  0.00    -0.129 NA 
HETATM    5  C   UNL     1      -8.528  10.672  67.703  1.00  0.00    -0.118 C  
HETATM    6  O   UNL     1     -11.214  13.207  65.022  1.00  0.00    -0.290 OA 
HETATM    7  O   UNL     1     -11.271  14.323  66.957  1.00  0.00    -0.303 OA 
HETATM    8  C   UNL     1      -9.149  11.957  67.120  1.00  0.00    -0.178 C  
HETATM    9  C   UNL     1     -11.105  13.187  66.249  1.00  0.00    -0.287 C  
HETATM   10  C   UNL     1     -10.709  11.933  67.070  1.00  0.00    -0.280 C  
ENDROOT
BRANCH   4  11
HETATM   11  C   UNL     1      -8.638   8.222  67.884  1.00  0.00    -0.132 C  
HETATM   12  C   UNL     1      -6.363   8.906  68.789  1.00  0.00    -0.049 C  
HETATM   13  C   UNL     1      -6.776   8.719  70.266  1.00  0.00    -0.041 C  
HETATM   14  C   UNL     1      -9.164   8.224  69.339  1.00  0.00    -0.155 C  
HETATM   15  C   UNL     1      -8.304   8.966  70.370  1.00  0.00    -0.160 C  
HETATM   16  C   UNL     1      -7.128   7.908  67.911  1.00  0.00    -0.086 C  
BRANCH  13  17
HETATM   17  C   UNL     1      -6.258   7.308  70.716  1.00  0.00    -0.035 A  
HETATM   18  C   UNL     1      -5.329   5.131  70.044  1.00  0.00    -0.004 A  
HETATM   19  C   UNL     1      -6.414   6.791  72.015  1.00  0.00    -0.053 A  
HETATM   20  F   UNL     1      -5.295   3.355  71.589  1.00  0.00    -0.003 F  
HETATM   21  C   UNL     1      -6.090   5.460  72.304  1.00  0.00    -0.034 A  
HETATM   22  C   UNL     1      -5.567   4.637  71.314  1.00  0.00    -0.012 A  
HETATM   23  C   UNL     1      -5.662   6.454  69.750  1.00  0.00    -0.014 A  
ENDBRANCH  13  17
BRANCH  13  24
HETATM   24  C   UNL     1      -6.088   9.722  71.178  1.00  0.00    -0.038 C  
HETATM   25  H2  UNL     1      -5.584  10.044  72.816  1.00  0.00     0.000 HD 
HETATM   26  N   UNL     1      -5.517  10.553  71.935  1.00  0.00    -0.316 NA 
HETATM   27  H1  UNL     1      -5.055  11.226  72.546  1.00  0.00     0.000 HD 
ENDBRANCH  13  24
ENDBRANCH   4  11
BRANCH  10  28
HETATM   28  C   UNL     1     -11.364  11.953  68.484  1.00  0.00    -0.329 A  
HETATM   29  C   UNL     1     -11.465  13.123  69.265  1.00  0.00    -0.348 A  
HETATM   30  C   UNL     1     -11.957  10.802  69.033  1.00  0.00    -0.258 A  
HETATM   31  C   UNL     1     -12.439  11.928  71.121  1.00  0.00    -0.365 A  
HETATM   32  C   UNL     1     -11.965  13.109  70.571  1.00  0.00    -0.303 A  
HETATM   33  C   UNL     1     -12.462  10.781  70.339  1.00  0.00    -0.430 A  
ENDBRANCH  10  28
TORSDOF 4
ENDMDL
MODEL      119
REMARK 921   NORMALIZED FREE ENERGY PREDICTED BY IDOCK:    3.39 KCAL/MOL
REMARK 922        TOTAL FREE ENERGY PREDICTED BY IDOCK:    3.98 KCAL/MOL
REMARK 923 INTER-LIGAND FREE ENERGY PREDICTED BY IDOCK:    3.17 KCAL/MOL
REMARK 924 INTRA-LIGAND FREE ENERGY PREDICTED BY IDOCK:    0.81 KCAL/MOL
REMARK 927      BINDING AFFINITY PREDICTED BY RF-SCORE:    0.00 PKD
ROOT
HETATM    1  C   UNL     1      -5.835  13.318  66.855  1.00  0.00     1.142 C  
HETATM    2  C   UNL     1      -7.230  12.789  67.225  1.00  0.00    -0.088 C  
HETATM    3  C   UNL     1      -8.102  14.012  67.518  1.00  0.00    -0.186 C  
HETATM    4  N   UNL     1      -9.509  13.819  67.938  1.00  0.00    -0.207 NA 
HETATM    5  C   UNL     1      -9.660  12.684  68.850  1.00  0.00     0.234 C  
HETATM    6  O   UNL     1      -6.650  10.140  66.549  1.00  0.00    -0.071 OA 
HETATM    7  O   UNL     1      -6.358   9.450  68.654  1.00  0.00    -0.048 OA 
HETATM    8  C   UNL     1      -8.845  11.427  68.487  1.00  0.00    -0.151 C  
HETATM    9  C   UNL     1      -6.731  10.382  67.754  1.00  0.00    -0.070 C  
HETATM   10  C   UNL     1      -7.313  11.693  68.345  1.00  0.00    -0.096 C  
ENDROOT
BRANCH   4  11
HETATM   11  C   UNL     1      -9.962  15.107  68.558  1.00  0.00    -0.223 C  
HETATM   12  C   UNL     1      -7.839  16.462  68.207  1.00  0.00    -0.168 C  
HETATM   13  C   UNL     1      -8.568  17.616  67.482  1.00  0.00    -0.222 C  
HETATM   14  C   UNL     1     -10.703  16.125  67.658  1.00  0.00    -0.318 C  
HETATM   15  C   UNL     1      -9.821  17.024  66.783  1.00  0.00    -0.283 C  
HETATM   16  C   UNL     1      -8.780  15.828  69.240  1.00  0.00    -0.261 C  
BRANCH  13  17
HETATM   17  C   UNL     1      -8.821  18.743  68.543  1.00  0.00    -0.378 A  
HETATM   18  C   UNL     1      -7.926  20.060  70.419  1.00  0.00     1.194 A  
HETATM   19  C   UNL     1     -10.083  19.306  68.806  1.00  0.00    -0.477 A  
HETATM   20  F   UNL     1      -9.394  21.339  71.744  1.00  0.00     0.968 F  
HETATM   21  C   UNL     1     -10.271  20.178  69.886  1.00  0.00     0.319 A  
HETATM   22  C   UNL     1      -9.197  20.535  70.692  1.00  0.00     1.905 A  
HETATM   23  C   UNL     1      -7.739  19.182  69.351  1.00  0.00    -0.041 A  
ENDBRANCH  13  17
BRANCH  13  24
HETATM   24  C   UNL     1      -7.700  18.247  66.407  1.00  0.00    -0.257 C  
HETATM   25  H2  UNL     1      -7.617  18.688  64.721  1.00  0.00     0.000 HD 
HETATM   26  N   UNL     1      -6.980  18.771  65.514  1.00  0.00    -0.487 NA 
HETATM   27  H1  UNL     1      -6.397  19.194  64.792  1.00  0.00     0.000 HD 
ENDBRANCH  13  24
ENDBRANCH   4  11
BRANCH  10  28
HETATM   28  C   UNL     1      -6.630  12.056  69.697  1.00  0.00    -0.043 A  
HETATM   29  C   UNL     1      -6.329  11.096  70.685  1.00  0.00     0.198 A  
HETATM   30  C   UNL     1      -6.212  13.369  69.976  1.00  0.00    -0.089 A  
HETATM   31  C   UNL     1      -5.511  12.773  72.216  1.00  0.00     0.450 A  
HETATM   32  C   UNL     1      -5.806  11.448  71.934  1.00  0.00     1.133 A  
HETATM   33  C   UNL     1      -5.685  13.729  71.224  1.00  0.00    -0.210 A  
ENDBRANCH  10  28
TORSDOF 4
ENDMDL
MODEL      120
REMARK 921   NORMALIZED FREE ENERGY PREDICTED BY IDOCK:    3.41 KCAL/MOL
REMARK 922        TOTAL FREE ENERGY PREDICTED BY IDOCK:    4.00 KCAL/MOL
REMARK 923 INTER-LIGAND FREE ENERGY PREDICTED BY IDOCK:    3.77 KCAL/MOL
REMARK 924 INTRA-LIGAND FREE ENERGY PREDICTED BY IDOCK:    0.23 KCAL/MOL
REMARK 927      BINDING AFFINITY PREDICTED BY RF-SCORE:    0.00 PKD
ROOT
HETATM    1  C   UNL     1      -5.823  14.774  69.542  1.00  0.00    -0.102 C  
HETATM    2  C   UNL     1      -7.316  14.795  69.177  1.00  0.00    -0.151 C  
HETATM    3  C   UNL     1      -7.569  13.579  68.283  1.00  0.00    -0.135 C  
HETATM    4  N   UNL     1      -8.926  13.344  67.740  1.00  0.00    -0.194 NA 
HETATM    5  C   UNL     1      -9.580  14.590  67.336  1.00  0.00    -0.212 C  
HETATM    6  O   UNL     1      -7.943  16.881  70.929  1.00  0.00     4.126 OA 
HETATM    7  O   UNL     1      -8.030  18.457  69.348  1.00  0.00     0.073 OA 
HETATM    8  C   UNL     1      -9.392  15.780  68.298  1.00  0.00    -0.193 C  
HETATM    9  C   UNL     1      -7.936  17.168  69.731  1.00  0.00     1.043 C  
HETATM   10  C   UNL     1      -7.897  16.126  68.583  1.00  0.00    -0.188 C  
ENDROOT
BRANCH   4  11
HETATM   11  C   UNL     1      -8.781  12.385  66.597  1.00  0.00    -0.119 C  
HETATM   12  C   UNL     1      -6.844  11.009  67.501  1.00  0.00    -0.084 C  
HETATM   13  C   UNL     1      -7.586   9.663  67.340  1.00  0.00    -0.095 C  
HETATM   14  C   UNL     1      -9.641  11.099  66.614  1.00  0.00    -0.215 C  
HETATM   15  C   UNL     1      -9.108   9.940  67.465  1.00  0.00    -0.145 C  
HETATM   16  C   UNL     1      -7.303  11.983  66.409  1.00  0.00     0.392 C  
BRANCH  13  17
HETATM   17  C   UNL     1      -7.095   9.021  65.996  1.00  0.00    -0.085 A  
HETATM   18  C   UNL     1      -7.701   7.881  63.901  1.00  0.00    -0.138 A  
HETATM   19  C   UNL     1      -5.746   8.759  65.696  1.00  0.00    -0.050 A  
HETATM   20  F   UNL     1      -6.023   6.844  62.615  1.00  0.00    -0.036 F  
HETATM   21  C   UNL     1      -5.390   8.024  64.559  1.00  0.00    -0.036 A  
HETATM   22  C   UNL     1      -6.369   7.578  63.680  1.00  0.00    -0.053 A  
HETATM   23  C   UNL     1      -8.059   8.603  65.040  1.00  0.00    -0.143 A  
ENDBRANCH  13  17
BRANCH  13  24
HETATM   24  C   UNL     1      -7.210   8.675  68.432  1.00  0.00    -0.085 C  
HETATM   25  H2  UNL     1      -7.720   7.952  69.935  1.00  0.00     0.000 HD 
HETATM   26  N   UNL     1      -6.898   7.856  69.338  1.00  0.00    -0.046 NA 
HETATM   27  H1  UNL     1      -6.646   7.193  70.071  1.00  0.00     0.000 HD 
ENDBRANCH  13  24
ENDBRANCH   4  11
BRANCH  10  28
HETATM   28  C   UNL     1      -7.153  16.688  67.335  1.00  0.00    -0.189 A  
HETATM   29  C   UNL     1      -5.853  16.282  66.970  1.00  0.00    -0.019 A  
HETATM   30  C   UNL     1      -7.777  17.593  66.457  1.00  0.00    -0.305 A  
HETATM   31  C   UNL     1      -5.767  17.840  65.129  1.00  0.00     0.247 A  
HETATM   32  C   UNL     1      -5.158  16.867  65.906  1.00  0.00     0.741 A  
HETATM   33  C   UNL     1      -7.088  18.181  65.387  1.00  0.00     0.162 A  
ENDBRANCH  10  28
TORSDOF 4
ENDMDL
MODEL      121
REMARK 921   NORMALIZED FREE ENERGY PREDICTED BY IDOCK:    3.60 KCAL/MOL
REMARK 922        TOTAL FREE ENERGY PREDICTED BY IDOCK:    4.24 KCAL/MOL
REMARK 923 INTER-LIGAND FREE ENERGY PREDICTED BY IDOCK:    3.67 KCAL/MOL
REMARK 924 INTRA-LIGAND FREE ENERGY PREDICTED BY IDOCK:    0.57 KCAL/MOL
REMARK 927      BINDING AFFINITY PREDICTED BY RF-SCORE:    0.00 PKD
ROOT
HETATM    1  C   UNL     1     -12.338  17.238  67.855  1.00  0.00     2.898 C  
HETATM    2  C   UNL     1     -11.005  16.633  68.323  1.00  0.00    -0.341 C  
HETATM    3  C   UNL     1     -10.761  15.388  67.467  1.00  0.00    -0.295 C  
HETATM    4  N   UNL     1      -9.555  14.564  67.708  1.00  0.00    -0.212 NA 
HETATM    5  C   UNL     1      -9.251  14.437  69.134  1.00  0.00     0.083 C  
HETATM    6  O   UNL     1     -10.359  18.781  69.990  1.00  0.00     0.574 OA 
HETATM    7  O   UNL     1     -10.938  17.751  71.887  1.00  0.00     1.460 OA 
HETATM    8  C   UNL     1      -9.412  15.726  69.965  1.00  0.00     0.200 C  
HETATM    9  C   UNL     1     -10.705  17.744  70.558  1.00  0.00     1.646 C  
HETATM   10  C   UNL     1     -10.832  16.366  69.860  1.00  0.00    -0.333 C  
ENDROOT
BRANCH   4  11
HETATM   11  C   UNL     1      -9.796  13.234  67.061  1.00  0.00    -0.242 C  
HETATM   12  C   UNL     1      -7.377  12.554  66.677  1.00  0.00     0.461 C  
HETATM   13  C   UNL     1      -7.530  11.200  67.406  1.00  0.00    -0.109 C  
HETATM   14  C   UNL     1      -9.948  11.997  67.978  1.00  0.00    -0.197 C  
HETATM   15  C   UNL     1      -8.646  11.357  68.473  1.00  0.00    -0.150 C  
HETATM   16  C   UNL     1      -8.705  12.933  66.011  1.00  0.00     0.545 C  
BRANCH  13  17
HETATM   17  C   UNL     1      -7.755  10.106  66.306  1.00  0.00    -0.110 A  
HETATM   18  C   UNL     1      -9.247   8.387  65.369  1.00  0.00     0.023 A  
HETATM   19  C   UNL     1      -6.749   9.642  65.440  1.00  0.00    -0.090 A  
HETATM   20  F   UNL     1      -8.399   6.837  63.812  1.00  0.00    -0.083 F  
HETATM   21  C   UNL     1      -6.969   8.540  64.604  1.00  0.00    -0.073 A  
HETATM   22  C   UNL     1      -8.208   7.912  64.587  1.00  0.00    -0.091 A  
HETATM   23  C   UNL     1      -9.026   9.477  66.212  1.00  0.00    -0.188 A  
ENDBRANCH  13  17
BRANCH  13  24
HETATM   24  C   UNL     1      -6.255  10.801  68.132  1.00  0.00    -0.057 C  
HETATM   25  H2  UNL     1      -4.512  10.836  68.072  1.00  0.00     0.000 HD 
HETATM   26  N   UNL     1      -5.198  10.471  68.733  1.00  0.00    -0.042 NA 
HETATM   27  H1  UNL     1      -4.343  10.203  69.221  1.00  0.00     0.000 HD 
ENDBRANCH  13  24
ENDBRANCH   4  11
BRANCH  10  28
HETATM   28  C   UNL     1     -11.942  15.496  70.523  1.00  0.00    -0.406 A  
HETATM   29  C   UNL     1     -12.500  15.797  71.782  1.00  0.00    -0.524 A  
HETATM   30  C   UNL     1     -12.500  14.389  69.858  1.00  0.00    -0.311 A  
HETATM   31  C   UNL     1     -13.867  13.808  71.769  1.00  0.00    -0.409 A  
HETATM   32  C   UNL     1     -13.424  14.954  72.410  1.00  0.00    -0.528 A  
HETATM   33  C   UNL     1     -13.427  13.543  70.479  1.00  0.00     0.570 A  
ENDBRANCH  10  28
TORSDOF 4
ENDMDL
MODEL      122
REMARK 921   NORMALIZED FREE ENERGY PREDICTED BY IDOCK:    3.87 KCAL/MOL
REMARK 922        TOTAL FREE ENERGY PREDICTED BY IDOCK:    4.57 KCAL/MOL
REMARK 923 INTER-LIGAND FREE ENERGY PREDICTED BY IDOCK:    3.81 KCAL/MOL
REMARK 924 INTRA-LIGAND FREE ENERGY PREDICTED BY IDOCK:    0.76 KCAL/MOL
REMARK 927      BINDING AFFINITY PREDICTED BY RF-SCORE:    0.00 PKD
ROOT
HETATM    1  C   UNL     1     -12.937  11.720  68.097  1.00  0.00     3.381 C  
HETATM    2  C   UNL     1     -11.608  11.598  68.860  1.00  0.00    -0.377 C  
HETATM    3  C   UNL     1     -10.869  10.395  68.271  1.00  0.00    -0.254 C  
HETATM    4  N   UNL     1      -9.556  10.003  68.830  1.00  0.00    -0.162 NA 
HETATM    5  C   UNL     1      -9.515  10.135  70.287  1.00  0.00     0.163 C  
HETATM    6  O   UNL     1     -11.916  14.016  70.228  1.00  0.00    -0.305 OA 
HETATM    7  O   UNL     1     -12.553  13.083  72.155  1.00  0.00    -0.040 OA 
HETATM    8  C   UNL     1     -10.183  11.402  70.857  1.00  0.00     4.070 C  
HETATM    9  C   UNL     1     -12.069  12.995  70.899  1.00  0.00    -0.090 C  
HETATM   10  C   UNL     1     -11.674  11.572  70.428  1.00  0.00    -0.328 C  
ENDROOT
BRANCH   4  11
HETATM   11  C   UNL     1      -9.292   8.596  68.382  1.00  0.00    -0.138 C  
HETATM   12  C   UNL     1      -8.806   7.562  70.654  1.00  0.00    -0.146 C  
HETATM   13  C   UNL     1      -9.860   6.444  70.489  1.00  0.00    -0.207 C  
HETATM   14  C   UNL     1     -10.498   7.635  68.257  1.00  0.00    -0.219 C  
HETATM   15  C   UNL     1     -10.979   6.978  69.556  1.00  0.00    -0.251 C  
HETATM   16  C   UNL     1      -8.228   7.930  69.281  1.00  0.00    -0.128 C  
BRANCH  13  17
HETATM   17  C   UNL     1      -9.101   5.158  70.014  1.00  0.00    -0.163 A  
HETATM   18  C   UNL     1      -7.150   4.216  68.844  1.00  0.00    -0.051 A  
HETATM   19  C   UNL     1      -9.647   3.862  70.054  1.00  0.00    -0.269 A  
HETATM   20  F   UNL     1      -7.150   1.942  68.232  1.00  0.00    -0.038 F  
HETATM   21  C   UNL     1      -8.988   2.783  69.451  1.00  0.00    -0.171 A  
HETATM   22  C   UNL     1      -7.755   2.971  68.838  1.00  0.00    -0.047 A  
HETATM   23  C   UNL     1      -7.811   5.295  69.434  1.00  0.00    -0.088 A  
ENDBRANCH  13  17
BRANCH  13  24
HETATM   24  C   UNL     1     -10.507   6.077  71.815  1.00  0.00    -0.221 C  
HETATM   25  H2  UNL     1     -10.277   6.020  73.543  1.00  0.00     0.000 HD 
HETATM   26  N   UNL     1     -11.043   5.773  72.915  1.00  0.00    -0.273 NA 
HETATM   27  H1  UNL     1     -11.477   5.527  73.804  1.00  0.00     0.000 HD 
ENDBRANCH  13  24
ENDBRANCH   4  11
BRANCH  10  28
HETATM   28  C   UNL     1     -12.612  10.491  71.045  1.00  0.00    -0.499 A  
HETATM   29  C   UNL     1     -12.629  10.188  72.422  1.00  0.00     0.166 A  
HETATM   30  C   UNL     1     -13.552   9.801  70.258  1.00  0.00     0.663 A  
HETATM   31  C   UNL     1     -14.235   8.413  72.120  1.00  0.00    -0.486 A  
HETATM   32  C   UNL     1     -13.403   9.148  72.949  1.00  0.00    -0.023 A  
HETATM   33  C   UNL     1     -14.332   8.761  70.779  1.00  0.00     0.335 A  
ENDBRANCH  10  28
TORSDOF 4
ENDMDL
MODEL      123
REMARK 921   NORMALIZED FREE ENERGY PREDICTED BY IDOCK:    3.91 KCAL/MOL
REMARK 922        TOTAL FREE ENERGY PREDICTED BY IDOCK:    4.62 KCAL/MOL
REMARK 923 INTER-LIGAND FREE ENERGY PREDICTED BY IDOCK:    3.92 KCAL/MOL
REMARK 924 INTRA-LIGAND FREE ENERGY PREDICTED BY IDOCK:    0.69 KCAL/MOL
REMARK 927      BINDING AFFINITY PREDICTED BY RF-SCORE:    0.00 PKD
ROOT
HETATM    1  C   UNL     1      -8.499  13.272  65.239  1.00  0.00     2.871 C  
HETATM    2  C   UNL     1      -9.147  13.424  66.625  1.00  0.00    -0.180 C  
HETATM    3  C   UNL     1      -9.111  12.042  67.282  1.00  0.00    -0.178 C  
HETATM    4  N   UNL     1      -9.698  11.862  68.629  1.00  0.00    -0.155 NA 
HETATM    5  C   UNL     1     -10.936  12.625  68.796  1.00  0.00    -0.249 C  
HETATM    6  O   UNL     1      -9.305  16.211  66.492  1.00  0.00    -0.229 OA 
HETATM    7  O   UNL     1     -11.484  16.270  66.000  1.00  0.00     0.311 OA 
HETATM    8  C   UNL     1     -10.921  14.050  68.210  1.00  0.00    -0.272 C  
HETATM    9  C   UNL     1     -10.371  15.605  66.372  1.00  0.00    -0.296 C  
HETATM   10  C   UNL     1     -10.561  14.100  66.692  1.00  0.00    -0.278 C  
ENDROOT
BRANCH   4  11
HETATM   11  C   UNL     1      -9.911  10.390  68.820  1.00  0.00    -0.188 C  
HETATM   12  C   UNL     1     -10.410  10.401  71.313  1.00  0.00     1.681 C  
HETATM   13  C   UNL     1     -11.749   9.646  71.157  1.00  0.00    -0.450 C  
HETATM   14  C   UNL     1     -11.333   9.825  68.587  1.00  0.00     0.024 C  
HETATM   15  C   UNL     1     -12.320   9.973  69.752  1.00  0.00     0.196 C  
HETATM   16  C   UNL     1      -9.434   9.949  70.220  1.00  0.00    -0.162 C  
BRANCH  13  17
HETATM   17  C   UNL     1     -11.467   8.135  71.469  1.00  0.00    -0.310 A  
HETATM   18  C   UNL     1     -11.093   5.871  70.580  1.00  0.00    -0.347 A  
HETATM   19  C   UNL     1     -11.543   7.570  72.755  1.00  0.00    -0.299 A  
HETATM   20  F   UNL     1     -11.202   4.020  72.032  1.00  0.00     0.185 F  
HETATM   21  C   UNL     1     -11.455   6.185  72.939  1.00  0.00    -0.148 A  
HETATM   22  C   UNL     1     -11.247   5.346  71.851  1.00  0.00    -0.056 A  
HETATM   23  C   UNL     1     -11.191   7.250  70.392  1.00  0.00    -0.302 A  
ENDBRANCH  13  17
BRANCH  13  24
HETATM   24  C   UNL     1     -12.775  10.096  72.184  1.00  0.00    -0.225 C  
HETATM   25  H2  UNL     1     -13.816   9.570  73.481  1.00  0.00     0.000 HD 
HETATM   26  N   UNL     1     -13.627  10.468  73.035  1.00  0.00     0.673 NA 
HETATM   27  H1  UNL     1     -14.316  10.770  73.724  1.00  0.00     0.000 HD 
ENDBRANCH  13  24
ENDBRANCH   4  11
BRANCH  10  28
HETATM   28  C   UNL     1     -11.656  13.463  65.784  1.00  0.00    -0.358 A  
HETATM   29  C   UNL     1     -11.452  12.273  65.057  1.00  0.00    -0.386 A  
HETATM   30  C   UNL     1     -12.946  14.017  65.697  1.00  0.00    -0.337 A  
HETATM   31  C   UNL     1     -13.629  12.404  64.025  1.00  0.00     1.022 A  
HETATM   32  C   UNL     1     -12.408  11.766  64.170  1.00  0.00    -0.268 A  
HETATM   33  C   UNL     1     -13.909  13.513  64.812  1.00  0.00     2.632 A  
ENDBRANCH  10  28
TORSDOF 4
ENDMDL
MODEL      124
REMARK 921   NORMALIZED FREE ENERGY PREDICTED BY IDOCK:    3.94 KCAL/MOL
REMARK 922        TOTAL FREE ENERGY PREDICTED BY IDOCK:    4.66 KCAL/MOL
REMARK 923 INTER-LIGAND FREE ENERGY PREDICTED BY IDOCK:   -1.50 KCAL/MOL
REMARK 924 INTRA-LIGAND FREE ENERGY PREDICTED BY IDOCK:    6.16 KCAL/MOL
REMARK 927      BINDING AFFINITY PREDICTED BY RF-SCORE:    0.00 PKD
ROOT
HETATM    1  C   UNL     1      -7.910  10.541  67.727  1.00  0.00    -0.104 C  
HETATM    2  C   UNL     1      -8.991  10.876  66.687  1.00  0.00    -0.173 C  
HETATM    3  C   UNL     1      -8.719  12.306  66.213  1.00  0.00     0.062 C  
HETATM    4  N   UNL     1      -9.624  12.927  65.220  1.00  0.00     0.031 NA 
HETATM    5  C   UNL     1     -11.026  12.582  65.461  1.00  0.00    -0.287 C  
HETATM    6  O   UNL     1     -10.010   8.276  66.580  1.00  0.00    -0.247 OA 
HETATM    7  O   UNL     1     -11.792   8.701  67.860  1.00  0.00     1.924 OA 
HETATM    8  C   UNL     1     -11.291  11.113  65.846  1.00  0.00     0.108 C  
HETATM    9  C   UNL     1     -10.711   9.105  67.161  1.00  0.00    -0.143 C  
HETATM   10  C   UNL     1     -10.486  10.638  67.097  1.00  0.00    -0.295 C  
ENDROOT
BRANCH   4  11
HETATM   11  C   UNL     1      -9.388  14.407  65.278  1.00  0.00     0.631 C  
HETATM   12  C   UNL     1     -11.375  15.050  66.727  1.00  0.00    -0.293 C  
HETATM   13  C   UNL     1     -10.511  15.795  67.769  1.00  0.00    -0.283 C  
HETATM   14  C   UNL     1      -8.461  14.952  66.392  1.00  0.00     0.099 C  
HETATM   15  C   UNL     1      -9.101  15.145  67.771  1.00  0.00    -0.179 C  
HETATM   16  C   UNL     1     -10.728  15.169  65.342  1.00  0.00    -0.396 C  
BRANCH  13  17
HETATM   17  C   UNL     1     -10.581  17.323  67.422  1.00  0.00    -0.303 A  
HETATM   18  C   UNL     1      -9.939  19.128  65.878  1.00  0.00    -0.245 A  
HETATM   19  C   UNL     1     -11.070  18.307  68.300  1.00  0.00     0.418 A  
HETATM   20  F   UNL     1     -10.210  21.372  66.538  1.00  0.00     0.284 F  
HETATM   21  C   UNL     1     -10.941  19.669  67.999  1.00  0.00     0.014 A  
HETATM   22  C   UNL     1     -10.363  20.068  66.801  1.00  0.00    -0.436 A  
HETATM   23  C   UNL     1     -10.055  17.771  66.180  1.00  0.00    -0.308 A  
ENDBRANCH  13  17
BRANCH  13  24
HETATM   24  C   UNL     1     -11.077  15.663  69.173  1.00  0.00    -0.284 C  
HETATM   25  H2  UNL     1     -12.450  15.133  70.111  1.00  0.00     0.000 HD 
HETATM   26  N   UNL     1     -11.548  15.554  70.338  1.00  0.00    -0.304 NA 
HETATM   27  H1  UNL     1     -11.928  15.465  71.280  1.00  0.00     0.000 HD 
ENDBRANCH  13  24
ENDBRANCH   4  11
BRANCH  10  28
HETATM   28  C   UNL     1     -10.944  11.332  68.415  1.00  0.00    -0.268 A  
HETATM   29  C   UNL     1     -11.780  10.705  69.361  1.00  0.00    -0.344 A  
HETATM   30  C   UNL     1     -10.484  12.615  68.764  1.00  0.00    -0.167 A  
HETATM   31  C   UNL     1     -11.876  12.680  70.744  1.00  0.00     0.128 A  
HETATM   32  C   UNL     1     -12.263  11.374  70.490  1.00  0.00    -0.478 A  
HETATM   33  C   UNL     1     -10.961  13.290  69.895  1.00  0.00     0.335 A  
ENDBRANCH  10  28
TORSDOF 4
ENDMDL
MODEL      125
REMARK 921   NORMALIZED FREE ENERGY PREDICTED BY IDOCK:    4.70 KCAL/MOL
REMARK 922        TOTAL FREE ENERGY PREDICTED BY IDOCK:    5.59 KCAL/MOL
REMARK 923 INTER-LIGAND FREE ENERGY PREDICTED BY IDOCK:    4.31 KCAL/MOL
REMARK 924 INTRA-LIGAND FREE ENERGY PREDICTED BY IDOCK:    1.28 KCAL/MOL
REMARK 927      BINDING AFFINITY PREDICTED BY RF-SCORE:    0.00 PKD
ROOT
HETATM    1  C   UNL     1      -7.524  11.126  64.269  1.00  0.00     0.981 C  
HETATM    2  C   UNL     1      -8.694  10.838  65.223  1.00  0.00    -0.183 C  
HETATM    3  C   UNL     1      -8.737  11.991  66.229  1.00  0.00    -0.027 C  
HETATM    4  N   UNL     1      -9.751  11.978  67.307  1.00  0.00    -0.184 NA 
HETATM    5  C   UNL     1      -9.957  10.636  67.854  1.00  0.00    -0.166 C  
HETATM    6  O   UNL     1      -9.657   8.670  63.746  1.00  0.00     1.374 OA 
HETATM    7  O   UNL     1      -8.803   7.106  65.094  1.00  0.00     0.065 OA 
HETATM    8  C   UNL     1     -10.005   9.497  66.816  1.00  0.00    -0.297 C  
HETATM    9  C   UNL     1      -9.094   8.391  64.805  1.00  0.00     0.418 C  
HETATM   10  C   UNL     1      -8.740   9.426  65.905  1.00  0.00    -0.177 C  
ENDROOT
BRANCH   4  11
HETATM   11  C   UNL     1      -9.292  12.950  68.352  1.00  0.00    -0.147 C  
HETATM   12  C   UNL     1      -7.196  13.796  67.187  1.00  0.00     0.206 C  
HETATM   13  C   UNL     1      -7.607  15.281  67.295  1.00  0.00    -0.244 C  
HETATM   14  C   UNL     1      -9.847  14.393  68.297  1.00  0.00    -0.229 C  
HETATM   15  C   UNL     1      -9.158  15.347  67.314  1.00  0.00    -0.218 C  
HETATM   16  C   UNL     1      -7.750  13.021  68.389  1.00  0.00    -0.137 C  
BRANCH  13  17
HETATM   17  C   UNL     1      -6.862  15.879  68.538  1.00  0.00    -0.124 A  
HETATM   18  C   UNL     1      -6.097  15.545  70.853  1.00  0.00     0.319 A  
HETATM   19  C   UNL     1      -6.487  17.230  68.655  1.00  0.00    -0.178 A  
HETATM   20  F   UNL     1      -5.366  17.396  72.113  1.00  0.00    -0.073 F  
HETATM   21  C   UNL     1      -5.985  17.736  69.861  1.00  0.00    -0.216 A  
HETATM   22  C   UNL     1      -5.811  16.896  70.953  1.00  0.00     0.470 A  
HETATM   23  C   UNL     1      -6.608  15.041  69.657  1.00  0.00    -0.166 A  
ENDBRANCH  13  17
BRANCH  13  24
HETATM   24  C   UNL     1      -7.130  16.089  66.098  1.00  0.00     1.318 C  
HETATM   25  H2  UNL     1      -6.661  16.005  64.420  1.00  0.00     0.000 HD 
HETATM   26  N   UNL     1      -6.735  16.757  65.105  1.00  0.00     2.257 NA 
HETATM   27  H1  UNL     1      -6.415  17.299  64.303  1.00  0.00     0.000 HD 
ENDBRANCH  13  24
ENDBRANCH   4  11
BRANCH  10  28
HETATM   28  C   UNL     1      -7.454   9.009  66.680  1.00  0.00    -0.086 A  
HETATM   29  C   UNL     1      -6.253   8.650  66.035  1.00  0.00    -0.052 A  
HETATM   30  C   UNL     1      -7.406   9.035  68.086  1.00  0.00    -0.083 A  
HETATM   31  C   UNL     1      -5.166   8.115  68.122  1.00  0.00    -0.033 A  
HETATM   32  C   UNL     1      -5.137   8.182  66.738  1.00  0.00    -0.031 A  
HETATM   33  C   UNL     1      -6.291   8.571  68.797  1.00  0.00    -0.049 A  
ENDBRANCH  10  28
TORSDOF 4
ENDMDL
MODEL      126
REMARK 921   NORMALIZED FREE ENERGY PREDICTED BY IDOCK:    4.97 KCAL/MOL
REMARK 922        TOTAL FREE ENERGY PREDICTED BY IDOCK:    5.93 KCAL/MOL
REMARK 923 INTER-LIGAND FREE ENERGY PREDICTED BY IDOCK:    5.21 KCAL/MOL
REMARK 924 INTRA-LIGAND FREE ENERGY PREDICTED BY IDOCK:    0.72 KCAL/MOL
REMARK 927      BINDING AFFINITY PREDICTED BY RF-SCORE:    0.00 PKD
ROOT
HETATM    1  C   UNL     1      -8.943   9.336  63.893  1.00  0.00    -0.092 C  
HETATM    2  C   UNL     1      -7.471   9.060  64.243  1.00  0.00    -0.106 C  
HETATM    3  C   UNL     1      -7.463   7.884  65.222  1.00  0.00    -0.081 C  
HETATM    4  N   UNL     1      -6.175   7.402  65.770  1.00  0.00    -0.038 NA 
HETATM    5  C   UNL     1      -5.260   8.503  66.074  1.00  0.00    -0.027 C  
HETATM    6  O   UNL     1      -6.455  10.832  62.335  1.00  0.00    -0.141 OA 
HETATM    7  O   UNL     1      -5.994  12.461  63.793  1.00  0.00     5.180 OA 
HETATM    8  C   UNL     1      -5.212   9.635  65.028  1.00  0.00    -0.046 C  
HETATM    9  C   UNL     1      -6.371  11.198  63.508  1.00  0.00     0.938 C  
HETATM   10  C   UNL     1      -6.605  10.273  64.731  1.00  0.00    -0.097 C  
ENDROOT
BRANCH   4  11
HETATM   11  C   UNL     1      -6.495   6.581  66.983  1.00  0.00    -0.043 C  
HETATM   12  C   UNL     1      -8.920   6.039  66.445  1.00  0.00    -0.150 C  
HETATM   13  C   UNL     1      -8.722   4.513  66.591  1.00  0.00    -0.111 C  
HETATM   14  C   UNL     1      -6.194   5.064  66.932  1.00  0.00    -0.032 C  
HETATM   15  C   UNL     1      -7.246   4.188  66.241  1.00  0.00    -0.068 C  
HETATM   16  C   UNL     1      -7.968   6.774  67.398  1.00  0.00    -0.114 C  
BRANCH  13  17
HETATM   17  C   UNL     1      -9.208   4.119  68.029  1.00  0.00    -0.191 A  
HETATM   18  C   UNL     1     -10.027   2.345  69.525  1.00  0.00     0.541 A  
HETATM   19  C   UNL     1      -9.506   5.049  69.041  1.00  0.00    -0.194 A  
HETATM   20  F   UNL     1     -10.980   2.923  71.599  1.00  0.00     0.502 F  
HETATM   21  C   UNL     1     -10.104   4.642  70.240  1.00  0.00    -0.276 A  
HETATM   22  C   UNL     1     -10.374   3.298  70.466  1.00  0.00     1.116 A  
HETATM   23  C   UNL     1      -9.442   2.749  68.325  1.00  0.00    -0.216 A  
ENDBRANCH  13  17
BRANCH  13  24
HETATM   24  C   UNL     1      -9.603   3.734  65.628  1.00  0.00    -0.166 C  
HETATM   25  H2  UNL     1      -9.656   2.928  64.082  1.00  0.00     0.000 HD 
HETATM   26  N   UNL     1     -10.333   3.088  64.829  1.00  0.00    -0.369 NA 
HETATM   27  H1  UNL     1     -10.924   2.565  64.182  1.00  0.00     0.000 HD 
ENDBRANCH  13  24
ENDBRANCH   4  11
BRANCH  10  28
HETATM   28  C   UNL     1      -7.180  11.070  65.940  1.00  0.00     0.037 A  
HETATM   29  C   UNL     1      -8.508  11.543  65.984  1.00  0.00    -0.005 A  
HETATM   30  C   UNL     1      -6.412  11.303  67.095  1.00  0.00    -0.099 A  
HETATM   31  C   UNL     1      -8.157  12.645  68.102  1.00  0.00    -0.164 A  
HETATM   32  C   UNL     1      -8.982  12.341  67.030  1.00  0.00    -0.204 A  
HETATM   33  C   UNL     1      -6.881  12.099  68.148  1.00  0.00    -0.075 A  
ENDBRANCH  10  28
TORSDOF 4
ENDMDL
MODEL      127
REMARK 921   NORMALIZED FREE ENERGY PREDICTED BY IDOCK:    5.88 KCAL/MOL
REMARK 922        TOTAL FREE ENERGY PREDICTED BY IDOCK:    7.05 KCAL/MOL
REMARK 923 INTER-LIGAND FREE ENERGY PREDICTED BY IDOCK:    5.75 KCAL/MOL
REMARK 924 INTRA-LIGAND FREE ENERGY PREDICTED BY IDOCK:    1.30 KCAL/MOL
REMARK 927      BINDING AFFINITY PREDICTED BY RF-SCORE:    0.00 PKD
ROOT
HETATM    1  C   UNL     1     -13.649  11.332  68.891  1.00  0.00     5.223 C  
HETATM    2  C   UNL     1     -12.186  11.312  69.365  1.00  0.00    -0.315 C  
HETATM    3  C   UNL     1     -11.395  10.523  68.319  1.00  0.00    -0.264 C  
HETATM    4  N   UNL     1      -9.945  10.303  68.517  1.00  0.00    -0.159 NA 
HETATM    5  C   UNL     1      -9.615  10.031  69.917  1.00  0.00    -0.192 C  
HETATM    6  O   UNL     1     -12.605  13.116  71.457  1.00  0.00    -0.296 OA 
HETATM    7  O   UNL     1     -12.641  11.564  73.064  1.00  0.00     2.314 OA 
HETATM    8  C   UNL     1     -10.353  10.901  70.954  1.00  0.00     2.164 C  
HETATM    9  C   UNL     1     -12.432  11.942  71.786  1.00  0.00     0.112 C  
HETATM   10  C   UNL     1     -11.908  10.836  70.834  1.00  0.00    -0.400 C  
ENDROOT
BRANCH   4  11
HETATM   11  C   UNL     1      -9.545   9.176  67.613  1.00  0.00    -0.149 C  
HETATM   12  C   UNL     1      -8.240   7.786  69.295  1.00  0.00    -0.129 C  
HETATM   13  C   UNL     1      -9.053   6.501  69.025  1.00  0.00    -0.132 C  
HETATM   14  C   UNL     1     -10.522   7.985  67.460  1.00  0.00    -0.331 C  
HETATM   15  C   UNL     1     -10.474   6.924  68.565  1.00  0.00    -0.229 C  
HETATM   16  C   UNL     1      -8.160   8.623  68.012  1.00  0.00    -0.111 C  
BRANCH  13  17
HETATM   17  C   UNL     1      -8.220   5.627  68.025  1.00  0.00    -0.100 A  
HETATM   18  C   UNL     1      -6.091   4.491  67.543  1.00  0.00    -0.031 A  
HETATM   19  C   UNL     1      -8.615   5.353  66.703  1.00  0.00    -0.115 A  
HETATM   20  F   UNL     1      -5.647   3.734  65.358  1.00  0.00    -0.012 F  
HETATM   21  C   UNL     1      -7.745   4.717  65.808  1.00  0.00    -0.090 A  
HETATM   22  C   UNL     1      -6.486   4.307  66.230  1.00  0.00    -0.041 A  
HETATM   23  C   UNL     1      -6.952   5.134  68.433  1.00  0.00    -0.057 A  
ENDBRANCH  13  17
BRANCH  13  24
HETATM   24  C   UNL     1      -9.211   5.657  70.280  1.00  0.00    -0.151 C  
HETATM   25  H2  UNL     1     -10.252   5.300  71.633  1.00  0.00     0.000 HD 
HETATM   26  N   UNL     1      -9.343   4.958  71.320  1.00  0.00    -0.144 NA 
HETATM   27  H1  UNL     1      -9.449   4.392  72.162  1.00  0.00     0.000 HD 
ENDBRANCH  13  24
ENDBRANCH   4  11
BRANCH  10  28
HETATM   28  C   UNL     1     -12.491   9.441  71.213  1.00  0.00    -0.416 A  
HETATM   29  C   UNL     1     -12.260   8.281  70.446  1.00  0.00     0.374 A  
HETATM   30  C   UNL     1     -13.232   9.254  72.393  1.00  0.00    -0.501 A  
HETATM   31  C   UNL     1     -13.687   6.938  71.855  1.00  0.00    -0.188 A  
HETATM   32  C   UNL     1     -12.869   7.056  70.742  1.00  0.00    -0.069 A  
HETATM   33  C   UNL     1     -13.843   8.030  72.697  1.00  0.00     0.182 A  
ENDBRANCH  10  28
TORSDOF 4
ENDMDL
MODEL      128
REMARK 921   NORMALIZED FREE ENERGY PREDICTED BY IDOCK:    6.10 KCAL/MOL
REMARK 922        TOTAL FREE ENERGY PREDICTED BY IDOCK:    7.32 KCAL/MOL
REMARK 923 INTER-LIGAND FREE ENERGY PREDICTED BY IDOCK:    5.20 KCAL/MOL
REMARK 924 INTRA-LIGAND FREE ENERGY PREDICTED BY IDOCK:    2.11 KCAL/MOL
REMARK 927      BINDING AFFINITY PREDICTED BY RF-SCORE:    0.00 PKD
ROOT
HETATM    1  C   UNL     1      -6.381  16.375  69.765  1.00  0.00    -0.186 C  
HETATM    2  C   UNL     1      -7.847  16.567  69.345  1.00  0.00    -0.006 C  
HETATM    3  C   UNL     1      -8.252  15.310  68.572  1.00  0.00    -0.146 C  
HETATM    4  N   UNL     1      -9.616  15.213  68.005  1.00  0.00    -0.202 NA 
HETATM    5  C   UNL     1     -10.075  16.488  67.451  1.00  0.00    -0.279 C  
HETATM    6  O   UNL     1      -8.206  18.896  70.848  1.00  0.00     3.291 OA 
HETATM    7  O   UNL     1      -8.028  20.291  69.112  1.00  0.00     0.191 OA 
HETATM    8  C   UNL     1      -9.739  17.735  68.292  1.00  0.00    -0.320 C  
HETATM    9  C   UNL     1      -8.130  19.049  69.628  1.00  0.00     0.491 C  
HETATM   10  C   UNL     1      -8.216  17.895  68.596  1.00  0.00    -0.281 C  
ENDROOT
BRANCH   4  11
HETATM   11  C   UNL     1      -9.585  14.126  66.972  1.00  0.00    -0.262 C  
HETATM   12  C   UNL     1      -7.107  13.572  67.081  1.00  0.00     0.218 C  
HETATM   13  C   UNL     1      -7.345  12.066  67.334  1.00  0.00    -0.150 C  
HETATM   14  C   UNL     1      -9.880  12.678  67.432  1.00  0.00    -0.205 C  
HETATM   15  C   UNL     1      -8.708  11.915  68.061  1.00  0.00    -0.173 C  
HETATM   16  C   UNL     1      -8.241  14.134  66.215  1.00  0.00     1.047 C  
BRANCH  13  17
HETATM   17  C   UNL     1      -7.199  11.336  65.954  1.00  0.00     0.217 A  
HETATM   18  C   UNL     1      -7.901  11.194  63.599  1.00  0.00     0.689 A  
HETATM   19  C   UNL     1      -6.512  10.121  65.776  1.00  0.00    -0.107 A  
HETATM   20  F   UNL     1      -7.356   9.282  62.338  1.00  0.00    -0.106 F  
HETATM   21  C   UNL     1      -6.569   9.433  64.558  1.00  0.00    -0.089 A  
HETATM   22  C   UNL     1      -7.275   9.965  63.487  1.00  0.00    -0.126 A  
HETATM   23  C   UNL     1      -7.855  11.876  64.816  1.00  0.00     2.374 A  
ENDBRANCH  13  17
BRANCH  13  24
HETATM   24  C   UNL     1      -6.278  11.467  68.235  1.00  0.00    -0.045 C  
HETATM   25  H2  UNL     1      -5.179  10.129  68.445  1.00  0.00     0.000 HD 
HETATM   26  N   UNL     1      -5.392  10.970  68.981  1.00  0.00    -0.041 NA 
HETATM   27  H1  UNL     1      -4.676  10.568  69.586  1.00  0.00     0.000 HD 
ENDBRANCH  13  24
ENDBRANCH   4  11
BRANCH  10  28
HETATM   28  C   UNL     1      -7.371  18.210  67.325  1.00  0.00    -0.219 A  
HETATM   29  C   UNL     1      -7.154  19.522  66.854  1.00  0.00    -0.224 A  
HETATM   30  C   UNL     1      -6.715  17.191  66.611  1.00  0.00    -0.277 A  
HETATM   31  C   UNL     1      -5.941  18.742  64.920  1.00  0.00    -0.297 A  
HETATM   32  C   UNL     1      -6.478  19.784  65.658  1.00  0.00    -0.268 A  
HETATM   33  C   UNL     1      -6.034  17.447  65.413  1.00  0.00     0.693 A  
ENDBRANCH  10  28
TORSDOF 4
ENDMDL
MODEL      129
REMARK 921   NORMALIZED FREE ENERGY PREDICTED BY IDOCK:   12.01 KCAL/MOL
REMARK 922        TOTAL FREE ENERGY PREDICTED BY IDOCK:   14.62 KCAL/MOL
REMARK 923 INTER-LIGAND FREE ENERGY PREDICTED BY IDOCK:   15.10 KCAL/MOL
REMARK 924 INTRA-LIGAND FREE ENERGY PREDICTED BY IDOCK:   -0.48 KCAL/MOL
REMARK 927      BINDING AFFINITY PREDICTED BY RF-SCORE:    0.00 PKD
ROOT
HETATM    1  C   UNL     1     -13.763  11.716  69.599  1.00  0.00     4.028 C  
HETATM    2  C   UNL     1     -12.282  11.598  69.994  1.00  0.00    -0.338 C  
HETATM    3  C   UNL     1     -11.490  11.444  68.694  1.00  0.00    -0.296 C  
HETATM    4  N   UNL     1     -10.021  11.275  68.753  1.00  0.00    -0.207 NA 
HETATM    5  C   UNL     1      -9.609  10.417  69.865  1.00  0.00     0.069 C  
HETATM    6  O   UNL     1     -12.722  12.198  72.688  1.00  0.00     0.374 OA 
HETATM    7  O   UNL     1     -12.581  10.083  73.395  1.00  0.00     2.293 OA 
HETATM    8  C   UNL     1     -10.354  10.651  71.194  1.00  0.00     2.160 C  
HETATM    9  C   UNL     1     -12.457  11.022  72.435  1.00  0.00     1.281 C  
HETATM   10  C   UNL     1     -11.906  10.524  71.074  1.00  0.00    -0.438 C  
ENDROOT
BRANCH   4  11
HETATM   11  C   UNL     1      -9.589  10.727  67.426  1.00  0.00    -0.159 C  
HETATM   12  C   UNL     1      -8.390   8.642  68.250  1.00  0.00    -0.127 C  
HETATM   13  C   UNL     1      -9.206   7.687  67.349  1.00  0.00    -0.150 C  
HETATM   14  C   UNL     1     -10.572   9.803  66.667  1.00  0.00    -0.178 C  
HETATM   15  C   UNL     1     -10.595   8.334  67.104  1.00  0.00    -0.340 C  
HETATM   16  C   UNL     1      -8.234   9.999  67.553  1.00  0.00    -0.114 C  
BRANCH  13  17
HETATM   17  C   UNL     1      -8.333   7.390  66.081  1.00  0.00    -0.139 A  
HETATM   18  C   UNL     1      -6.234   6.478  65.177  1.00  0.00    -0.034 A  
HETATM   19  C   UNL     1      -8.620   7.885  64.796  1.00  0.00     0.076 A  
HETATM   20  F   UNL     1      -5.633   6.935  62.947  1.00  0.00    -0.029 F  
HETATM   21  C   UNL     1      -7.707   7.731  63.745  1.00  0.00    -0.123 A  
HETATM   22  C   UNL     1      -6.517   7.045  63.947  1.00  0.00    -0.043 A  
HETATM   23  C   UNL     1      -7.136   6.640  66.229  1.00  0.00    -0.067 A  
ENDBRANCH  13  17
BRANCH  13  24
HETATM   24  C   UNL     1      -9.439   6.341  68.016  1.00  0.00    -0.116 C  
HETATM   25  H2  UNL     1     -10.648   5.170  68.474  1.00  0.00     0.000 HD 
HETATM   26  N   UNL     1      -9.634   5.225  68.569  1.00  0.00    -0.128 NA 
HETATM   27  H1  UNL     1      -9.790   4.322  69.016  1.00  0.00     0.000 HD 
ENDBRANCH  13  24
ENDBRANCH   4  11
BRANCH  10  28
HETATM   28  C   UNL     1     -12.376   9.069  70.771  1.00  0.00    -0.064 A  
HETATM   29  C   UNL     1     -13.589   8.777  70.115  1.00  0.00     1.989 A  
HETATM   30  C   UNL     1     -11.570   7.960  71.083  1.00  0.00    -0.302 A  
HETATM   31  C   UNL     1     -13.273   6.398  70.362  1.00  0.00     2.235 A  
HETATM   32  C   UNL     1     -14.047   7.467  69.939  1.00  0.00     4.402 A  
HETATM   33  C   UNL     1     -12.020   6.645  70.906  1.00  0.00    -0.413 A  
ENDBRANCH  10  28
TORSDOF 4
ENDMDL
MODEL      130
REMARK 921   NORMALIZED FREE ENERGY PREDICTED BY IDOCK:   12.86 KCAL/MOL
REMARK 922        TOTAL FREE ENERGY PREDICTED BY IDOCK:   15.66 KCAL/MOL
REMARK 923 INTER-LIGAND FREE ENERGY PREDICTED BY IDOCK:   15.71 KCAL/MOL
REMARK 924 INTRA-LIGAND FREE ENERGY PREDICTED BY IDOCK:   -0.05 KCAL/MOL
REMARK 927      BINDING AFFINITY PREDICTED BY RF-SCORE:    0.00 PKD
ROOT
HETATM    1  C   UNL     1      -5.245  11.083  69.789  1.00  0.00    -0.043 C  
HETATM    2  C   UNL     1      -6.620  10.905  70.452  1.00  0.00     0.033 C  
HETATM    3  C   UNL     1      -7.107   9.501  70.088  1.00  0.00    -0.099 C  
HETATM    4  N   UNL     1      -8.433   9.044  70.562  1.00  0.00    -0.179 NA 
HETATM    5  C   UNL     1      -9.435  10.110  70.504  1.00  0.00     0.452 C  
HETATM    6  O   UNL     1      -6.472  13.282  71.915  1.00  0.00     1.023 OA 
HETATM    7  O   UNL     1      -7.814  14.443  70.557  1.00  0.00     0.972 OA 
HETATM    8  C   UNL     1      -8.952  11.500  70.965  1.00  0.00     8.077 C  
HETATM    9  C   UNL     1      -7.248  13.286  70.958  1.00  0.00     3.624 C  
HETATM   10  C   UNL     1      -7.698  12.015  70.192  1.00  0.00     2.348 C  
ENDROOT
BRANCH   4  11
HETATM   11  C   UNL     1      -8.815   7.863  69.722  1.00  0.00    -0.141 C  
HETATM   12  C   UNL     1      -7.444   6.087  70.918  1.00  0.00    -0.091 C  
HETATM   13  C   UNL     1      -8.655   5.157  71.151  1.00  0.00    -0.128 C  
HETATM   14  C   UNL     1     -10.088   7.075  70.113  1.00  0.00    -0.197 C  
HETATM   15  C   UNL     1      -9.927   6.042  71.235  1.00  0.00    -0.223 C  
HETATM   16  C   UNL     1      -7.640   6.869  69.613  1.00  0.00    -0.101 C  
BRANCH  13  17
HETATM   17  C   UNL     1      -8.627   4.069  70.022  1.00  0.00    -0.102 A  
HETATM   18  C   UNL     1      -7.307   2.895  68.308  1.00  0.00    -0.049 A  
HETATM   19  C   UNL     1      -9.776   3.447  69.501  1.00  0.00    -0.033 A  
HETATM   20  F   UNL     1      -8.409   1.598  66.681  1.00  0.00    -0.070 F  
HETATM   21  C   UNL     1      -9.698   2.617  68.375  1.00  0.00     0.070 A  
HETATM   22  C   UNL     1      -8.469   2.362  67.779  1.00  0.00    -0.083 A  
HETATM   23  C   UNL     1      -7.384   3.731  69.423  1.00  0.00    -0.052 A  
ENDBRANCH  13  17
BRANCH  13  24
HETATM   24  C   UNL     1      -8.540   4.396  72.462  1.00  0.00    -0.109 C  
HETATM   25  H2  UNL     1      -7.575   3.261  73.370  1.00  0.00     0.000 HD 
HETATM   26  N   UNL     1      -8.444   3.765  73.549  1.00  0.00    -0.087 NA 
HETATM   27  H1  UNL     1      -8.367   3.255  74.429  1.00  0.00     0.000 HD 
ENDBRANCH  13  24
ENDBRANCH   4  11
BRANCH  10  28
HETATM   28  C   UNL     1      -7.992  12.332  68.695  1.00  0.00    -0.050 A  
HETATM   29  C   UNL     1      -9.095  13.106  68.278  1.00  0.00    -0.181 A  
HETATM   30  C   UNL     1      -7.122  11.912  67.673  1.00  0.00    -0.112 A  
HETATM   31  C   UNL     1      -8.581  12.773  65.944  1.00  0.00     0.823 A  
HETATM   32  C   UNL     1      -9.404  13.299  66.928  1.00  0.00    -0.244 A  
HETATM   33  C   UNL     1      -7.423  12.105  66.318  1.00  0.00     0.667 A  
ENDBRANCH  10  28
TORSDOF 4
ENDMDL
MODEL      131
REMARK 921   NORMALIZED FREE ENERGY PREDICTED BY IDOCK:   18.23 KCAL/MOL
REMARK 922        TOTAL FREE ENERGY PREDICTED BY IDOCK:   22.28 KCAL/MOL
REMARK 923 INTER-LIGAND FREE ENERGY PREDICTED BY IDOCK:   20.54 KCAL/MOL
REMARK 924 INTRA-LIGAND FREE ENERGY PREDICTED BY IDOCK:    1.74 KCAL/MOL
REMARK 927      BINDING AFFINITY PREDICTED BY RF-SCORE:    0.00 PKD
ROOT
HETATM    1  C   UNL     1     -12.702  18.571  69.549  1.00  0.00    14.274 C  
HETATM    2  C   UNL     1     -11.382  17.814  69.768  1.00  0.00     2.248 C  
HETATM    3  C   UNL     1     -11.104  17.032  68.482  1.00  0.00    -0.156 C  
HETATM    4  N   UNL     1      -9.903  16.171  68.399  1.00  0.00    -0.218 NA 
HETATM    5  C   UNL     1      -9.645  15.463  69.654  1.00  0.00    -0.229 C  
HETATM    6  O   UNL     1     -10.802  19.074  72.194  1.00  0.00     2.427 OA 
HETATM    7  O   UNL     1     -11.439  17.358  73.475  1.00  0.00     0.283 OA 
HETATM    8  C   UNL     1      -9.840  16.295  70.937  1.00  0.00     2.106 C  
HETATM    9  C   UNL     1     -11.162  17.899  72.271  1.00  0.00     2.591 C  
HETATM   10  C   UNL     1     -11.259  16.934  71.061  1.00  0.00     0.553 C  
ENDROOT
BRANCH   4  11
HETATM   11  C   UNL     1     -10.116  15.230  67.252  1.00  0.00    -0.236 C  
HETATM   12  C   UNL     1      -9.029  13.161  68.253  1.00  0.00    -0.175 C  
HETATM   13  C   UNL     1     -10.269  12.268  68.025  1.00  0.00    -0.206 C  
HETATM   14  C   UNL     1     -11.448  14.444  67.196  1.00  0.00    -0.379 C  
HETATM   15  C   UNL     1     -11.526  13.179  68.060  1.00  0.00    -0.346 C  
HETATM   16  C   UNL     1      -8.950  14.224  67.150  1.00  0.00    -0.237 C  
BRANCH  13  17
HETATM   17  C   UNL     1     -10.022  11.460  66.705  1.00  0.00    -0.239 A  
HETATM   18  C   UNL     1      -9.696  11.524  64.266  1.00  0.00    -0.229 A  
HETATM   19  C   UNL     1     -10.112  10.059  66.612  1.00  0.00    -0.289 A  
HETATM   20  F   UNL     1      -9.849   9.532  63.021  1.00  0.00     0.075 F  
HETATM   21  C   UNL     1     -10.055   9.415  65.369  1.00  0.00     0.151 A  
HETATM   22  C   UNL     1      -9.865  10.152  64.207  1.00  0.00    -0.200 A  
HETATM   23  C   UNL     1      -9.764  12.170  65.502  1.00  0.00    -0.197 A  
ENDBRANCH  13  17
BRANCH  13  24
HETATM   24  C   UNL     1     -10.428  11.229  69.123  1.00  0.00    -0.160 C  
HETATM   25  H2  UNL     1      -9.575  10.165  70.210  1.00  0.00     0.000 HD 
HETATM   26  N   UNL     1     -10.559  10.367  70.034  1.00  0.00    -0.398 NA 
HETATM   27  H1  UNL     1     -10.666   9.670  70.771  1.00  0.00     0.000 HD 
ENDBRANCH  13  24
ENDBRANCH   4  11
BRANCH  10  28
HETATM   28  C   UNL     1     -12.386  15.879  71.269  1.00  0.00    -0.460 A  
HETATM   29  C   UNL     1     -12.763  15.401  72.541  1.00  0.00    -0.480 A  
HETATM   30  C   UNL     1     -13.142  15.392  70.187  1.00  0.00     0.005 A  
HETATM   31  C   UNL     1     -14.353  13.846  71.603  1.00  0.00    -0.145 A  
HETATM   32  C   UNL     1     -13.707  14.382  72.707  1.00  0.00    -0.466 A  
HETATM   33  C   UNL     1     -14.091  14.374  70.346  1.00  0.00     1.276 A  
ENDBRANCH  10  28
TORSDOF 4
ENDMDL
MODEL      132
REMARK 921   NORMALIZED FREE ENERGY PREDICTED BY IDOCK:   28.51 KCAL/MOL
REMARK 922        TOTAL FREE ENERGY PREDICTED BY IDOCK:   34.98 KCAL/MOL
REMARK 923 INTER-LIGAND FREE ENERGY PREDICTED BY IDOCK:   33.20 KCAL/MOL
REMARK 924 INTRA-LIGAND FREE ENERGY PREDICTED BY IDOCK:    1.78 KCAL/MOL
REMARK 927      BINDING AFFINITY PREDICTED BY RF-SCORE:    0.00 PKD
ROOT
HETATM    1  C   UNL     1      -6.988  10.527  67.513  1.00  0.00    -0.080 C  
HETATM    2  C   UNL     1      -8.242  11.040  66.788  1.00  0.00    -0.149 C  
HETATM    3  C   UNL     1      -7.841  12.330  66.069  1.00  0.00     1.038 C  
HETATM    4  N   UNL     1      -8.858  13.082  65.301  1.00  0.00     1.225 NA 
HETATM    5  C   UNL     1     -10.157  13.096  65.974  1.00  0.00    -0.286 C  
HETATM    6  O   UNL     1      -9.759   8.755  67.325  1.00  0.00    -0.162 OA 
HETATM    7  O   UNL     1     -10.933   9.674  68.990  1.00  0.00    -0.208 OA 
HETATM    8  C   UNL     1     -10.588  11.761  66.612  1.00  0.00    -0.275 C  
HETATM    9  C   UNL     1     -10.061   9.764  67.965  1.00  0.00    -0.171 C  
HETATM   10  C   UNL     1      -9.555  11.192  67.634  1.00  0.00    -0.180 C  
ENDROOT
BRANCH   4  11
HETATM   11  C   UNL     1      -8.315  14.464  65.091  1.00  0.00     4.987 C  
HETATM   12  C   UNL     1      -8.899  15.449  67.361  1.00  0.00    -0.196 C  
HETATM   13  C   UNL     1      -7.454  15.915  67.649  1.00  0.00    -0.174 C  
HETATM   14  C   UNL     1      -6.824  14.717  65.418  1.00  0.00    10.714 C  
HETATM   15  C   UNL     1      -6.487  14.965  66.893  1.00  0.00     1.089 C  
HETATM   16  C   UNL     1      -9.165  15.504  65.851  1.00  0.00    -0.305 C  
BRANCH  13  17
HETATM   17  C   UNL     1      -7.377  17.437  67.281  1.00  0.00    -0.194 A  
HETATM   18  C   UNL     1      -7.633  19.166  65.548  1.00  0.00     0.130 A  
HETATM   19  C   UNL     1      -6.818  18.421  68.118  1.00  0.00    -0.234 A  
HETATM   20  F   UNL     1      -6.782  21.328  65.930  1.00  0.00    -0.212 F  
HETATM   21  C   UNL     1      -6.618  19.729  67.658  1.00  0.00    -0.263 A  
HETATM   22  C   UNL     1      -7.011  20.086  66.374  1.00  0.00    -0.240 A  
HETATM   23  C   UNL     1      -7.822  17.859  66.000  1.00  0.00    -0.189 A  
ENDBRANCH  13  17
BRANCH  13  24
HETATM   24  C   UNL     1      -7.117  15.829  69.129  1.00  0.00    -0.176 C  
HETATM   25  H2  UNL     1      -7.713  16.109  70.744  1.00  0.00     0.000 HD 
HETATM   26  N   UNL     1      -6.838  15.758  70.356  1.00  0.00     0.337 NA 
HETATM   27  H1  UNL     1      -6.611  15.699  71.349  1.00  0.00     0.000 HD 
ENDBRANCH  13  24
ENDBRANCH   4  11
BRANCH  10  28
HETATM   28  C   UNL     1      -9.431  12.060  68.923  1.00  0.00     0.132 A  
HETATM   29  C   UNL     1     -10.549  12.505  69.657  1.00  0.00     0.559 A  
HETATM   30  C   UNL     1      -8.176  12.391  69.463  1.00  0.00     1.254 A  
HETATM   31  C   UNL     1      -9.175  13.763  71.191  1.00  0.00     7.355 A  
HETATM   32  C   UNL     1     -10.429  13.365  70.754  1.00  0.00     3.572 A  
HETATM   33  C   UNL     1      -8.047  13.250  70.563  1.00  0.00     4.498 A  
ENDBRANCH  10  28
TORSDOF 4
ENDMDL
MODEL      133
REMARK 921   NORMALIZED FREE ENERGY PREDICTED BY IDOCK:   29.03 KCAL/MOL
REMARK 922        TOTAL FREE ENERGY PREDICTED BY IDOCK:   35.62 KCAL/MOL
REMARK 923 INTER-LIGAND FREE ENERGY PREDICTED BY IDOCK:   35.62 KCAL/MOL
REMARK 924 INTRA-LIGAND FREE ENERGY PREDICTED BY IDOCK:   -0.01 KCAL/MOL
REMARK 927      BINDING AFFINITY PREDICTED BY RF-SCORE:    0.00 PKD
ROOT
HETATM    1  C   UNL     1     -12.186  16.361  63.998  1.00  0.00     1.359 C  
HETATM    2  C   UNL     1     -11.216  15.209  64.306  1.00  0.00    -0.027 C  
HETATM    3  C   UNL     1     -12.004  14.171  65.107  1.00  0.00    -0.388 C  
HETATM    4  N   UNL     1     -11.321  12.946  65.582  1.00  0.00    -0.301 NA 
HETATM    5  C   UNL     1      -9.959  13.219  66.043  1.00  0.00    -0.292 C  
HETATM    6  O   UNL     1      -9.173  16.197  62.674  1.00  0.00    15.630 OA 
HETATM    7  O   UNL     1      -7.955  17.032  64.351  1.00  0.00     5.805 OA 
HETATM    8  C   UNL     1      -9.146  14.197  65.170  1.00  0.00     1.534 C  
HETATM    9  C   UNL     1      -8.990  16.301  63.888  1.00  0.00    11.183 C  
HETATM   10  C   UNL     1      -9.841  15.580  64.965  1.00  0.00     0.076 C  
ENDROOT
BRANCH   4  11
HETATM   11  C   UNL     1     -12.176  12.359  66.664  1.00  0.00     0.155 C  
HETATM   12  C   UNL     1     -10.439  12.280  68.519  1.00  0.00    -0.248 C  
HETATM   13  C   UNL     1     -11.314  13.068  69.518  1.00  0.00    -0.223 C  
HETATM   14  C   UNL     1     -13.002  13.328  67.544  1.00  0.00     2.161 C  
HETATM   15  C   UNL     1     -12.251  13.998  68.701  1.00  0.00    -0.218 C  
HETATM   16  C   UNL     1     -11.337  11.453  67.589  1.00  0.00    -0.359 C  
BRANCH  13  17
HETATM   17  C   UNL     1     -12.007  12.019  70.456  1.00  0.00    -0.338 A  
HETATM   18  C   UNL     1     -12.292   9.650  71.060  1.00  0.00    -0.396 A  
HETATM   19  C   UNL     1     -13.063  12.325  71.333  1.00  0.00    -0.285 A  
HETATM   20  F   UNL     1     -14.064   9.019  72.476  1.00  0.00    -0.454 F  
HETATM   21  C   UNL     1     -13.753  11.311  72.010  1.00  0.00     0.051 A  
HETATM   22  C   UNL     1     -13.374   9.984  71.855  1.00  0.00    -0.415 A  
HETATM   23  C   UNL     1     -11.610  10.657  70.375  1.00  0.00    -0.441 A  
ENDBRANCH  13  17
BRANCH  13  24
HETATM   24  C   UNL     1     -10.477  13.950  70.430  1.00  0.00     1.509 C  
HETATM   25  H2  UNL     1     -10.374  14.661  72.020  1.00  0.00     0.000 HD 
HETATM   26  N   UNL     1      -9.784  14.681  71.188  1.00  0.00     1.652 NA 
HETATM   27  H1  UNL     1      -9.222  15.273  71.800  1.00  0.00     0.000 HD 
ENDBRANCH  13  24
ENDBRANCH   4  11
BRANCH  10  28
HETATM   28  C   UNL     1      -9.924  16.419  66.275  1.00  0.00    -0.341 A  
HETATM   29  C   UNL     1     -10.991  17.298  66.555  1.00  0.00     0.213 A  
HETATM   30  C   UNL     1      -8.959  16.290  67.290  1.00  0.00    -0.209 A  
HETATM   31  C   UNL     1      -9.975  18.045  68.613  1.00  0.00    -0.396 A  
HETATM   32  C   UNL     1     -11.004  18.120  67.687  1.00  0.00    -0.118 A  
HETATM   33  C   UNL     1      -8.968  17.107  68.428  1.00  0.00    -0.259 A  
ENDBRANCH  10  28
TORSDOF 4
ENDMDL
MODEL      134
REMARK 921   NORMALIZED FREE ENERGY PREDICTED BY IDOCK:   33.44 KCAL/MOL
REMARK 922        TOTAL FREE ENERGY PREDICTED BY IDOCK:   41.05 KCAL/MOL
REMARK 923 INTER-LIGAND FREE ENERGY PREDICTED BY IDOCK:   38.59 KCAL/MOL
REMARK 924 INTRA-LIGAND FREE ENERGY PREDICTED BY IDOCK:    2.46 KCAL/MOL
REMARK 927      BINDING AFFINITY PREDICTED BY RF-SCORE:    0.00 PKD
ROOT
HETATM    1  C   UNL     1      -9.919  10.160  65.697  1.00  0.00    -0.348 C  
HETATM    2  C   UNL     1     -10.774  11.380  65.318  1.00  0.00    -0.326 C  
HETATM    3  C   UNL     1      -9.851  12.600  65.371  1.00  0.00    -0.141 C  
HETATM    4  N   UNL     1     -10.402  13.943  65.082  1.00  0.00    -0.372 NA 
HETATM    5  C   UNL     1     -11.740  14.122  65.646  1.00  0.00    -0.357 C  
HETATM    6  O   UNL     1     -13.005   9.868  64.581  1.00  0.00     9.201 OA 
HETATM    7  O   UNL     1     -14.148  10.255  66.462  1.00  0.00    17.931 OA 
HETATM    8  C   UNL     1     -12.689  12.915  65.500  1.00  0.00    -0.212 C  
HETATM    9  C   UNL     1     -13.101  10.484  65.643  1.00  0.00    10.415 C  
HETATM   10  C   UNL     1     -12.117  11.592  66.101  1.00  0.00     0.693 C  
ENDROOT
BRANCH   4  11
HETATM   11  C   UNL     1      -9.423  14.943  65.620  1.00  0.00    -0.117 C  
HETATM   12  C   UNL     1      -9.514  14.279  68.073  1.00  0.00    -0.204 C  
HETATM   13  C   UNL     1      -7.985  14.088  68.188  1.00  0.00    -0.149 C  
HETATM   14  C   UNL     1      -7.923  14.563  65.623  1.00  0.00     4.078 C  
HETATM   15  C   UNL     1      -7.448  13.687  66.788  1.00  0.00     0.823 C  
HETATM   16  C   UNL     1      -9.819  15.378  67.047  1.00  0.00    -0.236 C  
BRANCH  13  17
HETATM   17  C   UNL     1      -7.400  15.400  68.817  1.00  0.00    -0.135 A  
HETATM   18  C   UNL     1      -7.296  17.858  68.758  1.00  0.00    -0.271 A  
HETATM   19  C   UNL     1      -6.361  15.423  69.764  1.00  0.00    -0.163 A  
HETATM   20  F   UNL     1      -5.626  18.979  69.982  1.00  0.00    -0.201 F  
HETATM   21  C   UNL     1      -5.766  16.629  70.152  1.00  0.00    -0.203 A  
HETATM   22  C   UNL     1      -6.226  17.834  69.635  1.00  0.00    -0.214 A  
HETATM   23  C   UNL     1      -7.883  16.656  68.361  1.00  0.00    -0.202 A  
ENDBRANCH  13  17
BRANCH  13  24
HETATM   24  C   UNL     1      -7.625  12.970  69.153  1.00  0.00     0.254 C  
HETATM   25  H2  UNL     1      -7.372  11.252  69.309  1.00  0.00     0.000 HD 
HETATM   26  N   UNL     1      -7.327  12.042  69.952  1.00  0.00     0.030 NA 
HETATM   27  H1  UNL     1      -7.085  11.292  70.600  1.00  0.00     0.000 HD 
ENDBRANCH  13  24
ENDBRANCH   4  11
BRANCH  10  28
HETATM   28  C   UNL     1     -11.994  11.632  67.654  1.00  0.00    -0.086 A  
HETATM   29  C   UNL     1     -12.140  10.487  68.464  1.00  0.00     0.363 A  
HETATM   30  C   UNL     1     -11.660  12.819  68.332  1.00  0.00    -0.365 A  
HETATM   31  C   UNL     1     -11.905  11.765  70.497  1.00  0.00    -0.288 A  
HETATM   32  C   UNL     1     -12.126  10.553  69.861  1.00  0.00    -0.318 A  
HETATM   33  C   UNL     1     -11.642  12.892  69.731  1.00  0.00    -0.288 A  
ENDBRANCH  10  28
TORSDOF 4
ENDMDL
MODEL      135
REMARK 921   NORMALIZED FREE ENERGY PREDICTED BY IDOCK:   33.51 KCAL/MOL
REMARK 922        TOTAL FREE ENERGY PREDICTED BY IDOCK:   41.14 KCAL/MOL
REMARK 923 INTER-LIGAND FREE ENERGY PREDICTED BY IDOCK:   40.48 KCAL/MOL
REMARK 924 INTRA-LIGAND FREE ENERGY PREDICTED BY IDOCK:    0.67 KCAL/MOL
REMARK 927      BINDING AFFINITY PREDICTED BY RF-SCORE:    0.00 PKD
ROOT
HETATM    1  C   UNL     1     -11.826  11.997  71.336  1.00  0.00     1.039 C  
HETATM    2  C   UNL     1     -12.603  13.239  70.870  1.00  0.00    -0.386 C  
HETATM    3  C   UNL     1     -12.087  13.583  69.472  1.00  0.00    -0.297 C  
HETATM    4  N   UNL     1     -12.630  14.766  68.766  1.00  0.00     0.184 NA 
HETATM    5  C   UNL     1     -12.847  15.895  69.671  1.00  0.00     0.693 C  
HETATM    6  O   UNL     1     -14.384  13.208  73.024  1.00  0.00    -0.031 OA 
HETATM    7  O   UNL     1     -13.375  14.855  74.148  1.00  0.00     0.348 OA 
HETATM    8  C   UNL     1     -13.456  15.540  71.042  1.00  0.00    -0.436 C  
HETATM    9  C   UNL     1     -13.531  14.097  73.044  1.00  0.00    -0.167 C  
HETATM   10  C   UNL     1     -12.636  14.475  71.835  1.00  0.00    -0.413 C  
ENDROOT
BRANCH   4  11
HETATM   11  C   UNL     1     -11.668  15.099  67.665  1.00  0.00    -0.216 C  
HETATM   12  C   UNL     1      -9.913  16.310  69.050  1.00  0.00    -0.256 C  
HETATM   13  C   UNL     1      -8.752  15.420  68.553  1.00  0.00    -0.178 C  
HETATM   14  C   UNL     1     -10.589  14.052  67.301  1.00  0.00    -0.273 C  
HETATM   15  C   UNL     1      -9.339  14.030  68.190  1.00  0.00    -0.201 C  
HETATM   16  C   UNL     1     -10.968  16.446  67.945  1.00  0.00    -0.298 C  
BRANCH  13  17
HETATM   17  C   UNL     1      -8.030  16.202  67.401  1.00  0.00    -0.185 A  
HETATM   18  C   UNL     1      -5.902  16.995  66.454  1.00  0.00    -0.074 A  
HETATM   19  C   UNL     1      -8.698  16.986  66.444  1.00  0.00    -0.308 A  
HETATM   20  F   UNL     1      -5.923  18.618  64.748  1.00  0.00    -0.271 F  
HETATM   21  C   UNL     1      -7.985  17.799  65.554  1.00  0.00     0.709 A  
HETATM   22  C   UNL     1      -6.596  17.810  65.577  1.00  0.00     0.023 A  
HETATM   23  C   UNL     1      -6.610  16.193  67.349  1.00  0.00    -0.219 A  
ENDBRANCH  13  17
BRANCH  13  24
HETATM   24  C   UNL     1      -7.702  15.205  69.630  1.00  0.00    -0.148 C  
HETATM   25  H2  UNL     1      -6.205  14.398  70.018  1.00  0.00     0.000 HD 
HETATM   26  N   UNL     1      -6.830  15.027  70.523  1.00  0.00    -0.040 NA 
HETATM   27  H1  UNL     1      -6.125  14.883  71.246  1.00  0.00     0.000 HD 
ENDBRANCH  13  24
ENDBRANCH   4  11
BRANCH  10  28
HETATM   28  C   UNL     1     -11.247  15.002  72.304  1.00  0.00    -0.001 A  
HETATM   29  C   UNL     1     -10.375  14.246  73.115  1.00  0.00     5.782 A  
HETATM   30  C   UNL     1     -10.756  16.250  71.880  1.00  0.00     1.536 A  
HETATM   31  C   UNL     1      -8.777  16.049  73.261  1.00  0.00    15.190 A  
HETATM   32  C   UNL     1      -9.175  14.768  73.611  1.00  0.00     9.485 A  
HETATM   33  C   UNL     1      -9.553  16.777  72.370  1.00  0.00     9.885 A  
ENDBRANCH  10  28
TORSDOF 4
ENDMDL
MODEL      136
REMARK 921   NORMALIZED FREE ENERGY PREDICTED BY IDOCK:   33.57 KCAL/MOL
REMARK 922        TOTAL FREE ENERGY PREDICTED BY IDOCK:   41.22 KCAL/MOL
REMARK 923 INTER-LIGAND FREE ENERGY PREDICTED BY IDOCK:   40.70 KCAL/MOL
REMARK 924 INTRA-LIGAND FREE ENERGY PREDICTED BY IDOCK:    0.52 KCAL/MOL
REMARK 927      BINDING AFFINITY PREDICTED BY RF-SCORE:    0.00 PKD
ROOT
HETATM    1  C   UNL     1     -12.263  17.936  70.296  1.00  0.00     8.490 C  
HETATM    2  C   UNL     1     -11.733  17.587  68.896  1.00  0.00     1.933 C  
HETATM    3  C   UNL     1     -11.371  16.101  68.919  1.00  0.00    -0.350 C  
HETATM    4  N   UNL     1     -10.797  15.472  67.708  1.00  0.00    -0.301 NA 
HETATM    5  C   UNL     1      -9.851  16.356  67.024  1.00  0.00    -0.251 C  
HETATM    6  O   UNL     1     -12.416  20.056  67.777  1.00  0.00     2.658 OA 
HETATM    7  O   UNL     1     -10.343  20.886  67.829  1.00  0.00    -0.025 OA 
HETATM    8  C   UNL     1     -10.277  17.835  66.928  1.00  0.00    -0.346 C  
HETATM    9  C   UNL     1     -11.215  19.867  67.971  1.00  0.00     0.731 C  
HETATM   10  C   UNL     1     -10.590  18.489  68.310  1.00  0.00    -0.223 C  
ENDROOT
BRANCH   4  11
HETATM   11  C   UNL     1     -10.157  14.188  68.142  1.00  0.00    -0.239 C  
HETATM   12  C   UNL     1      -9.932  13.087  65.861  1.00  0.00    -0.270 C  
HETATM   13  C   UNL     1      -8.416  12.831  66.016  1.00  0.00     0.800 C  
HETATM   14  C   UNL     1      -8.614  14.148  68.260  1.00  0.00    -0.175 C  
HETATM   15  C   UNL     1      -7.841  13.924  66.955  1.00  0.00     0.275 C  
HETATM   16  C   UNL     1     -10.608  13.022  67.237  1.00  0.00    -0.247 C  
BRANCH  13  17
HETATM   17  C   UNL     1      -8.243  11.343  66.479  1.00  0.00    -0.152 A  
HETATM   18  C   UNL     1      -7.209   9.149  66.061  1.00  0.00    -0.094 A  
HETATM   19  C   UNL     1      -9.024  10.735  67.479  1.00  0.00    -0.132 A  
HETATM   20  F   UNL     1      -8.001   7.253  67.211  1.00  0.00    -0.104 F  
HETATM   21  C   UNL     1      -8.940   9.358  67.720  1.00  0.00    -0.127 A  
HETATM   22  C   UNL     1      -8.047   8.575  67.000  1.00  0.00    -0.103 A  
HETATM   23  C   UNL     1      -7.299  10.519  65.810  1.00  0.00    -0.137 A  
ENDBRANCH  13  17
BRANCH  13  24
HETATM   24  C   UNL     1      -7.686  12.938  64.687  1.00  0.00     7.483 C  
HETATM   25  H2  UNL     1      -6.343  13.681  63.857  1.00  0.00     0.000 HD 
HETATM   26  N   UNL     1      -7.079  13.028  63.586  1.00  0.00    10.350 NA 
HETATM   27  H1  UNL     1      -6.588  13.100  62.694  1.00  0.00     0.000 HD 
ENDBRANCH  13  24
ENDBRANCH   4  11
BRANCH  10  28
HETATM   28  C   UNL     1      -9.327  18.647  69.209  1.00  0.00     0.050 A  
HETATM   29  C   UNL     1      -8.020  18.732  68.687  1.00  0.00    -0.369 A  
HETATM   30  C   UNL     1      -9.435  18.782  70.605  1.00  0.00     2.813 A  
HETATM   31  C   UNL     1      -7.030  18.791  70.886  1.00  0.00     2.048 A  
HETATM   32  C   UNL     1      -6.888  18.773  69.508  1.00  0.00    -0.139 A  
HETATM   33  C   UNL     1      -8.306  18.827  71.434  1.00  0.00     6.852 A  
ENDBRANCH  10  28
TORSDOF 4
ENDMDL
MODEL      137
REMARK 921   NORMALIZED FREE ENERGY PREDICTED BY IDOCK:   33.73 KCAL/MOL
REMARK 922        TOTAL FREE ENERGY PREDICTED BY IDOCK:   41.42 KCAL/MOL
REMARK 923 INTER-LIGAND FREE ENERGY PREDICTED BY IDOCK:   41.33 KCAL/MOL
REMARK 924 INTRA-LIGAND FREE ENERGY PREDICTED BY IDOCK:    0.09 KCAL/MOL
REMARK 927      BINDING AFFINITY PREDICTED BY RF-SCORE:    0.00 PKD
ROOT
HETATM    1  C   UNL     1     -11.377  13.031  63.950  1.00  0.00    -0.460 C  
HETATM    2  C   UNL     1     -11.851  12.205  65.157  1.00  0.00    -0.356 C  
HETATM    3  C   UNL     1     -11.314  12.903  66.408  1.00  0.00    -0.319 C  
HETATM    4  N   UNL     1     -11.582  12.318  67.740  1.00  0.00    -0.335 NA 
HETATM    5  C   UNL     1     -11.493  10.857  67.728  1.00  0.00    -0.243 C  
HETATM    6  O   UNL     1     -13.514  10.541  63.648  1.00  0.00     3.722 OA 
HETATM    7  O   UNL     1     -12.105   8.807  63.626  1.00  0.00    15.933 OA 
HETATM    8  C   UNL     1     -12.124  10.164  66.504  1.00  0.00     4.379 C  
HETATM    9  C   UNL     1     -12.474  10.028  64.063  1.00  0.00     8.809 C  
HETATM   10  C   UNL     1     -11.555  10.664  65.139  1.00  0.00     1.456 C  
ENDROOT
BRANCH   4  11
HETATM   11  C   UNL     1     -10.606  12.936  68.696  1.00  0.00    -0.234 C  
HETATM   12  C   UNL     1     -10.336  15.192  67.554  1.00  0.00    -0.242 C  
HETATM   13  C   UNL     1     -10.689  15.997  68.825  1.00  0.00    -0.282 C  
HETATM   14  C   UNL     1     -11.169  13.682  69.929  1.00  0.00    -0.023 C  
HETATM   15  C   UNL     1     -11.633  15.125  69.695  1.00  0.00    -0.335 C  
HETATM   16  C   UNL     1      -9.641  13.883  67.951  1.00  0.00    -0.227 C  
BRANCH  13  17
HETATM   17  C   UNL     1      -9.336  16.442  69.481  1.00  0.00     0.033 A  
HETATM   18  C   UNL     1      -7.153  17.539  69.188  1.00  0.00    -0.195 A  
HETATM   19  C   UNL     1      -8.911  16.034  70.759  1.00  0.00     2.894 A  
HETATM   20  F   UNL     1      -5.498  17.293  70.845  1.00  0.00    -0.234 F  
HETATM   21  C   UNL     1      -7.617  16.322  71.213  1.00  0.00     5.038 A  
HETATM   22  C   UNL     1      -6.745  17.056  70.419  1.00  0.00     1.178 A  
HETATM   23  C   UNL     1      -8.437  17.244  68.729  1.00  0.00    -0.233 A  
ENDBRANCH  13  17
BRANCH  13  24
HETATM   24  C   UNL     1     -11.430  17.282  68.493  1.00  0.00     0.605 C  
HETATM   25  H2  UNL     1     -11.353  19.024  68.544  1.00  0.00     0.000 HD 
HETATM   26  N   UNL     1     -12.045  18.348  68.218  1.00  0.00     2.313 NA 
HETATM   27  H1  UNL     1     -12.542  19.210  67.995  1.00  0.00     0.000 HD 
ENDBRANCH  13  24
ENDBRANCH   4  11
BRANCH  10  28
HETATM   28  C   UNL     1     -10.065  10.265  64.916  1.00  0.00    -0.346 A  
HETATM   29  C   UNL     1      -9.329  10.656  63.779  1.00  0.00    -0.304 A  
HETATM   30  C   UNL     1      -9.349   9.541  65.886  1.00  0.00    -0.285 A  
HETATM   31  C   UNL     1      -7.388   9.401  64.473  1.00  0.00    -0.105 A  
HETATM   32  C   UNL     1      -8.024  10.209  63.544  1.00  0.00    -0.161 A  
HETATM   33  C   UNL     1      -8.041   9.093  65.659  1.00  0.00    -0.113 A  
ENDBRANCH  10  28
TORSDOF 4
ENDMDL
MODEL      138
REMARK 921   NORMALIZED FREE ENERGY PREDICTED BY IDOCK:   36.36 KCAL/MOL
REMARK 922        TOTAL FREE ENERGY PREDICTED BY IDOCK:   44.65 KCAL/MOL
REMARK 923 INTER-LIGAND FREE ENERGY PREDICTED BY IDOCK:   43.32 KCAL/MOL
REMARK 924 INTRA-LIGAND FREE ENERGY PREDICTED BY IDOCK:    1.33 KCAL/MOL
REMARK 927      BINDING AFFINITY PREDICTED BY RF-SCORE:    0.00 PKD
ROOT
HETATM    1  C   UNL     1      -6.100  15.127  67.800  1.00  0.00    -0.164 C  
HETATM    2  C   UNL     1      -7.364  14.252  67.830  1.00  0.00    -0.185 C  
HETATM    3  C   UNL     1      -8.426  15.037  68.602  1.00  0.00    -0.168 C  
HETATM    4  N   UNL     1      -9.758  14.432  68.827  1.00  0.00    -0.214 NA 
HETATM    5  C   UNL     1      -9.670  13.001  69.123  1.00  0.00     0.512 C  
HETATM    6  O   UNL     1      -6.351  12.340  66.060  1.00  0.00     0.797 OA 
HETATM    7  O   UNL     1      -5.857  10.839  67.640  1.00  0.00    -0.043 OA 
HETATM    8  C   UNL     1      -8.660  12.208  68.269  1.00  0.00    -0.175 C  
HETATM    9  C   UNL     1      -6.426  11.995  67.240  1.00  0.00    -0.149 C  
HETATM   10  C   UNL     1      -7.207  12.773  68.330  1.00  0.00    -0.115 C  
ENDROOT
BRANCH   4  11
HETATM   11  C   UNL     1     -10.407  15.200  69.939  1.00  0.00    -0.189 C  
HETATM   12  C   UNL     1      -9.418  17.489  69.444  1.00  0.00     0.239 C  
HETATM   13  C   UNL     1     -10.794  18.189  69.387  1.00  0.00     1.027 C  
HETATM   14  C   UNL     1     -11.808  15.804  69.683  1.00  0.00    -0.352 C  
HETATM   15  C   UNL     1     -11.844  17.141  68.933  1.00  0.00     1.453 C  
HETATM   16  C   UNL     1      -9.475  16.323  70.440  1.00  0.00     1.479 C  
BRANCH  13  17
HETATM   17  C   UNL     1     -11.029  18.863  70.783  1.00  0.00     3.467 A  
HETATM   18  C   UNL     1     -11.017  20.934  72.113  1.00  0.00    10.162 A  
HETATM   19  C   UNL     1     -11.216  18.148  71.980  1.00  0.00     3.128 A  
HETATM   20  F   UNL     1     -11.115  20.807  74.462  1.00  0.00     6.642 F  
HETATM   21  C   UNL     1     -11.242  18.807  73.216  1.00  0.00     3.072 A  
HETATM   22  C   UNL     1     -11.127  20.190  73.274  1.00  0.00     8.353 A  
HETATM   23  C   UNL     1     -10.979  20.280  70.881  1.00  0.00     3.876 A  
ENDBRANCH  13  17
BRANCH  13  24
HETATM   24  C   UNL     1     -10.811  19.321  68.373  1.00  0.00     0.297 C  
HETATM   25  H2  UNL     1     -11.636  19.973  66.981  1.00  0.00     0.000 HD 
HETATM   26  N   UNL     1     -10.826  20.260  67.531  1.00  0.00     0.029 NA 
HETATM   27  H1  UNL     1     -10.837  21.020  66.851  1.00  0.00     0.000 HD 
ENDBRANCH  13  24
ENDBRANCH   4  11
BRANCH  10  28
HETATM   28  C   UNL     1      -6.545  12.602  69.731  1.00  0.00     0.066 A  
HETATM   29  C   UNL     1      -6.388  13.669  70.640  1.00  0.00     0.119 A  
HETATM   30  C   UNL     1      -6.125  11.342  70.192  1.00  0.00    -0.149 A  
HETATM   31  C   UNL     1      -5.203  12.285  72.223  1.00  0.00     0.317 A  
HETATM   32  C   UNL     1      -5.704  13.523  71.851  1.00  0.00     0.093 A  
HETATM   33  C   UNL     1      -5.441  11.188  71.406  1.00  0.00     0.098 A  
ENDBRANCH  10  28
TORSDOF 4
ENDMDL
MODEL      139
REMARK 921   NORMALIZED FREE ENERGY PREDICTED BY IDOCK:   38.94 KCAL/MOL
REMARK 922        TOTAL FREE ENERGY PREDICTED BY IDOCK:   47.84 KCAL/MOL
REMARK 923 INTER-LIGAND FREE ENERGY PREDICTED BY IDOCK:   47.97 KCAL/MOL
REMARK 924 INTRA-LIGAND FREE ENERGY PREDICTED BY IDOCK:   -0.12 KCAL/MOL
REMARK 927      BINDING AFFINITY PREDICTED BY RF-SCORE:    0.00 PKD
ROOT
HETATM    1  C   UNL     1      -8.640  10.209  69.948  1.00  0.00    -0.100 C  
HETATM    2  C   UNL     1      -7.486  11.080  69.425  1.00  0.00    -0.074 C  
HETATM    3  C   UNL     1      -7.234  12.158  70.480  1.00  0.00     2.607 C  
HETATM    4  N   UNL     1      -6.189  13.179  70.242  1.00  0.00    -0.069 NA 
HETATM    5  C   UNL     1      -6.160  13.622  68.847  1.00  0.00    -0.088 C  
HETATM    6  O   UNL     1      -6.913   9.411  67.258  1.00  0.00    -0.083 OA 
HETATM    7  O   UNL     1      -7.931  10.691  65.736  1.00  0.00    -0.159 OA 
HETATM    8  C   UNL     1      -6.322  12.508  67.794  1.00  0.00    -0.121 C  
HETATM    9  C   UNL     1      -7.467  10.476  66.984  1.00  0.00    -0.100 C  
HETATM   10  C   UNL     1      -7.620  11.660  67.973  1.00  0.00    -0.117 C  
ENDROOT
BRANCH   4  11
HETATM   11  C   UNL     1      -6.458  14.311  71.189  1.00  0.00     0.342 C  
HETATM   12  C   UNL     1      -7.139  16.073  69.488  1.00  0.00    -0.181 C  
HETATM   13  C   UNL     1      -8.484  16.379  70.184  1.00  0.00     1.641 C  
HETATM   14  C   UNL     1      -7.875  14.424  71.801  1.00  0.00     4.844 C  
HETATM   15  C   UNL     1      -8.940  15.094  70.926  1.00  0.00     2.264 C  
HETATM   16  C   UNL     1      -6.098  15.662  70.537  1.00  0.00     0.074 C  
BRANCH  13  17
HETATM   17  C   UNL     1      -8.270  17.661  71.062  1.00  0.00     6.972 A  
HETATM   18  C   UNL     1      -9.022  19.009  72.979  1.00  0.00     7.308 A  
HETATM   19  C   UNL     1      -7.402  18.713  70.719  1.00  0.00     2.775 A  
HETATM   20  F   UNL     1      -8.220  21.207  73.239  1.00  0.00     3.764 F  
HETATM   21  C   UNL     1      -7.390  19.906  71.453  1.00  0.00     1.323 A  
HETATM   22  C   UNL     1      -8.211  20.050  72.565  1.00  0.00     3.008 A  
HETATM   23  C   UNL     1      -9.045  17.824  72.242  1.00  0.00    13.953 A  
ENDBRANCH  13  17
BRANCH  13  24
HETATM   24  C   UNL     1      -9.570  16.740  69.184  1.00  0.00    -0.185 C  
HETATM   25  H2  UNL     1      -9.979  16.806  67.489  1.00  0.00     0.000 HD 
HETATM   26  N   UNL     1     -10.470  17.038  68.353  1.00  0.00    -0.348 NA 
HETATM   27  H1  UNL     1     -11.199  17.280  67.682  1.00  0.00     0.000 HD 
ENDBRANCH  13  24
ENDBRANCH   4  11
BRANCH  10  28
HETATM   28  C   UNL     1      -8.921  12.470  67.688  1.00  0.00    -0.185 A  
HETATM   29  C   UNL     1      -9.909  12.702  68.666  1.00  0.00    -0.077 A  
HETATM   30  C   UNL     1      -9.145  13.078  66.439  1.00  0.00    -0.073 A  
HETATM   31  C   UNL     1     -11.350  13.833  67.095  1.00  0.00    -0.344 A  
HETATM   32  C   UNL     1     -11.116  13.345  68.371  1.00  0.00    -0.301 A  
HETATM   33  C   UNL     1     -10.351  13.726  66.137  1.00  0.00    -0.301 A  
ENDBRANCH  10  28
TORSDOF 4
ENDMDL
MODEL      140
REMARK 921   NORMALIZED FREE ENERGY PREDICTED BY IDOCK:   49.17 KCAL/MOL
REMARK 922        TOTAL FREE ENERGY PREDICTED BY IDOCK:   60.46 KCAL/MOL
REMARK 923 INTER-LIGAND FREE ENERGY PREDICTED BY IDOCK:   60.00 KCAL/MOL
REMARK 924 INTRA-LIGAND FREE ENERGY PREDICTED BY IDOCK:    0.46 KCAL/MOL
REMARK 927      BINDING AFFINITY PREDICTED BY RF-SCORE:    0.00 PKD
ROOT
HETATM    1  C   UNL     1     -10.758  18.038  69.284  1.00  0.00     0.537 C  
HETATM    2  C   UNL     1      -9.238  18.068  69.051  1.00  0.00    -0.057 C  
HETATM    3  C   UNL     1      -8.776  16.611  68.971  1.00  0.00    -0.193 C  
HETATM    4  N   UNL     1      -7.339  16.313  68.780  1.00  0.00    -0.178 NA 
HETATM    5  C   UNL     1      -6.482  17.222  69.544  1.00  0.00    -0.207 C  
HETATM    6  O   UNL     1      -9.128  20.832  68.653  1.00  0.00     0.622 OA 
HETATM    7  O   UNL     1      -8.339  21.302  70.690  1.00  0.00     3.256 OA 
HETATM    8  C   UNL     1      -6.911  18.702  69.537  1.00  0.00    -0.070 C  
HETATM    9  C   UNL     1      -8.672  20.424  69.722  1.00  0.00     1.350 C  
HETATM   10  C   UNL     1      -8.373  18.934  70.032  1.00  0.00     1.353 C  
ENDROOT
BRANCH   4  11
HETATM   11  C   UNL     1      -7.133  14.880  69.169  1.00  0.00    -0.148 C  
HETATM   12  C   UNL     1      -9.527  14.068  68.903  1.00  0.00     0.007 C  
HETATM   13  C   UNL     1      -9.142  12.911  67.954  1.00  0.00    -0.201 C  
HETATM   14  C   UNL     1      -6.721  13.879  68.064  1.00  0.00    -0.146 C  
HETATM   15  C   UNL     1      -7.855  13.328  67.192  1.00  0.00    -0.047 C  
HETATM   16  C   UNL     1      -8.381  14.327  69.889  1.00  0.00     0.956 C  
BRANCH  13  17
HETATM   17  C   UNL     1      -9.055  11.609  68.822  1.00  0.00    -0.029 A  
HETATM   18  C   UNL     1      -8.563   9.198  68.898  1.00  0.00    -0.131 A  
HETATM   19  C   UNL     1      -9.546  11.505  70.136  1.00  0.00     2.381 A  
HETATM   20  F   UNL     1      -9.211   7.940  70.780  1.00  0.00    -0.150 F  
HETATM   21  C   UNL     1      -9.598  10.268  70.791  1.00  0.00     1.029 A  
HETATM   22  C   UNL     1      -9.123   9.124  70.162  1.00  0.00    -0.206 A  
HETATM   23  C   UNL     1      -8.521  10.428  68.240  1.00  0.00    -0.123 A  
ENDBRANCH  13  17
BRANCH  13  24
HETATM   24  C   UNL     1     -10.221  12.647  66.917  1.00  0.00    -0.234 C  
HETATM   25  H2  UNL     1     -11.580  11.634  66.504  1.00  0.00     0.000 HD 
HETATM   26  N   UNL     1     -11.117  12.426  66.058  1.00  0.00    -0.295 NA 
HETATM   27  H1  UNL     1     -11.842  12.249  65.362  1.00  0.00     0.000 HD 
ENDBRANCH  13  24
ENDBRANCH   4  11
BRANCH  10  28
HETATM   28  C   UNL     1      -8.559  18.624  71.548  1.00  0.00     8.216 A  
HETATM   29  C   UNL     1      -9.795  18.760  72.212  1.00  0.00     5.824 A  
HETATM   30  C   UNL     1      -7.501  18.122  72.327  1.00  0.00     9.204 A  
HETATM   31  C   UNL     1      -8.832  18.187  74.349  1.00  0.00    10.474 A  
HETATM   32  C   UNL     1      -9.927  18.574  73.592  1.00  0.00     5.697 A  
HETATM   33  C   UNL     1      -7.626  17.931  73.710  1.00  0.00    11.511 A  
ENDBRANCH  10  28
TORSDOF 4
ENDMDL
MODEL      141
REMARK 921   NORMALIZED FREE ENERGY PREDICTED BY IDOCK:   52.27 KCAL/MOL
REMARK 922        TOTAL FREE ENERGY PREDICTED BY IDOCK:   64.29 KCAL/MOL
REMARK 923 INTER-LIGAND FREE ENERGY PREDICTED BY IDOCK:   63.94 KCAL/MOL
REMARK 924 INTRA-LIGAND FREE ENERGY PREDICTED BY IDOCK:    0.35 KCAL/MOL
REMARK 927      BINDING AFFINITY PREDICTED BY RF-SCORE:    0.00 PKD
ROOT
HETATM    1  C   UNL     1      -5.661  16.326  66.341  1.00  0.00     1.042 C  
HETATM    2  C   UNL     1      -7.049  15.668  66.281  1.00  0.00     1.587 C  
HETATM    3  C   UNL     1      -7.991  16.550  67.102  1.00  0.00    -0.180 C  
HETATM    4  N   UNL     1      -9.409  16.153  67.257  1.00  0.00    -0.212 NA 
HETATM    5  C   UNL     1      -9.559  14.708  67.434  1.00  0.00    -0.215 C  
HETATM    6  O   UNL     1      -6.309  13.765  64.372  1.00  0.00    16.542 OA 
HETATM    7  O   UNL     1      -6.105  12.082  65.827  1.00  0.00     0.710 OA 
HETATM    8  C   UNL     1      -8.668  13.832  66.531  1.00  0.00     0.082 C  
HETATM    9  C   UNL     1      -6.470  13.343  65.518  1.00  0.00     8.877 C  
HETATM   10  C   UNL     1      -7.144  14.148  66.659  1.00  0.00     1.741 C  
ENDROOT
BRANCH   4  11
HETATM   11  C   UNL     1      -9.955  16.925  68.421  1.00  0.00    -0.275 C  
HETATM   12  C   UNL     1     -10.506  14.968  69.948  1.00  0.00    -0.175 C  
HETATM   13  C   UNL     1      -9.690  15.527  71.135  1.00  0.00     1.869 C  
HETATM   14  C   UNL     1      -8.959  17.421  69.496  1.00  0.00     0.604 C  
HETATM   15  C   UNL     1      -8.541  16.397  70.557  1.00  0.00     2.884 C  
HETATM   16  C   UNL     1     -11.076  16.129  69.123  1.00  0.00    -0.329 C  
BRANCH  13  17
HETATM   17  C   UNL     1     -10.701  16.244  72.095  1.00  0.00     1.912 A  
HETATM   18  C   UNL     1     -12.380  16.017  73.881  1.00  0.00    -0.694 A  
HETATM   19  C   UNL     1     -11.070  17.597  71.980  1.00  0.00     2.250 A  
HETATM   20  F   UNL     1     -13.781  17.838  74.395  1.00  0.00     2.055 F  
HETATM   21  C   UNL     1     -12.109  18.128  72.755  1.00  0.00     4.645 A  
HETATM   22  C   UNL     1     -12.765  17.332  73.685  1.00  0.00     1.374 A  
HETATM   23  C   UNL     1     -11.353  15.482  73.101  1.00  0.00     0.170 A  
ENDBRANCH  13  17
BRANCH  13  24
HETATM   24  C   UNL     1      -9.054  14.418  71.957  1.00  0.00     7.205 C  
HETATM   25  H2  UNL     1      -8.683  12.714  72.003  1.00  0.00     0.000 HD 
HETATM   26  N   UNL     1      -8.527  13.497  72.638  1.00  0.00    11.193 NA 
HETATM   27  H1  UNL     1      -8.100  12.753  73.190  1.00  0.00     0.000 HD 
ENDBRANCH  13  24
ENDBRANCH   4  11
BRANCH  10  28
HETATM   28  C   UNL     1      -6.556  13.760  68.049  1.00  0.00    -0.142 A  
HETATM   29  C   UNL     1      -6.528  12.433  68.525  1.00  0.00    -0.068 A  
HETATM   30  C   UNL     1      -5.953  14.719  68.882  1.00  0.00    -0.085 A  
HETATM   31  C   UNL     1      -5.604  13.104  70.651  1.00  0.00    -0.179 A  
HETATM   32  C   UNL     1      -6.089  12.111  69.814  1.00  0.00    -0.143 A  
HETATM   33  C   UNL     1      -5.508  14.404  70.172  1.00  0.00    -0.106 A  
ENDBRANCH  10  28
TORSDOF 4
ENDMDL
MODEL      142
REMARK 921   NORMALIZED FREE ENERGY PREDICTED BY IDOCK:   66.58 KCAL/MOL
REMARK 922        TOTAL FREE ENERGY PREDICTED BY IDOCK:   81.95 KCAL/MOL
REMARK 923 INTER-LIGAND FREE ENERGY PREDICTED BY IDOCK:   81.07 KCAL/MOL
REMARK 924 INTRA-LIGAND FREE ENERGY PREDICTED BY IDOCK:    0.88 KCAL/MOL
REMARK 927      BINDING AFFINITY PREDICTED BY RF-SCORE:    0.00 PKD
ROOT
HETATM    1  C   UNL     1     -12.036  19.149  64.880  1.00  0.00     5.258 C  
HETATM    2  C   UNL     1     -12.590  17.951  65.667  1.00  0.00     8.545 C  
HETATM    3  C   UNL     1     -12.186  18.157  67.128  1.00  0.00     4.012 C  
HETATM    4  N   UNL     1     -12.555  17.138  68.136  1.00  0.00     2.504 NA 
HETATM    5  C   UNL     1     -12.424  15.776  67.616  1.00  0.00     1.472 C  
HETATM    6  O   UNL     1     -14.066  16.939  63.519  1.00  0.00     5.079 OA 
HETATM    7  O   UNL     1     -12.611  15.319  63.015  1.00  0.00     0.932 OA 
HETATM    8  C   UNL     1     -12.923  15.566  66.172  1.00  0.00     2.366 C  
HETATM    9  C   UNL     1     -13.052  16.307  63.821  1.00  0.00     3.606 C  
HETATM   10  C   UNL     1     -12.251  16.515  65.132  1.00  0.00     2.116 C  
ENDROOT
BRANCH   4  11
HETATM   11  C   UNL     1     -11.685  17.372  69.335  1.00  0.00     2.192 C  
HETATM   12  C   UNL     1      -9.454  16.700  68.319  1.00  0.00    -0.230 C  
HETATM   13  C   UNL     1      -8.761  18.028  68.697  1.00  0.00    -0.272 C  
HETATM   14  C   UNL     1     -11.107  18.791  69.547  1.00  0.00     2.393 C  
HETATM   15  C   UNL     1      -9.847  19.136  68.745  1.00  0.00    -0.502 C  
HETATM   16  C   UNL     1     -10.521  16.360  69.367  1.00  0.00    -0.309 C  
BRANCH  13  17
HETATM   17  C   UNL     1      -7.959  17.771  70.020  1.00  0.00     1.896 A  
HETATM   18  C   UNL     1      -7.082  18.698  72.125  1.00  0.00     5.118 A  
HETATM   19  C   UNL     1      -7.213  16.606  70.274  1.00  0.00     1.439 A  
HETATM   20  F   UNL     1      -5.477  17.485  73.348  1.00  0.00     2.279 F  
HETATM   21  C   UNL     1      -6.378  16.515  71.394  1.00  0.00     2.268 A  
HETATM   22  C   UNL     1      -6.306  17.566  72.300  1.00  0.00     3.885 A  
HETATM   23  C   UNL     1      -7.906  18.796  71.003  1.00  0.00     4.434 A  
ENDBRANCH  13  17
BRANCH  13  24
HETATM   24  C   UNL     1      -7.729  18.443  67.662  1.00  0.00    -0.230 C  
HETATM   25  H2  UNL     1      -6.822  19.786  67.014  1.00  0.00     0.000 HD 
HETATM   26  N   UNL     1      -6.873  18.789  66.803  1.00  0.00    -0.192 NA 
HETATM   27  H1  UNL     1      -6.180  19.067  66.107  1.00  0.00     0.000 HD 
ENDBRANCH  13  24
ENDBRANCH   4  11
BRANCH  10  28
HETATM   28  C   UNL     1     -10.736  16.214  64.922  1.00  0.00    -0.297 A  
HETATM   29  C   UNL     1     -10.260  14.973  64.451  1.00  0.00     0.792 A  
HETATM   30  C   UNL     1      -9.758  17.202  65.132  1.00  0.00     1.256 A  
HETATM   31  C   UNL     1      -7.955  15.649  64.686  1.00  0.00     9.448 A  
HETATM   32  C   UNL     1      -8.894  14.682  64.362  1.00  0.00     6.204 A  
HETATM   33  C   UNL     1      -8.388  16.919  65.042  1.00  0.00     3.604 A  
ENDBRANCH  10  28
TORSDOF 4
ENDMDL
MODEL      143
REMARK 921   NORMALIZED FREE ENERGY PREDICTED BY IDOCK:   86.39 KCAL/MOL
REMARK 922        TOTAL FREE ENERGY PREDICTED BY IDOCK:  106.39 KCAL/MOL
REMARK 923 INTER-LIGAND FREE ENERGY PREDICTED BY IDOCK:  106.17 KCAL/MOL
REMARK 924 INTRA-LIGAND FREE ENERGY PREDICTED BY IDOCK:    0.22 KCAL/MOL
REMARK 927      BINDING AFFINITY PREDICTED BY RF-SCORE:    0.00 PKD
ROOT
HETATM    1  C   UNL     1     -10.777  17.492  64.531  1.00  0.00     1.998 C  
HETATM    2  C   UNL     1      -9.762  16.373  64.817  1.00  0.00     1.776 C  
HETATM    3  C   UNL     1     -10.475  15.346  65.699  1.00  0.00    -0.372 C  
HETATM    4  N   UNL     1      -9.735  14.154  66.171  1.00  0.00    -0.300 NA 
HETATM    5  C   UNL     1      -8.354  14.473  66.537  1.00  0.00     0.288 C  
HETATM    6  O   UNL     1      -7.848  17.349  63.030  1.00  0.00    16.446 OA 
HETATM    7  O   UNL     1      -6.550  18.268  64.600  1.00  0.00    -0.078 OA 
HETATM    8  C   UNL     1      -7.620  15.437  65.584  1.00  0.00     4.149 C  
HETATM    9  C   UNL     1      -7.593  17.499  64.226  1.00  0.00     8.305 C  
HETATM   10  C   UNL     1      -8.359  16.797  65.377  1.00  0.00     1.604 C  
ENDROOT
BRANCH   4  11
HETATM   11  C   UNL     1     -10.508  13.586  67.323  1.00  0.00    -0.248 C  
HETATM   12  C   UNL     1      -8.667  13.633  69.075  1.00  0.00     0.315 C  
HETATM   13  C   UNL     1      -9.509  14.435  70.093  1.00  0.00     1.259 C  
HETATM   14  C   UNL     1     -11.313  14.564  68.211  1.00  0.00    -0.319 C  
HETATM   15  C   UNL     1     -10.520  15.303  69.296  1.00  0.00    -0.258 C  
HETATM   16  C   UNL     1      -9.589  12.743  68.232  1.00  0.00    -0.211 C  
BRANCH  13  17
HETATM   17  C   UNL     1     -10.113  13.405  71.109  1.00  0.00     6.626 A  
HETATM   18  C   UNL     1     -10.904  12.974  73.399  1.00  0.00    12.098 A  
HETATM   19  C   UNL     1     -10.220  12.025  70.859  1.00  0.00     5.716 A  
HETATM   20  F   UNL     1     -11.252  10.756  74.109  1.00  0.00    12.091 F  
HETATM   21  C   UNL     1     -10.602  11.137  71.872  1.00  0.00     6.841 A  
HETATM   22  C   UNL     1     -10.924  11.615  73.136  1.00  0.00    14.843 A  
HETATM   23  C   UNL     1     -10.512  13.859  72.394  1.00  0.00     6.341 A  
ENDBRANCH  13  17
BRANCH  13  24
HETATM   24  C   UNL     1      -8.650  15.378  70.920  1.00  0.00     2.557 C  
HETATM   25  H2  UNL     1      -8.480  16.156  72.472  1.00  0.00     0.000 HD 
HETATM   26  N   UNL     1      -7.939  16.160  71.607  1.00  0.00     6.537 NA 
HETATM   27  H1  UNL     1      -7.362  16.792  72.163  1.00  0.00     0.000 HD 
ENDBRANCH  13  24
ENDBRANCH   4  11
BRANCH  10  28
HETATM   28  C   UNL     1      -8.383  17.679  66.661  1.00  0.00    -0.288 A  
HETATM   29  C   UNL     1      -9.451  18.543  66.977  1.00  0.00    -0.292 A  
HETATM   30  C   UNL     1      -7.355  17.606  67.618  1.00  0.00    -0.202 A  
HETATM   31  C   UNL     1      -8.331  19.383  68.942  1.00  0.00    -0.335 A  
HETATM   32  C   UNL     1      -9.416  19.403  68.080  1.00  0.00    -0.418 A  
HETATM   33  C   UNL     1      -7.314  18.462  68.727  1.00  0.00    -0.304 A  
ENDBRANCH  10  28
TORSDOF 4
ENDMDL
