MODEL        1
REMARK 921   NORMALIZED FREE ENERGY PREDICTED BY IDOCK:   -5.52 KCAL/MOL
REMARK 922        TOTAL FREE ENERGY PREDICTED BY IDOCK:   -7.63 KCAL/MOL
REMARK 923 INTER-LIGAND FREE ENERGY PREDICTED BY IDOCK:   -7.14 KCAL/MOL
REMARK 924 INTRA-LIGAND FREE ENERGY PREDICTED BY IDOCK:   -0.49 KCAL/MOL
REMARK 927      BINDING AFFINITY PREDICTED BY RF-SCORE:    0.00 PKD
ROOT
HETATM    1  C   UNL     1     -10.184  16.573  69.147  1.00  0.00    -0.298 C  
HETATM    2  C   UNL     1      -9.873  15.088  69.173  1.00  0.00    -0.223 C  
ENDROOT
BRANCH   2   3
HETATM    3  N   UNL     1      -9.959  14.449  67.858  1.00  0.00    -0.225 N  
HETATM    4  O   UNL     1     -12.251  14.197  68.121  1.00  0.00    -0.306 OA 
HETATM    5  C   UNL     1     -11.236  14.024  67.451  1.00  0.00    -0.311 C  
BRANCH   3   6
HETATM    6  C   UNL     1      -8.742  13.958  67.206  1.00  0.00    -0.217 C  
HETATM    7  C   UNL     1      -7.999  12.812  67.870  1.00  0.00    -0.158 C  
ENDBRANCH   3   6
BRANCH   5   8
HETATM    8  C   UNL     1     -11.370  13.346  66.093  1.00  0.00    -0.324 C  
HETATM    9  C   UNL     1     -12.609  13.719  65.267  1.00  0.00    -0.510 C  
HETATM   10  C   UNL     1     -11.265  14.219  64.829  1.00  0.00    -0.387 C  
BRANCH   8  11
HETATM   11  C   UNL     1     -10.992  11.857  66.090  1.00  0.00    -0.352 A  
HETATM   12  C   UNL     1     -11.137  11.102  67.268  1.00  0.00    -0.366 A  
HETATM   13  C   UNL     1     -10.578   9.828  67.394  1.00  0.00    -0.330 A  
HETATM   14  C   UNL     1     -10.357  11.233  65.002  1.00  0.00    -0.359 A  
HETATM   15  C   UNL     1      -9.874   9.272  66.331  1.00  0.00    -0.347 A  
HETATM   16  C   UNL     1      -9.783   9.964  65.126  1.00  0.00    -0.376 A  
ENDBRANCH   8  11
BRANCH  10  17
HETATM   17  C   UNL     1     -10.912  15.675  64.925  1.00  0.00    -0.431 C  
HETATM   18  N   UNL     1     -11.524  16.420  63.838  1.00  0.00    -1.618 NA 
HETATM   19  H2  UNL     1     -12.533  16.276  63.801  1.00  0.00     0.000 HD 
HETATM   20  H1  UNL     1     -11.284  17.409  63.903  1.00  0.00     0.000 HD 
ENDBRANCH  10  17
ENDBRANCH   5   8
ENDBRANCH   2   3
TORSDOF 5
ENDMDL
MODEL        2
REMARK 921   NORMALIZED FREE ENERGY PREDICTED BY IDOCK:   -5.46 KCAL/MOL
REMARK 922        TOTAL FREE ENERGY PREDICTED BY IDOCK:   -7.55 KCAL/MOL
REMARK 923 INTER-LIGAND FREE ENERGY PREDICTED BY IDOCK:   -7.06 KCAL/MOL
REMARK 924 INTRA-LIGAND FREE ENERGY PREDICTED BY IDOCK:   -0.49 KCAL/MOL
REMARK 927      BINDING AFFINITY PREDICTED BY RF-SCORE:    0.00 PKD
ROOT
HETATM    1  C   UNL     1     -11.581  15.101  68.878  1.00  0.00    -0.361 C  
HETATM    2  C   UNL     1     -10.621  13.991  68.489  1.00  0.00    -0.254 C  
ENDROOT
BRANCH   2   3
HETATM    3  N   UNL     1     -10.523  13.783  67.043  1.00  0.00    -0.272 N  
HETATM    4  O   UNL     1     -12.281  12.270  67.132  1.00  0.00    -0.506 OA 
HETATM    5  C   UNL     1     -11.423  12.859  66.481  1.00  0.00    -0.341 C  
BRANCH   3   6
HETATM    6  C   UNL     1      -9.324  14.223  66.323  1.00  0.00    -0.208 C  
HETATM    7  C   UNL     1      -9.023  15.711  66.298  1.00  0.00    -0.377 C  
ENDBRANCH   3   6
BRANCH   5   8
HETATM    8  C   UNL     1     -11.350  12.605  64.980  1.00  0.00    -0.345 C  
HETATM    9  C   UNL     1     -12.691  12.434  64.254  1.00  0.00    -0.437 C  
HETATM   10  C   UNL     1     -11.897  13.687  64.031  1.00  0.00    -0.444 C  
BRANCH   8  11
HETATM   11  C   UNL     1     -10.236  11.636  64.556  1.00  0.00    -0.337 A  
HETATM   12  C   UNL     1      -9.747  11.672  63.238  1.00  0.00    -0.390 A  
HETATM   13  C   UNL     1      -8.929  10.660  62.732  1.00  0.00    -0.290 A  
HETATM   14  C   UNL     1      -9.776  10.596  65.382  1.00  0.00    -0.306 A  
HETATM   15  C   UNL     1      -8.565   9.593  63.545  1.00  0.00    -0.215 A  
HETATM   16  C   UNL     1      -8.967   9.571  64.878  1.00  0.00    -0.264 A  
ENDBRANCH   8  11
BRANCH  10  17
HETATM   17  C   UNL     1     -12.372  15.009  64.560  1.00  0.00    -0.262 C  
HETATM   18  N   UNL     1     -11.687  16.101  63.890  1.00  0.00    -1.452 NA 
HETATM   19  H2  UNL     1     -11.782  16.042  62.876  1.00  0.00     0.000 HD 
HETATM   20  H1  UNL     1     -12.008  16.999  64.250  1.00  0.00     0.000 HD 
ENDBRANCH  10  17
ENDBRANCH   5   8
ENDBRANCH   2   3
TORSDOF 5
ENDMDL
MODEL        3
REMARK 921   NORMALIZED FREE ENERGY PREDICTED BY IDOCK:   -5.28 KCAL/MOL
REMARK 922        TOTAL FREE ENERGY PREDICTED BY IDOCK:   -7.32 KCAL/MOL
REMARK 923 INTER-LIGAND FREE ENERGY PREDICTED BY IDOCK:   -7.22 KCAL/MOL
REMARK 924 INTRA-LIGAND FREE ENERGY PREDICTED BY IDOCK:   -0.09 KCAL/MOL
REMARK 927      BINDING AFFINITY PREDICTED BY RF-SCORE:    0.00 PKD
ROOT
HETATM    1  C   UNL     1     -10.132  10.058  66.218  1.00  0.00    -0.310 C  
HETATM    2  C   UNL     1      -9.842  11.301  65.397  1.00  0.00    -0.237 C  
ENDROOT
BRANCH   2   3
HETATM    3  N   UNL     1     -10.559  12.490  65.861  1.00  0.00    -0.259 N  
HETATM    4  O   UNL     1      -8.752  13.067  67.199  1.00  0.00    -0.196 OA 
HETATM    5  C   UNL     1      -9.890  13.298  66.798  1.00  0.00    -0.264 C  
BRANCH   3   6
HETATM    6  C   UNL     1     -12.003  12.601  65.643  1.00  0.00    -0.452 C  
HETATM    7  C   UNL     1     -12.536  12.271  64.260  1.00  0.00    -0.508 C  
ENDBRANCH   3   6
BRANCH   5   8
HETATM    8  C   UNL     1     -10.603  14.542  67.315  1.00  0.00    -0.280 C  
HETATM    9  C   UNL     1      -9.788  15.843  67.311  1.00  0.00    -0.234 C  
HETATM   10  C   UNL     1     -10.901  15.677  66.319  1.00  0.00    -0.262 C  
BRANCH   8  11
HETATM   11  C   UNL     1     -11.467  14.302  68.562  1.00  0.00    -0.329 A  
HETATM   12  C   UNL     1     -12.006  15.402  69.255  1.00  0.00    -0.335 A  
HETATM   13  C   UNL     1     -12.578  15.260  70.522  1.00  0.00    -0.450 A  
HETATM   14  C   UNL     1     -11.628  13.034  69.147  1.00  0.00    -0.368 A  
HETATM   15  C   UNL     1     -12.639  14.005  71.117  1.00  0.00    -0.445 A  
HETATM   16  C   UNL     1     -12.187  12.887  70.421  1.00  0.00    -0.381 A  
ENDBRANCH   8  11
BRANCH  10  17
HETATM   17  C   UNL     1     -10.614  15.513  64.855  1.00  0.00    -0.342 C  
HETATM   18  N   UNL     1     -11.486  16.367  64.067  1.00  0.00    -1.573 NA 
HETATM   19  H2  UNL     1     -11.424  17.343  64.358  1.00  0.00     0.000 HD 
HETATM   20  H1  UNL     1     -11.292  16.255  63.072  1.00  0.00     0.000 HD 
ENDBRANCH  10  17
ENDBRANCH   5   8
ENDBRANCH   2   3
TORSDOF 5
ENDMDL
MODEL        4
REMARK 921   NORMALIZED FREE ENERGY PREDICTED BY IDOCK:   -5.08 KCAL/MOL
REMARK 922        TOTAL FREE ENERGY PREDICTED BY IDOCK:   -7.06 KCAL/MOL
REMARK 923 INTER-LIGAND FREE ENERGY PREDICTED BY IDOCK:   -7.26 KCAL/MOL
REMARK 924 INTRA-LIGAND FREE ENERGY PREDICTED BY IDOCK:    0.20 KCAL/MOL
REMARK 927      BINDING AFFINITY PREDICTED BY RF-SCORE:    0.00 PKD
ROOT
HETATM    1  C   UNL     1      -9.875  10.367  64.632  1.00  0.00    -0.405 C  
HETATM    2  C   UNL     1     -10.410  10.469  66.049  1.00  0.00    -0.211 C  
ENDROOT
BRANCH   2   3
HETATM    3  N   UNL     1     -10.254  11.799  66.639  1.00  0.00    -0.206 N  
HETATM    4  O   UNL     1     -12.365  12.393  65.879  1.00  0.00    -0.638 OA 
HETATM    5  C   UNL     1     -11.326  12.692  66.461  1.00  0.00    -0.326 C  
BRANCH   3   6
HETATM    6  C   UNL     1      -8.925  12.265  67.046  1.00  0.00    -0.204 C  
HETATM    7  C   UNL     1      -8.330  11.680  68.314  1.00  0.00    -0.159 C  
ENDBRANCH   3   6
BRANCH   5   8
HETATM    8  C   UNL     1     -11.202  14.092  67.052  1.00  0.00    -0.325 C  
HETATM    9  C   UNL     1      -9.888  14.833  66.772  1.00  0.00    -0.263 C  
HETATM   10  C   UNL     1     -11.141  15.288  66.085  1.00  0.00    -0.280 C  
BRANCH   8  11
HETATM   11  C   UNL     1     -11.750  14.225  68.482  1.00  0.00    -0.376 A  
HETATM   12  C   UNL     1     -11.760  15.485  69.106  1.00  0.00    -0.380 A  
HETATM   13  C   UNL     1     -12.004  15.621  70.475  1.00  0.00    -0.417 A  
HETATM   14  C   UNL     1     -12.106  13.116  69.268  1.00  0.00    -0.270 A  
HETATM   15  C   UNL     1     -12.262  14.495  71.248  1.00  0.00    -0.421 A  
HETATM   16  C   UNL     1     -12.337  13.244  70.642  1.00  0.00    -0.416 A  
ENDBRANCH   8  11
BRANCH  10  17
HETATM   17  C   UNL     1     -11.328  15.095  64.608  1.00  0.00    -0.356 C  
HETATM   18  N   UNL     1     -11.545  16.373  63.952  1.00  0.00    -1.602 NA 
HETATM   19  H2  UNL     1     -10.797  17.036  64.156  1.00  0.00     0.000 HD 
HETATM   20  H1  UNL     1     -11.672  16.243  62.948  1.00  0.00     0.000 HD 
ENDBRANCH  10  17
ENDBRANCH   5   8
ENDBRANCH   2   3
TORSDOF 5
ENDMDL
MODEL        5
REMARK 921   NORMALIZED FREE ENERGY PREDICTED BY IDOCK:   -4.94 KCAL/MOL
REMARK 922        TOTAL FREE ENERGY PREDICTED BY IDOCK:   -6.88 KCAL/MOL
REMARK 923 INTER-LIGAND FREE ENERGY PREDICTED BY IDOCK:   -6.56 KCAL/MOL
REMARK 924 INTRA-LIGAND FREE ENERGY PREDICTED BY IDOCK:   -0.32 KCAL/MOL
REMARK 927      BINDING AFFINITY PREDICTED BY RF-SCORE:    0.00 PKD
ROOT
HETATM    1  C   UNL     1      -8.920  16.850  67.299  1.00  0.00    -0.212 C  
HETATM    2  C   UNL     1      -8.798  15.884  66.135  1.00  0.00    -0.328 C  
ENDROOT
BRANCH   2   3
HETATM    3  N   UNL     1      -9.459  14.599  66.369  1.00  0.00    -0.290 N  
HETATM    4  O   UNL     1     -11.315  15.328  65.181  1.00  0.00    -0.357 OA 
HETATM    5  C   UNL     1     -10.754  14.456  65.840  1.00  0.00    -0.306 C  
BRANCH   3   6
HETATM    6  C   UNL     1      -8.946  13.693  67.401  1.00  0.00    -0.218 C  
HETATM    7  C   UNL     1      -8.038  12.560  66.956  1.00  0.00    -0.105 C  
ENDBRANCH   3   6
BRANCH   5   8
HETATM    8  C   UNL     1     -11.484  13.137  66.067  1.00  0.00    -0.370 C  
HETATM    9  C   UNL     1     -12.550  12.763  65.028  1.00  0.00    -0.538 C  
HETATM   10  C   UNL     1     -11.260  11.998  65.056  1.00  0.00    -0.374 C  
BRANCH   8  11
HETATM   11  C   UNL     1     -11.859  12.867  67.532  1.00  0.00    -0.407 A  
HETATM   12  C   UNL     1     -12.145  13.947  68.387  1.00  0.00    -0.327 A  
HETATM   13  C   UNL     1     -12.240  13.781  69.770  1.00  0.00    -0.368 A  
HETATM   14  C   UNL     1     -11.784  11.590  68.116  1.00  0.00    -0.357 A  
HETATM   15  C   UNL     1     -12.068  12.520  70.330  1.00  0.00    -0.373 A  
HETATM   16  C   UNL     1     -11.864  11.419  69.502  1.00  0.00    -0.426 A  
ENDBRANCH   8  11
BRANCH  10  17
HETATM   17  C   UNL     1     -10.254  12.135  63.950  1.00  0.00    -0.400 C  
HETATM   18  N   UNL     1     -10.560  11.215  62.868  1.00  0.00    -0.800 NA 
HETATM   19  H2  UNL     1     -11.515  11.333  62.529  1.00  0.00     0.000 HD 
HETATM   20  H1  UNL     1      -9.877  11.308  62.116  1.00  0.00     0.000 HD 
ENDBRANCH  10  17
ENDBRANCH   5   8
ENDBRANCH   2   3
TORSDOF 5
ENDMDL
MODEL        6
REMARK 921   NORMALIZED FREE ENERGY PREDICTED BY IDOCK:   -4.90 KCAL/MOL
REMARK 922        TOTAL FREE ENERGY PREDICTED BY IDOCK:   -6.83 KCAL/MOL
REMARK 923 INTER-LIGAND FREE ENERGY PREDICTED BY IDOCK:   -6.32 KCAL/MOL
REMARK 924 INTRA-LIGAND FREE ENERGY PREDICTED BY IDOCK:   -0.51 KCAL/MOL
REMARK 927      BINDING AFFINITY PREDICTED BY RF-SCORE:    0.00 PKD
ROOT
HETATM    1  C   UNL     1      -8.056  16.716  67.577  1.00  0.00    -0.184 C  
HETATM    2  C   UNL     1      -8.333  15.835  66.372  1.00  0.00    -0.232 C  
ENDROOT
BRANCH   2   3
HETATM    3  N   UNL     1      -9.193  14.689  66.669  1.00  0.00    -0.259 N  
HETATM    4  O   UNL     1     -11.024  15.831  65.814  1.00  0.00    -0.298 OA 
HETATM    5  C   UNL     1     -10.556  14.830  66.348  1.00  0.00    -0.300 C  
BRANCH   3   6
HETATM    6  C   UNL     1      -8.722  13.641  67.578  1.00  0.00    -0.198 C  
HETATM    7  C   UNL     1      -8.008  12.447  66.969  1.00  0.00    -0.106 C  
ENDBRANCH   3   6
BRANCH   5   8
HETATM    8  C   UNL     1     -11.490  13.664  66.649  1.00  0.00    -0.365 C  
HETATM    9  C   UNL     1     -12.766  13.580  65.800  1.00  0.00    -0.433 C  
HETATM   10  C   UNL     1     -11.672  12.580  65.571  1.00  0.00    -0.457 C  
BRANCH   8  11
HETATM   11  C   UNL     1     -11.666  13.364  68.146  1.00  0.00    -0.397 A  
HETATM   12  C   UNL     1     -11.649  12.031  68.594  1.00  0.00    -0.372 A  
HETATM   13  C   UNL     1     -12.053  11.688  69.886  1.00  0.00    -0.373 A  
HETATM   14  C   UNL     1     -11.998  14.353  69.087  1.00  0.00    -0.357 A  
HETATM   15  C   UNL     1     -12.467  12.680  70.768  1.00  0.00    -0.357 A  
HETATM   16  C   UNL     1     -12.417  14.016  70.378  1.00  0.00    -0.418 A  
ENDBRANCH   8  11
BRANCH  10  17
HETATM   17  C   UNL     1     -10.856  12.600  64.312  1.00  0.00    -0.379 C  
HETATM   18  N   UNL     1     -11.664  13.043  63.188  1.00  0.00    -0.830 NA 
HETATM   19  H2  UNL     1     -12.103  13.946  63.370  1.00  0.00     0.000 HD 
HETATM   20  H1  UNL     1     -11.109  13.057  62.332  1.00  0.00     0.000 HD 
ENDBRANCH  10  17
ENDBRANCH   5   8
ENDBRANCH   2   3
TORSDOF 5
ENDMDL
MODEL        7
REMARK 921   NORMALIZED FREE ENERGY PREDICTED BY IDOCK:   -4.77 KCAL/MOL
REMARK 922        TOTAL FREE ENERGY PREDICTED BY IDOCK:   -6.66 KCAL/MOL
REMARK 923 INTER-LIGAND FREE ENERGY PREDICTED BY IDOCK:   -6.20 KCAL/MOL
REMARK 924 INTRA-LIGAND FREE ENERGY PREDICTED BY IDOCK:   -0.47 KCAL/MOL
REMARK 927      BINDING AFFINITY PREDICTED BY RF-SCORE:    0.00 PKD
ROOT
HETATM    1  C   UNL     1      -7.446  15.729  68.590  1.00  0.00    -0.151 C  
HETATM    2  C   UNL     1      -7.631  14.896  67.334  1.00  0.00    -0.204 C  
ENDROOT
BRANCH   2   3
HETATM    3  N   UNL     1      -9.030  14.580  67.043  1.00  0.00    -0.229 N  
HETATM    4  O   UNL     1      -8.893  12.695  68.390  1.00  0.00    -0.180 OA 
HETATM    5  C   UNL     1      -9.544  13.412  67.636  1.00  0.00    -0.219 C  
BRANCH   3   6
HETATM    6  C   UNL     1      -9.706  15.231  65.918  1.00  0.00    -0.355 C  
HETATM    7  C   UNL     1     -10.166  16.666  66.106  1.00  0.00    -0.360 C  
ENDBRANCH   3   6
BRANCH   5   8
HETATM    8  C   UNL     1     -10.995  13.039  67.352  1.00  0.00    -0.284 C  
HETATM    9  C   UNL     1     -11.772  12.406  68.514  1.00  0.00    -0.373 C  
HETATM   10  C   UNL     1     -12.102  13.808  68.097  1.00  0.00    -0.316 C  
BRANCH   8  11
HETATM   11  C   UNL     1     -11.227  12.405  65.972  1.00  0.00    -0.374 A  
HETATM   12  C   UNL     1     -10.236  11.578  65.413  1.00  0.00    -0.311 A  
HETATM   13  C   UNL     1     -10.280  11.187  64.073  1.00  0.00    -0.419 A  
HETATM   14  C   UNL     1     -12.324  12.732  65.158  1.00  0.00    -0.555 A  
HETATM   15  C   UNL     1     -11.332  11.602  63.264  1.00  0.00    -0.288 A  
HETATM   16  C   UNL     1     -12.367  12.355  63.812  1.00  0.00    -0.625 A  
ENDBRANCH   8  11
BRANCH  10  17
HETATM   17  C   UNL     1     -11.771  14.976  68.978  1.00  0.00    -0.325 C  
HETATM   18  N   UNL     1     -12.824  15.190  69.957  1.00  0.00    -0.628 NA 
HETATM   19  H2  UNL     1     -13.013  14.347  70.499  1.00  0.00     0.000 HD 
HETATM   20  H1  UNL     1     -12.599  15.984  70.555  1.00  0.00     0.000 HD 
ENDBRANCH  10  17
ENDBRANCH   5   8
ENDBRANCH   2   3
TORSDOF 5
ENDMDL
MODEL        8
REMARK 921   NORMALIZED FREE ENERGY PREDICTED BY IDOCK:   -4.76 KCAL/MOL
REMARK 922        TOTAL FREE ENERGY PREDICTED BY IDOCK:   -6.65 KCAL/MOL
REMARK 923 INTER-LIGAND FREE ENERGY PREDICTED BY IDOCK:   -6.07 KCAL/MOL
REMARK 924 INTRA-LIGAND FREE ENERGY PREDICTED BY IDOCK:   -0.58 KCAL/MOL
REMARK 927      BINDING AFFINITY PREDICTED BY RF-SCORE:    0.00 PKD
ROOT
HETATM    1  C   UNL     1      -7.497  16.471  68.455  1.00  0.00    -0.193 C  
HETATM    2  C   UNL     1      -7.615  15.482  67.310  1.00  0.00    -0.218 C  
ENDROOT
BRANCH   2   3
HETATM    3  N   UNL     1      -8.996  15.107  67.001  1.00  0.00    -0.218 N  
HETATM    4  O   UNL     1      -8.760  13.171  68.259  1.00  0.00    -0.176 OA 
HETATM    5  C   UNL     1      -9.448  13.888  67.537  1.00  0.00    -0.216 C  
BRANCH   3   6
HETATM    6  C   UNL     1      -9.704  15.774  65.905  1.00  0.00    -0.354 C  
HETATM    7  C   UNL     1     -10.380  17.100  66.205  1.00  0.00    -0.327 C  
ENDBRANCH   3   6
BRANCH   5   8
HETATM    8  C   UNL     1     -10.877  13.453  67.233  1.00  0.00    -0.278 C  
HETATM    9  C   UNL     1     -11.596  12.665  68.336  1.00  0.00    -0.370 C  
HETATM   10  C   UNL     1     -12.018  14.077  68.057  1.00  0.00    -0.386 C  
BRANCH   8  11
HETATM   11  C   UNL     1     -11.090  12.940  65.801  1.00  0.00    -0.312 A  
HETATM   12  C   UNL     1     -12.323  13.160  65.160  1.00  0.00    -0.525 A  
HETATM   13  C   UNL     1     -12.659  12.504  63.974  1.00  0.00    -0.481 A  
HETATM   14  C   UNL     1     -10.162  12.117  65.140  1.00  0.00    -0.308 A  
HETATM   15  C   UNL     1     -11.755  11.623  63.390  1.00  0.00    -0.325 A  
HETATM   16  C   UNL     1     -10.497  11.447  63.959  1.00  0.00    -0.435 A  
ENDBRANCH   8  11
BRANCH  10  17
HETATM   17  C   UNL     1     -11.746  15.175  69.043  1.00  0.00    -0.335 C  
HETATM   18  N   UNL     1     -12.764  15.192  70.080  1.00  0.00    -0.609 NA 
HETATM   19  H2  UNL     1     -12.853  14.285  70.538  1.00  0.00     0.000 HD 
HETATM   20  H1  UNL     1     -12.580  15.939  70.749  1.00  0.00     0.000 HD 
ENDBRANCH  10  17
ENDBRANCH   5   8
ENDBRANCH   2   3
TORSDOF 5
ENDMDL
MODEL        9
REMARK 921   NORMALIZED FREE ENERGY PREDICTED BY IDOCK:   -4.76 KCAL/MOL
REMARK 922        TOTAL FREE ENERGY PREDICTED BY IDOCK:   -6.65 KCAL/MOL
REMARK 923 INTER-LIGAND FREE ENERGY PREDICTED BY IDOCK:   -6.97 KCAL/MOL
REMARK 924 INTRA-LIGAND FREE ENERGY PREDICTED BY IDOCK:    0.33 KCAL/MOL
REMARK 927      BINDING AFFINITY PREDICTED BY RF-SCORE:    0.00 PKD
ROOT
HETATM    1  C   UNL     1      -8.146  16.796  66.322  1.00  0.00    -0.365 C  
HETATM    2  C   UNL     1      -8.310  15.340  66.719  1.00  0.00    -0.223 C  
ENDROOT
BRANCH   2   3
HETATM    3  N   UNL     1      -9.707  14.927  66.864  1.00  0.00    -0.233 N  
HETATM    4  O   UNL     1      -9.164  12.799  66.113  1.00  0.00    -0.162 OA 
HETATM    5  C   UNL     1     -10.008  13.602  66.500  1.00  0.00    -0.288 C  
BRANCH   3   6
HETATM    6  C   UNL     1     -10.756  15.940  67.012  1.00  0.00    -0.292 C  
HETATM    7  C   UNL     1     -11.084  16.415  68.416  1.00  0.00    -0.351 C  
ENDBRANCH   3   6
BRANCH   5   8
HETATM    8  C   UNL     1     -11.453  13.131  66.627  1.00  0.00    -0.389 C  
HETATM    9  C   UNL     1     -12.527  14.086  66.088  1.00  0.00    -0.467 C  
HETATM   10  C   UNL     1     -12.233  12.823  65.336  1.00  0.00    -0.532 C  
BRANCH   8  11
HETATM   11  C   UNL     1     -11.780  12.446  67.962  1.00  0.00    -0.414 A  
HETATM   12  C   UNL     1     -12.158  13.228  69.069  1.00  0.00    -0.268 A  
HETATM   13  C   UNL     1     -12.217  12.692  70.358  1.00  0.00    -0.368 A  
HETATM   14  C   UNL     1     -11.574  11.074  68.186  1.00  0.00    -0.345 A  
HETATM   15  C   UNL     1     -11.917  11.350  70.564  1.00  0.00    -0.451 A  
HETATM   16  C   UNL     1     -11.619  10.534  69.476  1.00  0.00    -0.332 A  
ENDBRANCH   8  11
BRANCH  10  17
HETATM   17  C   UNL     1     -11.555  12.859  63.997  1.00  0.00    -0.426 C  
HETATM   18  N   UNL     1     -12.285  13.718  63.080  1.00  0.00    -1.066 NA 
HETATM   19  H2  UNL     1     -12.418  14.654  63.463  1.00  0.00     0.000 HD 
HETATM   20  H1  UNL     1     -11.824  13.742  62.170  1.00  0.00     0.000 HD 
ENDBRANCH  10  17
ENDBRANCH   5   8
ENDBRANCH   2   3
TORSDOF 5
ENDMDL
MODEL       10
REMARK 921   NORMALIZED FREE ENERGY PREDICTED BY IDOCK:   -4.75 KCAL/MOL
REMARK 922        TOTAL FREE ENERGY PREDICTED BY IDOCK:   -6.63 KCAL/MOL
REMARK 923 INTER-LIGAND FREE ENERGY PREDICTED BY IDOCK:   -6.02 KCAL/MOL
REMARK 924 INTRA-LIGAND FREE ENERGY PREDICTED BY IDOCK:   -0.61 KCAL/MOL
REMARK 927      BINDING AFFINITY PREDICTED BY RF-SCORE:    0.00 PKD
ROOT
HETATM    1  C   UNL     1     -12.035  12.470  65.628  1.00  0.00    -0.492 C  
HETATM    2  C   UNL     1     -12.208  13.784  66.368  1.00  0.00    -0.436 C  
ENDROOT
BRANCH   2   3
HETATM    3  N   UNL     1     -10.999  14.610  66.385  1.00  0.00    -0.319 N  
HETATM    4  O   UNL     1     -11.181  14.841  68.688  1.00  0.00    -0.249 OA 
HETATM    5  C   UNL     1     -10.596  15.101  67.640  1.00  0.00    -0.263 C  
BRANCH   3   6
HETATM    6  C   UNL     1     -10.489  15.180  65.136  1.00  0.00    -0.410 C  
HETATM    7  C   UNL     1     -11.433  16.041  64.316  1.00  0.00    -0.162 C  
ENDBRANCH   3   6
BRANCH   5   8
HETATM    8  C   UNL     1      -9.347  15.973  67.704  1.00  0.00    -0.214 C  
HETATM    9  C   UNL     1      -8.480  15.827  68.962  1.00  0.00    -0.242 C  
HETATM   10  C   UNL     1      -7.973  15.280  67.661  1.00  0.00    -0.177 C  
BRANCH   8  11
HETATM   11  C   UNL     1      -9.553  17.410  67.200  1.00  0.00    -0.265 A  
HETATM   12  C   UNL     1      -8.484  18.091  66.590  1.00  0.00    -0.283 A  
HETATM   13  C   UNL     1      -8.536  19.466  66.348  1.00  0.00    -0.372 A  
HETATM   14  C   UNL     1     -10.721  18.147  67.456  1.00  0.00    -0.365 A  
HETATM   15  C   UNL     1      -9.671  20.188  66.696  1.00  0.00    -0.568 A  
HETATM   16  C   UNL     1     -10.775  19.526  67.228  1.00  0.00    -0.604 A  
ENDBRANCH   8  11
BRANCH  10  17
HETATM   17  C   UNL     1      -7.862  13.800  67.434  1.00  0.00    -0.153 C  
HETATM   18  N   UNL     1      -6.490  13.434  67.124  1.00  0.00    -0.451 NA 
HETATM   19  H2  UNL     1      -5.841  13.757  67.841  1.00  0.00     0.000 HD 
HETATM   20  H1  UNL     1      -6.415  12.429  66.969  1.00  0.00     0.000 HD 
ENDBRANCH  10  17
ENDBRANCH   5   8
ENDBRANCH   2   3
TORSDOF 5
ENDMDL
MODEL       11
REMARK 921   NORMALIZED FREE ENERGY PREDICTED BY IDOCK:   -4.75 KCAL/MOL
REMARK 922        TOTAL FREE ENERGY PREDICTED BY IDOCK:   -6.63 KCAL/MOL
REMARK 923 INTER-LIGAND FREE ENERGY PREDICTED BY IDOCK:   -6.15 KCAL/MOL
REMARK 924 INTRA-LIGAND FREE ENERGY PREDICTED BY IDOCK:   -0.48 KCAL/MOL
REMARK 927      BINDING AFFINITY PREDICTED BY RF-SCORE:    0.00 PKD
ROOT
HETATM    1  C   UNL     1     -10.170  11.822  63.478  1.00  0.00    -0.483 C  
HETATM    2  C   UNL     1     -10.533  11.324  64.865  1.00  0.00    -0.314 C  
ENDROOT
BRANCH   2   3
HETATM    3  N   UNL     1     -10.794  12.399  65.823  1.00  0.00    -0.268 N  
HETATM    4  O   UNL     1      -8.820  11.896  66.938  1.00  0.00    -0.185 OA 
HETATM    5  C   UNL     1      -9.843  12.570  66.846  1.00  0.00    -0.227 C  
BRANCH   3   6
HETATM    6  C   UNL     1     -12.134  12.985  65.914  1.00  0.00    -0.444 C  
HETATM    7  C   UNL     1     -12.442  14.181  65.032  1.00  0.00    -0.434 C  
ENDBRANCH   3   6
BRANCH   5   8
HETATM    8  C   UNL     1     -10.079  13.673  67.871  1.00  0.00    -0.244 C  
HETATM    9  C   UNL     1      -8.827  14.381  68.407  1.00  0.00    -0.182 C  
HETATM   10  C   UNL     1      -9.738  15.121  67.474  1.00  0.00    -0.205 C  
BRANCH   8  11
HETATM   11  C   UNL     1     -11.157  13.345  68.916  1.00  0.00    -0.307 A  
HETATM   12  C   UNL     1     -11.807  14.392  69.595  1.00  0.00    -0.372 A  
HETATM   13  C   UNL     1     -12.599  14.152  70.720  1.00  0.00    -0.432 A  
HETATM   14  C   UNL     1     -11.427  12.035  69.347  1.00  0.00    -0.361 A  
HETATM   15  C   UNL     1     -12.774  12.852  71.181  1.00  0.00    -0.366 A  
HETATM   16  C   UNL     1     -12.208  11.790  70.481  1.00  0.00    -0.438 A  
ENDBRANCH   8  11
BRANCH  10  17
HETATM   17  C   UNL     1      -9.308  15.456  66.075  1.00  0.00    -0.329 C  
HETATM   18  N   UNL     1      -9.990  16.650  65.606  1.00  0.00    -0.563 NA 
HETATM   19  H2  UNL     1      -9.859  17.437  66.242  1.00  0.00     0.000 HD 
HETATM   20  H1  UNL     1      -9.699  16.878  64.655  1.00  0.00     0.000 HD 
ENDBRANCH  10  17
ENDBRANCH   5   8
ENDBRANCH   2   3
TORSDOF 5
ENDMDL
MODEL       12
REMARK 921   NORMALIZED FREE ENERGY PREDICTED BY IDOCK:   -4.74 KCAL/MOL
REMARK 922        TOTAL FREE ENERGY PREDICTED BY IDOCK:   -6.62 KCAL/MOL
REMARK 923 INTER-LIGAND FREE ENERGY PREDICTED BY IDOCK:   -6.61 KCAL/MOL
REMARK 924 INTRA-LIGAND FREE ENERGY PREDICTED BY IDOCK:   -0.01 KCAL/MOL
REMARK 927      BINDING AFFINITY PREDICTED BY RF-SCORE:    0.00 PKD
ROOT
HETATM    1  C   UNL     1      -9.274   9.474  65.415  1.00  0.00    -0.306 C  
HETATM    2  C   UNL     1      -8.925  10.882  64.970  1.00  0.00    -0.168 C  
ENDROOT
BRANCH   2   3
HETATM    3  N   UNL     1      -9.430  11.921  65.870  1.00  0.00    -0.232 N  
HETATM    4  O   UNL     1     -11.430  11.980  64.695  1.00  0.00    -0.324 OA 
HETATM    5  C   UNL     1     -10.722  12.408  65.603  1.00  0.00    -0.264 C  
BRANCH   3   6
HETATM    6  C   UNL     1      -8.499  12.650  66.736  1.00  0.00    -0.049 C  
HETATM    7  C   UNL     1      -8.161  12.037  68.083  1.00  0.00    -0.163 C  
ENDBRANCH   3   6
BRANCH   5   8
HETATM    8  C   UNL     1     -11.284  13.497  66.509  1.00  0.00    -0.322 C  
HETATM    9  C   UNL     1     -10.509  14.822  66.538  1.00  0.00    -0.291 C  
HETATM   10  C   UNL     1     -11.843  14.772  65.854  1.00  0.00    -0.204 C  
BRANCH   8  11
HETATM   11  C   UNL     1     -11.786  12.990  67.870  1.00  0.00    -0.402 A  
HETATM   12  C   UNL     1     -12.033  13.909  68.905  1.00  0.00    -0.393 A  
HETATM   13  C   UNL     1     -12.242  13.490  70.221  1.00  0.00    -0.417 A  
HETATM   14  C   UNL     1     -11.869  11.624  68.191  1.00  0.00    -0.315 A  
HETATM   15  C   UNL     1     -12.226  12.134  70.528  1.00  0.00    -0.392 A  
HETATM   16  C   UNL     1     -12.064  11.199  69.509  1.00  0.00    -0.396 A  
ENDBRANCH   8  11
BRANCH  10  17
HETATM   17  C   UNL     1     -11.953  14.889  64.362  1.00  0.00    -0.394 C  
HETATM   18  N   UNL     1     -11.583  16.225  63.927  1.00  0.00    -1.573 NA 
HETATM   19  H2  UNL     1     -10.656  16.489  64.261  1.00  0.00     0.000 HD 
HETATM   20  H1  UNL     1     -11.658  16.304  62.913  1.00  0.00     0.000 HD 
ENDBRANCH  10  17
ENDBRANCH   5   8
ENDBRANCH   2   3
TORSDOF 5
ENDMDL
MODEL       13
REMARK 921   NORMALIZED FREE ENERGY PREDICTED BY IDOCK:   -4.67 KCAL/MOL
REMARK 922        TOTAL FREE ENERGY PREDICTED BY IDOCK:   -6.52 KCAL/MOL
REMARK 923 INTER-LIGAND FREE ENERGY PREDICTED BY IDOCK:   -6.07 KCAL/MOL
REMARK 924 INTRA-LIGAND FREE ENERGY PREDICTED BY IDOCK:   -0.45 KCAL/MOL
REMARK 927      BINDING AFFINITY PREDICTED BY RF-SCORE:    0.00 PKD
ROOT
HETATM    1  C   UNL     1     -11.801  14.664  71.255  1.00  0.00    -0.378 C  
HETATM    2  C   UNL     1     -12.513  13.987  70.099  1.00  0.00    -0.319 C  
ENDROOT
BRANCH   2   3
HETATM    3  N   UNL     1     -11.611  13.549  69.031  1.00  0.00    -0.288 N  
HETATM    4  O   UNL     1     -11.760  15.641  68.037  1.00  0.00    -0.306 OA 
HETATM    5  C   UNL     1     -11.324  14.494  68.029  1.00  0.00    -0.306 C  
BRANCH   3   6
HETATM    6  C   UNL     1     -11.348  12.121  68.839  1.00  0.00    -0.283 C  
HETATM    7  C   UNL     1     -11.807  11.167  69.928  1.00  0.00    -0.439 C  
ENDBRANCH   3   6
BRANCH   5   8
HETATM    8  C   UNL     1     -10.397  14.078  66.893  1.00  0.00    -0.269 C  
HETATM    9  C   UNL     1      -9.493  15.177  66.318  1.00  0.00    -0.341 C  
HETATM   10  C   UNL     1      -8.879  14.092  67.151  1.00  0.00    -0.239 C  
BRANCH   8  11
HETATM   11  C   UNL     1     -11.041  13.139  65.862  1.00  0.00    -0.298 A  
HETATM   12  C   UNL     1     -10.235  12.230  65.151  1.00  0.00    -0.305 A  
HETATM   13  C   UNL     1     -10.718  11.541  64.036  1.00  0.00    -0.445 A  
HETATM   14  C   UNL     1     -12.387  13.242  65.473  1.00  0.00    -0.533 A  
HETATM   15  C   UNL     1     -12.030  11.734  63.617  1.00  0.00    -0.490 A  
HETATM   16  C   UNL     1     -12.873  12.566  64.349  1.00  0.00    -0.366 A  
ENDBRANCH   8  11
BRANCH  10  17
HETATM   17  C   UNL     1      -8.332  14.381  68.518  1.00  0.00    -0.157 C  
HETATM   18  N   UNL     1      -7.818  13.167  69.128  1.00  0.00    -0.309 NA 
HETATM   19  H2  UNL     1      -7.128  12.707  68.533  1.00  0.00     0.000 HD 
HETATM   20  H1  UNL     1      -7.446  13.363  70.057  1.00  0.00     0.000 HD 
ENDBRANCH  10  17
ENDBRANCH   5   8
ENDBRANCH   2   3
TORSDOF 5
ENDMDL
MODEL       14
REMARK 921   NORMALIZED FREE ENERGY PREDICTED BY IDOCK:   -4.63 KCAL/MOL
REMARK 922        TOTAL FREE ENERGY PREDICTED BY IDOCK:   -6.47 KCAL/MOL
REMARK 923 INTER-LIGAND FREE ENERGY PREDICTED BY IDOCK:   -6.67 KCAL/MOL
REMARK 924 INTRA-LIGAND FREE ENERGY PREDICTED BY IDOCK:    0.20 KCAL/MOL
REMARK 927      BINDING AFFINITY PREDICTED BY RF-SCORE:    0.00 PKD
ROOT
HETATM    1  C   UNL     1      -7.209  15.046  67.601  1.00  0.00    -0.208 C  
HETATM    2  C   UNL     1      -8.220  15.561  66.593  1.00  0.00    -0.209 C  
ENDROOT
BRANCH   2   3
HETATM    3  N   UNL     1      -9.596  15.157  66.887  1.00  0.00    -0.231 N  
HETATM    4  O   UNL     1      -9.190  13.067  65.963  1.00  0.00    -0.089 OA 
HETATM    5  C   UNL     1      -9.965  13.858  66.493  1.00  0.00    -0.285 C  
BRANCH   3   6
HETATM    6  C   UNL     1     -10.599  16.174  67.217  1.00  0.00    -0.305 C  
HETATM    7  C   UNL     1     -10.433  16.930  68.523  1.00  0.00    -0.361 C  
ENDBRANCH   3   6
BRANCH   5   8
HETATM    8  C   UNL     1     -11.392  13.400  66.772  1.00  0.00    -0.353 C  
HETATM    9  C   UNL     1     -12.512  14.301  66.234  1.00  0.00    -0.329 C  
HETATM   10  C   UNL     1     -12.266  12.976  65.577  1.00  0.00    -0.521 C  
BRANCH   8  11
HETATM   11  C   UNL     1     -11.611  12.838  68.184  1.00  0.00    -0.380 A  
HETATM   12  C   UNL     1     -11.568  11.447  68.393  1.00  0.00    -0.385 A  
HETATM   13  C   UNL     1     -12.007  10.872  69.588  1.00  0.00    -0.414 A  
HETATM   14  C   UNL     1     -12.008  13.637  69.270  1.00  0.00    -0.384 A  
HETATM   15  C   UNL     1     -12.482  11.683  70.613  1.00  0.00    -0.386 A  
HETATM   16  C   UNL     1     -12.461  13.067  70.464  1.00  0.00    -0.306 A  
ENDBRANCH   8  11
BRANCH  10  17
HETATM   17  C   UNL     1     -11.693  12.891  64.193  1.00  0.00    -0.406 C  
HETATM   18  N   UNL     1     -12.392  13.797  63.297  1.00  0.00    -1.124 NA 
HETATM   19  H2  UNL     1     -12.392  14.754  63.649  1.00  0.00     0.000 HD 
HETATM   20  H1  UNL     1     -12.002  13.739  62.356  1.00  0.00     0.000 HD 
ENDBRANCH  10  17
ENDBRANCH   5   8
ENDBRANCH   2   3
TORSDOF 5
ENDMDL
MODEL       15
REMARK 921   NORMALIZED FREE ENERGY PREDICTED BY IDOCK:   -4.62 KCAL/MOL
REMARK 922        TOTAL FREE ENERGY PREDICTED BY IDOCK:   -6.46 KCAL/MOL
REMARK 923 INTER-LIGAND FREE ENERGY PREDICTED BY IDOCK:   -6.43 KCAL/MOL
REMARK 924 INTRA-LIGAND FREE ENERGY PREDICTED BY IDOCK:   -0.03 KCAL/MOL
REMARK 927      BINDING AFFINITY PREDICTED BY RF-SCORE:    0.00 PKD
ROOT
HETATM    1  C   UNL     1      -9.061  10.177  69.042  1.00  0.00    -0.176 C  
HETATM    2  C   UNL     1      -9.337  10.579  67.604  1.00  0.00    -0.149 C  
ENDROOT
BRANCH   2   3
HETATM    3  N   UNL     1      -9.701  11.989  67.450  1.00  0.00    -0.181 N  
HETATM    4  O   UNL     1     -11.922  11.390  67.143  1.00  0.00    -0.532 OA 
HETATM    5  C   UNL     1     -11.058  12.260  67.199  1.00  0.00    -0.278 C  
BRANCH   3   6
HETATM    6  C   UNL     1      -8.658  12.987  67.200  1.00  0.00    -0.195 C  
HETATM    7  C   UNL     1      -8.104  13.744  68.394  1.00  0.00    -0.148 C  
ENDBRANCH   3   6
BRANCH   5   8
HETATM    8  C   UNL     1     -11.480  13.715  67.023  1.00  0.00    -0.368 C  
HETATM    9  C   UNL     1     -10.761  14.501  65.918  1.00  0.00    -0.308 C  
HETATM   10  C   UNL     1     -12.196  14.112  65.719  1.00  0.00    -0.458 C  
BRANCH   8  11
HETATM   11  C   UNL     1     -11.703  14.472  68.341  1.00  0.00    -0.367 A  
HETATM   12  C   UNL     1     -11.185  15.771  68.492  1.00  0.00    -0.354 A  
HETATM   13  C   UNL     1     -11.136  16.399  69.738  1.00  0.00    -0.305 A  
HETATM   14  C   UNL     1     -12.275  13.874  69.477  1.00  0.00    -0.356 A  
HETATM   15  C   UNL     1     -11.625  15.745  70.863  1.00  0.00    -0.440 A  
HETATM   16  C   UNL     1     -12.217  14.492  70.730  1.00  0.00    -0.403 A  
ENDBRANCH   8  11
BRANCH  10  17
HETATM   17  C   UNL     1     -12.584  13.075  64.706  1.00  0.00    -0.397 C  
HETATM   18  N   UNL     1     -12.534  13.631  63.364  1.00  0.00    -1.016 NA 
HETATM   19  H2  UNL     1     -11.623  14.041  63.158  1.00  0.00     0.000 HD 
HETATM   20  H1  UNL     1     -12.798  12.927  62.676  1.00  0.00     0.000 HD 
ENDBRANCH  10  17
ENDBRANCH   5   8
ENDBRANCH   2   3
TORSDOF 5
ENDMDL
MODEL       16
REMARK 921   NORMALIZED FREE ENERGY PREDICTED BY IDOCK:   -4.61 KCAL/MOL
REMARK 922        TOTAL FREE ENERGY PREDICTED BY IDOCK:   -6.45 KCAL/MOL
REMARK 923 INTER-LIGAND FREE ENERGY PREDICTED BY IDOCK:   -5.79 KCAL/MOL
REMARK 924 INTRA-LIGAND FREE ENERGY PREDICTED BY IDOCK:   -0.67 KCAL/MOL
REMARK 927      BINDING AFFINITY PREDICTED BY RF-SCORE:    0.00 PKD
ROOT
HETATM    1  C   UNL     1     -12.126  11.897  63.391  1.00  0.00    -0.539 C  
HETATM    2  C   UNL     1     -12.462  12.618  64.684  1.00  0.00    -0.466 C  
ENDROOT
BRANCH   2   3
HETATM    3  N   UNL     1     -11.288  12.936  65.499  1.00  0.00    -0.299 N  
HETATM    4  O   UNL     1     -12.108  11.603  67.214  1.00  0.00    -0.595 OA 
HETATM    5  C   UNL     1     -11.244  12.362  66.783  1.00  0.00    -0.310 C  
BRANCH   3   6
HETATM    6  C   UNL     1     -10.432  14.067  65.133  1.00  0.00    -0.397 C  
HETATM    7  C   UNL     1     -11.089  15.427  64.973  1.00  0.00    -0.428 C  
ENDBRANCH   3   6
BRANCH   5   8
HETATM    8  C   UNL     1     -10.044  12.674  67.670  1.00  0.00    -0.218 C  
HETATM    9  C   UNL     1      -9.546  11.531  68.564  1.00  0.00    -0.180 C  
HETATM   10  C   UNL     1      -8.719  11.944  67.384  1.00  0.00    -0.166 C  
BRANCH   8  11
HETATM   11  C   UNL     1     -10.087  14.062  68.326  1.00  0.00    -0.246 A  
HETATM   12  C   UNL     1     -11.319  14.591  68.752  1.00  0.00    -0.298 A  
HETATM   13  C   UNL     1     -11.452  15.933  69.116  1.00  0.00    -0.377 A  
HETATM   14  C   UNL     1      -8.968  14.911  68.388  1.00  0.00    -0.183 A  
HETATM   15  C   UNL     1     -10.345  16.774  69.079  1.00  0.00    -0.326 A  
HETATM   16  C   UNL     1      -9.097  16.259  68.739  1.00  0.00    -0.245 A  
ENDBRANCH   8  11
BRANCH  10  17
HETATM   17  C   UNL     1      -8.574  11.048  66.188  1.00  0.00    -0.175 C  
HETATM   18  N   UNL     1      -7.176  10.918  65.816  1.00  0.00    -0.339 NA 
HETATM   19  H2  UNL     1      -6.604  10.601  66.599  1.00  0.00     0.000 HD 
HETATM   20  H1  UNL     1      -7.077  10.310  65.003  1.00  0.00     0.000 HD 
ENDBRANCH  10  17
ENDBRANCH   5   8
ENDBRANCH   2   3
TORSDOF 5
ENDMDL
MODEL       17
REMARK 921   NORMALIZED FREE ENERGY PREDICTED BY IDOCK:   -4.58 KCAL/MOL
REMARK 922        TOTAL FREE ENERGY PREDICTED BY IDOCK:   -6.41 KCAL/MOL
REMARK 923 INTER-LIGAND FREE ENERGY PREDICTED BY IDOCK:   -6.10 KCAL/MOL
REMARK 924 INTRA-LIGAND FREE ENERGY PREDICTED BY IDOCK:   -0.31 KCAL/MOL
REMARK 927      BINDING AFFINITY PREDICTED BY RF-SCORE:    0.00 PKD
ROOT
HETATM    1  C   UNL     1      -9.155   9.808  67.451  1.00  0.00    -0.148 C  
HETATM    2  C   UNL     1      -9.170  10.824  68.578  1.00  0.00    -0.174 C  
ENDROOT
BRANCH   2   3
HETATM    3  N   UNL     1     -10.328  11.720  68.543  1.00  0.00    -0.213 N  
HETATM    4  O   UNL     1      -8.931  13.521  68.102  1.00  0.00    -0.178 OA 
HETATM    5  C   UNL     1     -10.059  13.081  68.307  1.00  0.00    -0.239 C  
BRANCH   3   6
HETATM    6  C   UNL     1     -11.611  11.275  69.092  1.00  0.00    -0.319 C  
HETATM    7  C   UNL     1     -11.621  10.729  70.508  1.00  0.00    -0.425 C  
ENDBRANCH   3   6
BRANCH   5   8
HETATM    8  C   UNL     1     -11.234  14.051  68.270  1.00  0.00    -0.293 C  
HETATM    9  C   UNL     1     -11.183  15.138  67.188  1.00  0.00    -0.320 C  
HETATM   10  C   UNL     1     -12.169  14.016  67.047  1.00  0.00    -0.387 C  
BRANCH   8  11
HETATM   11  C   UNL     1     -11.716  14.512  69.654  1.00  0.00    -0.356 A  
HETATM   12  C   UNL     1     -13.005  14.157  70.094  1.00  0.00     0.039 A  
HETATM   13  C   UNL     1     -13.584  14.753  71.217  1.00  0.00    -0.480 A  
HETATM   14  C   UNL     1     -10.989  15.408  70.455  1.00  0.00    -0.350 A  
HETATM   15  C   UNL     1     -12.876  15.707  71.938  1.00  0.00    -0.522 A  
HETATM   16  C   UNL     1     -11.569  16.018  71.573  1.00  0.00    -0.529 A  
ENDBRANCH   8  11
BRANCH  10  17
HETATM   17  C   UNL     1     -12.006  12.971  65.982  1.00  0.00    -0.440 C  
HETATM   18  N   UNL     1     -13.127  13.007  65.059  1.00  0.00    -0.764 NA 
HETATM   19  H2  UNL     1     -13.261  13.937  64.661  1.00  0.00     0.000 HD 
HETATM   20  H1  UNL     1     -13.017  12.297  64.335  1.00  0.00     0.000 HD 
ENDBRANCH  10  17
ENDBRANCH   5   8
ENDBRANCH   2   3
TORSDOF 5
ENDMDL
MODEL       18
REMARK 921   NORMALIZED FREE ENERGY PREDICTED BY IDOCK:   -4.58 KCAL/MOL
REMARK 922        TOTAL FREE ENERGY PREDICTED BY IDOCK:   -6.41 KCAL/MOL
REMARK 923 INTER-LIGAND FREE ENERGY PREDICTED BY IDOCK:   -6.03 KCAL/MOL
REMARK 924 INTRA-LIGAND FREE ENERGY PREDICTED BY IDOCK:   -0.37 KCAL/MOL
REMARK 927      BINDING AFFINITY PREDICTED BY RF-SCORE:    0.00 PKD
ROOT
HETATM    1  C   UNL     1     -12.028  12.543  63.688  1.00  0.00    -0.621 C  
HETATM    2  C   UNL     1     -12.709  12.792  65.021  1.00  0.00    -0.380 C  
ENDROOT
BRANCH   2   3
HETATM    3  N   UNL     1     -11.804  13.294  66.056  1.00  0.00    -0.375 N  
HETATM    4  O   UNL     1     -11.995  11.288  67.208  1.00  0.00    -0.529 OA 
HETATM    5  C   UNL     1     -11.539  12.425  67.130  1.00  0.00    -0.365 C  
BRANCH   3   6
HETATM    6  C   UNL     1     -11.516  14.729  66.139  1.00  0.00    -0.311 C  
HETATM    7  C   UNL     1     -10.353  15.263  65.322  1.00  0.00    -0.430 C  
ENDBRANCH   3   6
BRANCH   5   8
HETATM    8  C   UNL     1     -10.608  12.911  68.236  1.00  0.00    -0.259 C  
HETATM    9  C   UNL     1      -9.725  11.844  68.897  1.00  0.00     0.041 C  
HETATM   10  C   UNL     1      -9.090  12.853  67.987  1.00  0.00    -0.211 C  
BRANCH   8  11
HETATM   11  C   UNL     1     -11.241  13.936  69.190  1.00  0.00    -0.311 A  
HETATM   12  C   UNL     1     -10.629  15.190  69.367  1.00  0.00    -0.258 A  
HETATM   13  C   UNL     1     -11.010  16.051  70.399  1.00  0.00    -0.347 A  
HETATM   14  C   UNL     1     -12.330  13.630  70.023  1.00  0.00    -0.342 A  
HETATM   15  C   UNL     1     -12.031  15.682  71.267  1.00  0.00    -0.467 A  
HETATM   16  C   UNL     1     -12.708  14.482  71.066  1.00  0.00    -0.413 A  
ENDBRANCH   8  11
BRANCH  10  17
HETATM   17  C   UNL     1      -8.543  12.453  66.648  1.00  0.00    -0.075 C  
HETATM   18  N   UNL     1      -7.112  12.213  66.734  1.00  0.00    -0.381 NA 
HETATM   19  H2  UNL     1      -6.885  11.530  67.456  1.00  0.00     0.000 HD 
HETATM   20  H1  UNL     1      -6.740  11.941  65.824  1.00  0.00     0.000 HD 
ENDBRANCH  10  17
ENDBRANCH   5   8
ENDBRANCH   2   3
TORSDOF 5
ENDMDL
MODEL       19
REMARK 921   NORMALIZED FREE ENERGY PREDICTED BY IDOCK:   -4.56 KCAL/MOL
REMARK 922        TOTAL FREE ENERGY PREDICTED BY IDOCK:   -6.38 KCAL/MOL
REMARK 923 INTER-LIGAND FREE ENERGY PREDICTED BY IDOCK:   -6.61 KCAL/MOL
REMARK 924 INTRA-LIGAND FREE ENERGY PREDICTED BY IDOCK:    0.23 KCAL/MOL
REMARK 927      BINDING AFFINITY PREDICTED BY RF-SCORE:    0.00 PKD
ROOT
HETATM    1  C   UNL     1      -9.495  16.804  68.866  1.00  0.00    -0.246 C  
HETATM    2  C   UNL     1      -9.431  15.308  69.116  1.00  0.00    -0.236 C  
ENDROOT
BRANCH   2   3
HETATM    3  N   UNL     1     -10.403  14.542  68.334  1.00  0.00    -0.235 N  
HETATM    4  O   UNL     1      -8.863  14.335  66.609  1.00  0.00    -0.223 OA 
HETATM    5  C   UNL     1      -9.986  14.120  67.058  1.00  0.00    -0.260 C  
BRANCH   3   6
HETATM    6  C   UNL     1     -11.818  14.556  68.714  1.00  0.00    -0.315 C  
HETATM    7  C   UNL     1     -12.216  13.815  69.978  1.00  0.00    -0.407 C  
ENDBRANCH   3   6
BRANCH   5   8
HETATM    8  C   UNL     1     -10.969  13.326  66.206  1.00  0.00    -0.296 C  
HETATM    9  C   UNL     1     -12.413  13.846  66.174  1.00  0.00    -0.478 C  
HETATM   10  C   UNL     1     -11.556  14.002  64.953  1.00  0.00    -0.369 C  
BRANCH   8  11
HETATM   11  C   UNL     1     -10.813  11.802  66.314  1.00  0.00    -0.325 A  
HETATM   12  C   UNL     1     -11.179  11.150  67.506  1.00  0.00    -0.369 A  
HETATM   13  C   UNL     1     -10.825   9.821  67.750  1.00  0.00    -0.306 A  
HETATM   14  C   UNL     1     -10.173  11.029  65.330  1.00  0.00    -0.344 A  
HETATM   15  C   UNL     1     -10.109   9.107  66.795  1.00  0.00    -0.341 A  
HETATM   16  C   UNL     1      -9.804   9.703  65.574  1.00  0.00    -0.352 A  
ENDBRANCH   8  11
BRANCH  10  17
HETATM   17  C   UNL     1     -11.078  15.354  64.510  1.00  0.00    -0.256 C  
HETATM   18  N   UNL     1     -12.098  16.019  63.717  1.00  0.00    -1.255 NA 
HETATM   19  H2  UNL     1     -12.987  16.076  64.213  1.00  0.00     0.000 HD 
HETATM   20  H1  UNL     1     -11.773  16.938  63.415  1.00  0.00     0.000 HD 
ENDBRANCH  10  17
ENDBRANCH   5   8
ENDBRANCH   2   3
TORSDOF 5
ENDMDL
MODEL       20
REMARK 921   NORMALIZED FREE ENERGY PREDICTED BY IDOCK:   -4.55 KCAL/MOL
REMARK 922        TOTAL FREE ENERGY PREDICTED BY IDOCK:   -6.38 KCAL/MOL
REMARK 923 INTER-LIGAND FREE ENERGY PREDICTED BY IDOCK:   -6.19 KCAL/MOL
REMARK 924 INTRA-LIGAND FREE ENERGY PREDICTED BY IDOCK:   -0.18 KCAL/MOL
REMARK 927      BINDING AFFINITY PREDICTED BY RF-SCORE:    0.00 PKD
ROOT
HETATM    1  C   UNL     1     -10.517  17.753  67.379  1.00  0.00    -0.367 C  
HETATM    2  C   UNL     1     -10.125  16.371  66.892  1.00  0.00    -0.281 C  
ENDROOT
BRANCH   2   3
HETATM    3  N   UNL     1     -10.192  15.342  67.932  1.00  0.00    -0.237 N  
HETATM    4  O   UNL     1     -12.001  14.361  66.858  1.00  0.00    -0.410 OA 
HETATM    5  C   UNL     1     -11.214  14.384  67.800  1.00  0.00    -0.300 C  
BRANCH   3   6
HETATM    6  C   UNL     1      -9.483  15.541  69.199  1.00  0.00    -0.246 C  
HETATM    7  C   UNL     1      -7.972  15.674  69.148  1.00  0.00    -0.227 C  
ENDBRANCH   3   6
BRANCH   5   8
HETATM    8  C   UNL     1     -11.325  13.300  68.866  1.00  0.00    -0.333 C  
HETATM    9  C   UNL     1     -11.614  11.880  68.361  1.00  0.00    -0.376 C  
HETATM   10  C   UNL     1     -10.251  12.198  68.898  1.00  0.00    -0.057 C  
BRANCH   8  11
HETATM   11  C   UNL     1     -12.094  13.728  70.125  1.00  0.00    -0.429 A  
HETATM   12  C   UNL     1     -12.468  12.758  71.073  1.00  0.00    -0.369 A  
HETATM   13  C   UNL     1     -13.376  13.046  72.095  1.00  0.00    -0.622 A  
HETATM   14  C   UNL     1     -12.584  15.032  70.313  1.00  0.00    -0.363 A  
HETATM   15  C   UNL     1     -13.917  14.322  72.201  1.00  0.00    -0.618 A  
HETATM   16  C   UNL     1     -13.504  15.323  71.326  1.00  0.00    -0.591 A  
ENDBRANCH   8  11
BRANCH  10  17
HETATM   17  C   UNL     1      -9.056  12.259  67.991  1.00  0.00    -0.191 C  
HETATM   18  N   UNL     1      -9.269  11.434  66.813  1.00  0.00    -0.172 NA 
HETATM   19  H2  UNL     1     -10.128  11.684  66.325  1.00  0.00     0.000 HD 
HETATM   20  H1  UNL     1      -8.457  11.475  66.197  1.00  0.00     0.000 HD 
ENDBRANCH  10  17
ENDBRANCH   5   8
ENDBRANCH   2   3
TORSDOF 5
ENDMDL
MODEL       21
REMARK 921   NORMALIZED FREE ENERGY PREDICTED BY IDOCK:   -4.55 KCAL/MOL
REMARK 922        TOTAL FREE ENERGY PREDICTED BY IDOCK:   -6.37 KCAL/MOL
REMARK 923 INTER-LIGAND FREE ENERGY PREDICTED BY IDOCK:   -6.31 KCAL/MOL
REMARK 924 INTRA-LIGAND FREE ENERGY PREDICTED BY IDOCK:   -0.06 KCAL/MOL
REMARK 927      BINDING AFFINITY PREDICTED BY RF-SCORE:    0.00 PKD
ROOT
HETATM    1  C   UNL     1     -11.467  12.334  63.656  1.00  0.00    -0.572 C  
HETATM    2  C   UNL     1     -12.306  12.490  64.912  1.00  0.00    -0.470 C  
ENDROOT
BRANCH   2   3
HETATM    3  N   UNL     1     -11.523  12.840  66.098  1.00  0.00    -0.331 N  
HETATM    4  O   UNL     1     -12.141  15.065  65.861  1.00  0.00    -0.068 OA 
HETATM    5  C   UNL     1     -11.511  14.199  66.462  1.00  0.00    -0.358 C  
BRANCH   3   6
HETATM    6  C   UNL     1     -10.532  11.896  66.622  1.00  0.00    -0.216 C  
HETATM    7  C   UNL     1     -11.040  10.717  67.432  1.00  0.00    -0.363 C  
ENDBRANCH   3   6
BRANCH   5   8
HETATM    8  C   UNL     1     -10.701  14.609  67.687  1.00  0.00    -0.271 C  
HETATM    9  C   UNL     1      -9.283  14.030  67.788  1.00  0.00    -0.195 C  
HETATM   10  C   UNL     1      -9.454  15.486  67.474  1.00  0.00    -0.208 C  
BRANCH   8  11
HETATM   11  C   UNL     1     -11.504  14.635  68.996  1.00  0.00    -0.317 A  
HETATM   12  C   UNL     1     -11.620  15.838  69.716  1.00  0.00    -0.359 A  
HETATM   13  C   UNL     1     -12.114  15.864  71.023  1.00  0.00    -0.438 A  
HETATM   14  C   UNL     1     -12.011  13.473  69.603  1.00  0.00    -0.397 A  
HETATM   15  C   UNL     1     -12.522  14.684  71.633  1.00  0.00    -0.410 A  
HETATM   16  C   UNL     1     -12.494  13.491  70.915  1.00  0.00    -0.448 A  
ENDBRANCH   8  11
BRANCH  10  17
HETATM   17  C   UNL     1      -9.117  16.031  66.117  1.00  0.00    -0.351 C  
HETATM   18  N   UNL     1      -9.854  17.257  65.863  1.00  0.00    -0.534 NA 
HETATM   19  H2  UNL     1      -9.703  17.949  66.597  1.00  0.00     0.000 HD 
HETATM   20  H1  UNL     1      -9.625  17.627  64.940  1.00  0.00     0.000 HD 
ENDBRANCH  10  17
ENDBRANCH   5   8
ENDBRANCH   2   3
TORSDOF 5
ENDMDL
MODEL       22
REMARK 921   NORMALIZED FREE ENERGY PREDICTED BY IDOCK:   -4.54 KCAL/MOL
REMARK 922        TOTAL FREE ENERGY PREDICTED BY IDOCK:   -6.35 KCAL/MOL
REMARK 923 INTER-LIGAND FREE ENERGY PREDICTED BY IDOCK:   -6.33 KCAL/MOL
REMARK 924 INTRA-LIGAND FREE ENERGY PREDICTED BY IDOCK:   -0.02 KCAL/MOL
REMARK 927      BINDING AFFINITY PREDICTED BY RF-SCORE:    0.00 PKD
ROOT
HETATM    1  C   UNL     1      -7.941  10.476  67.802  1.00  0.00    -0.106 C  
HETATM    2  C   UNL     1      -8.255  11.332  66.589  1.00  0.00    -0.164 C  
ENDROOT
BRANCH   2   3
HETATM    3  N   UNL     1      -9.126  12.472  66.886  1.00  0.00    -0.209 N  
HETATM    4  O   UNL     1     -10.970  11.263  66.161  1.00  0.00    -0.266 OA 
HETATM    5  C   UNL     1     -10.493  12.305  66.602  1.00  0.00    -0.222 C  
BRANCH   3   6
HETATM    6  C   UNL     1      -8.541  13.798  67.102  1.00  0.00    -0.198 C  
HETATM    7  C   UNL     1      -7.988  14.109  68.481  1.00  0.00    -0.145 C  
ENDBRANCH   3   6
BRANCH   5   8
HETATM    8  C   UNL     1     -11.435  13.470  66.888  1.00  0.00    -0.374 C  
HETATM    9  C   UNL     1     -11.268  14.711  66.000  1.00  0.00    -0.342 C  
HETATM   10  C   UNL     1     -12.477  13.842  65.818  1.00  0.00    -0.530 C  
BRANCH   8  11
HETATM   11  C   UNL     1     -11.663  13.745  68.382  1.00  0.00    -0.393 A  
HETATM   12  C   UNL     1     -11.813  12.666  69.272  1.00  0.00    -0.358 A  
HETATM   13  C   UNL     1     -12.271  12.854  70.578  1.00  0.00    -0.395 A  
HETATM   14  C   UNL     1     -11.885  15.035  68.894  1.00  0.00    -0.337 A  
HETATM   15  C   UNL     1     -12.572  14.134  71.029  1.00  0.00    -0.439 A  
HETATM   16  C   UNL     1     -12.356  15.228  70.196  1.00  0.00    -0.392 A  
ENDBRANCH   8  11
BRANCH  10  17
HETATM   17  C   UNL     1     -12.650  13.005  64.584  1.00  0.00    -0.362 C  
HETATM   18  N   UNL     1     -12.406  13.798  63.392  1.00  0.00    -1.100 NA 
HETATM   19  H2  UNL     1     -11.492  14.250  63.418  1.00  0.00     0.000 HD 
HETATM   20  H1  UNL     1     -12.524  13.229  62.554  1.00  0.00     0.000 HD 
ENDBRANCH  10  17
ENDBRANCH   5   8
ENDBRANCH   2   3
TORSDOF 5
ENDMDL
MODEL       23
REMARK 921   NORMALIZED FREE ENERGY PREDICTED BY IDOCK:   -4.53 KCAL/MOL
REMARK 922        TOTAL FREE ENERGY PREDICTED BY IDOCK:   -6.34 KCAL/MOL
REMARK 923 INTER-LIGAND FREE ENERGY PREDICTED BY IDOCK:   -5.75 KCAL/MOL
REMARK 924 INTRA-LIGAND FREE ENERGY PREDICTED BY IDOCK:   -0.59 KCAL/MOL
REMARK 927      BINDING AFFINITY PREDICTED BY RF-SCORE:    0.00 PKD
ROOT
HETATM    1  C   UNL     1     -11.845  11.445  68.609  1.00  0.00    -0.377 C  
HETATM    2  C   UNL     1     -11.036  12.601  69.169  1.00  0.00    -0.195 C  
ENDROOT
BRANCH   2   3
HETATM    3  N   UNL     1     -11.155  13.832  68.386  1.00  0.00    -0.251 N  
HETATM    4  O   UNL     1      -9.272  13.245  67.163  1.00  0.00    -0.218 OA 
HETATM    5  C   UNL     1     -10.172  14.045  67.402  1.00  0.00    -0.248 C  
BRANCH   3   6
HETATM    6  C   UNL     1     -12.011  14.921  68.864  1.00  0.00    -0.260 C  
HETATM    7  C   UNL     1     -11.666  15.553  70.201  1.00  0.00    -0.367 C  
ENDBRANCH   3   6
BRANCH   5   8
HETATM    8  C   UNL     1     -10.252  15.319  66.569  1.00  0.00    -0.282 C  
HETATM    9  C   UNL     1      -9.811  15.200  65.103  1.00  0.00    -0.170 C  
HETATM   10  C   UNL     1     -11.268  15.370  65.413  1.00  0.00    -0.272 C  
BRANCH   8  11
HETATM   11  C   UNL     1      -9.785  16.585  67.303  1.00  0.00    -0.247 A  
HETATM   12  C   UNL     1     -10.355  17.828  66.973  1.00  0.00    -0.344 A  
HETATM   13  C   UNL     1      -9.798  19.029  67.419  1.00  0.00    -0.386 A  
HETATM   14  C   UNL     1      -8.698  16.593  68.193  1.00  0.00    -0.201 A  
HETATM   15  C   UNL     1      -8.665  19.011  68.224  1.00  0.00    -0.366 A  
HETATM   16  C   UNL     1      -8.128  17.793  68.632  1.00  0.00    -0.277 A  
ENDBRANCH   8  11
BRANCH  10  17
HETATM   17  C   UNL     1     -12.243  14.250  65.193  1.00  0.00    -0.421 C  
HETATM   18  N   UNL     1     -12.248  13.847  63.797  1.00  0.00    -0.864 NA 
HETATM   19  H2  UNL     1     -11.313  13.606  63.469  1.00  0.00     0.000 HD 
HETATM   20  H1  UNL     1     -12.911  13.086  63.648  1.00  0.00     0.000 HD 
ENDBRANCH  10  17
ENDBRANCH   5   8
ENDBRANCH   2   3
TORSDOF 5
ENDMDL
MODEL       24
REMARK 921   NORMALIZED FREE ENERGY PREDICTED BY IDOCK:   -4.51 KCAL/MOL
REMARK 922        TOTAL FREE ENERGY PREDICTED BY IDOCK:   -6.32 KCAL/MOL
REMARK 923 INTER-LIGAND FREE ENERGY PREDICTED BY IDOCK:   -6.42 KCAL/MOL
REMARK 924 INTRA-LIGAND FREE ENERGY PREDICTED BY IDOCK:    0.10 KCAL/MOL
REMARK 927      BINDING AFFINITY PREDICTED BY RF-SCORE:    0.00 PKD
ROOT
HETATM    1  C   UNL     1     -11.180  12.421  63.494  1.00  0.00    -0.540 C  
HETATM    2  C   UNL     1     -12.094  12.153  64.676  1.00  0.00    -0.311 C  
ENDROOT
BRANCH   2   3
HETATM    3  N   UNL     1     -11.418  12.242  65.971  1.00  0.00    -0.364 N  
HETATM    4  O   UNL     1     -12.561  14.206  66.443  1.00  0.00    -0.427 OA 
HETATM    5  C   UNL     1     -11.738  13.356  66.769  1.00  0.00    -0.385 C  
BRANCH   3   6
HETATM    6  C   UNL     1     -10.225  11.430  66.228  1.00  0.00    -0.233 C  
HETATM    7  C   UNL     1     -10.428   9.960  66.549  1.00  0.00    -0.213 C  
ENDBRANCH   3   6
BRANCH   5   8
HETATM    8  C   UNL     1     -11.050  13.493  68.122  1.00  0.00    -0.283 C  
HETATM    9  C   UNL     1      -9.543  13.204  68.150  1.00  0.00    -0.227 C  
HETATM   10  C   UNL     1     -10.016  14.619  68.302  1.00  0.00    -0.222 C  
BRANCH   8  11
HETATM   11  C   UNL     1     -11.857  12.929  69.301  1.00  0.00    -0.363 A  
HETATM   12  C   UNL     1     -12.405  13.810  70.252  1.00  0.00    -0.407 A  
HETATM   13  C   UNL     1     -12.922  13.348  71.465  1.00  0.00    -0.429 A  
HETATM   14  C   UNL     1     -11.953  11.554  69.572  1.00  0.00    -0.402 A  
HETATM   15  C   UNL     1     -12.919  11.987  71.745  1.00  0.00    -0.445 A  
HETATM   16  C   UNL     1     -12.457  11.086  70.790  1.00  0.00    -0.491 A  
ENDBRANCH   8  11
BRANCH  10  17
HETATM   17  C   UNL     1      -9.784  15.634  67.221  1.00  0.00    -0.219 C  
HETATM   18  N   UNL     1      -8.822  15.135  66.253  1.00  0.00    -0.459 NA 
HETATM   19  H2  UNL     1      -9.102  14.232  65.871  1.00  0.00     0.000 HD 
HETATM   20  H1  UNL     1      -8.665  15.825  65.518  1.00  0.00     0.000 HD 
ENDBRANCH  10  17
ENDBRANCH   5   8
ENDBRANCH   2   3
TORSDOF 5
ENDMDL
MODEL       25
REMARK 921   NORMALIZED FREE ENERGY PREDICTED BY IDOCK:   -4.50 KCAL/MOL
REMARK 922        TOTAL FREE ENERGY PREDICTED BY IDOCK:   -6.31 KCAL/MOL
REMARK 923 INTER-LIGAND FREE ENERGY PREDICTED BY IDOCK:   -6.46 KCAL/MOL
REMARK 924 INTRA-LIGAND FREE ENERGY PREDICTED BY IDOCK:    0.15 KCAL/MOL
REMARK 927      BINDING AFFINITY PREDICTED BY RF-SCORE:    0.00 PKD
ROOT
HETATM    1  C   UNL     1     -10.899  15.812  65.294  1.00  0.00    -0.409 C  
HETATM    2  C   UNL     1     -10.203  14.580  65.843  1.00  0.00    -0.322 C  
ENDROOT
BRANCH   2   3
HETATM    3  N   UNL     1     -11.029  13.806  66.772  1.00  0.00    -0.301 N  
HETATM    4  O   UNL     1      -9.244  13.655  68.247  1.00  0.00    -0.196 OA 
HETATM    5  C   UNL     1     -10.405  13.380  67.958  1.00  0.00    -0.241 C  
BRANCH   3   6
HETATM    6  C   UNL     1     -12.285  13.210  66.307  1.00  0.00    -0.355 C  
HETATM    7  C   UNL     1     -12.296  12.576  64.928  1.00  0.00    -0.539 C  
ENDBRANCH   3   6
BRANCH   5   8
HETATM    8  C   UNL     1     -11.226  12.564  68.950  1.00  0.00    -0.330 C  
HETATM    9  C   UNL     1     -12.033  11.397  68.364  1.00  0.00    -0.270 C  
HETATM   10  C   UNL     1     -10.822  11.099  69.196  1.00  0.00    -0.284 C  
BRANCH   8  11
HETATM   11  C   UNL     1     -11.946  13.403  70.016  1.00  0.00    -0.407 A  
HETATM   12  C   UNL     1     -12.610  12.758  71.075  1.00  0.00    -0.362 A  
HETATM   13  C   UNL     1     -13.484  13.448  71.919  1.00  0.00    -0.526 A  
HETATM   14  C   UNL     1     -12.109  14.794  69.909  1.00  0.00    -0.381 A  
HETATM   15  C   UNL     1     -13.699  14.808  71.731  1.00  0.00    -0.511 A  
HETATM   16  C   UNL     1     -12.994  15.488  70.741  1.00  0.00    -0.490 A  
ENDBRANCH   8  11
BRANCH  10  17
HETATM   17  C   UNL     1      -9.580  10.526  68.578  1.00  0.00    -0.163 C  
HETATM   18  N   UNL     1      -8.418  10.833  69.394  1.00  0.00    -0.373 NA 
HETATM   19  H2  UNL     1      -8.539  10.523  70.358  1.00  0.00     0.000 HD 
HETATM   20  H1  UNL     1      -7.573  10.445  68.974  1.00  0.00     0.000 HD 
ENDBRANCH  10  17
ENDBRANCH   5   8
ENDBRANCH   2   3
TORSDOF 5
ENDMDL
MODEL       26
REMARK 921   NORMALIZED FREE ENERGY PREDICTED BY IDOCK:   -4.49 KCAL/MOL
REMARK 922        TOTAL FREE ENERGY PREDICTED BY IDOCK:   -6.29 KCAL/MOL
REMARK 923 INTER-LIGAND FREE ENERGY PREDICTED BY IDOCK:   -5.73 KCAL/MOL
REMARK 924 INTRA-LIGAND FREE ENERGY PREDICTED BY IDOCK:   -0.55 KCAL/MOL
REMARK 927      BINDING AFFINITY PREDICTED BY RF-SCORE:    0.00 PKD
ROOT
HETATM    1  C   UNL     1     -10.204   8.881  66.520  1.00  0.00    -0.319 C  
HETATM    2  C   UNL     1      -9.969   9.928  67.593  1.00  0.00    -0.171 C  
ENDROOT
BRANCH   2   3
HETATM    3  N   UNL     1     -10.683  11.184  67.351  1.00  0.00    -0.233 N  
HETATM    4  O   UNL     1      -8.920  11.945  66.047  1.00  0.00    -0.171 OA 
HETATM    5  C   UNL     1     -10.021  12.137  66.556  1.00  0.00    -0.213 C  
BRANCH   3   6
HETATM    6  C   UNL     1     -11.825  11.547  68.195  1.00  0.00    -0.236 C  
HETATM    7  C   UNL     1     -11.601  11.610  69.695  1.00  0.00    -0.401 C  
ENDBRANCH   3   6
BRANCH   5   8
HETATM    8  C   UNL     1     -10.724  13.462  66.287  1.00  0.00    -0.290 C  
HETATM    9  C   UNL     1     -10.507  14.075  64.896  1.00  0.00    -0.453 C  
HETATM   10  C   UNL     1     -11.846  13.490  65.233  1.00  0.00    -0.373 C  
BRANCH   8  11
HETATM   11  C   UNL     1     -10.683  14.450  67.463  1.00  0.00    -0.271 A  
HETATM   12  C   UNL     1      -9.467  14.687  68.129  1.00  0.00    -0.212 A  
HETATM   13  C   UNL     1      -9.421  15.368  69.348  1.00  0.00    -0.267 A  
HETATM   14  C   UNL     1     -11.840  15.025  68.016  1.00  0.00    -0.266 A  
HETATM   15  C   UNL     1     -10.595  15.845  69.919  1.00  0.00    -0.327 A  
HETATM   16  C   UNL     1     -11.802  15.696  69.243  1.00  0.00    -0.378 A  
ENDBRANCH   8  11
BRANCH  10  17
HETATM   17  C   UNL     1     -12.324  12.225  64.582  1.00  0.00    -0.369 C  
HETATM   18  N   UNL     1     -12.587  12.447  63.171  1.00  0.00    -0.784 NA 
HETATM   19  H2  UNL     1     -11.776  12.837  62.691  1.00  0.00     0.000 HD 
HETATM   20  H1  UNL     1     -12.913  11.587  62.729  1.00  0.00     0.000 HD 
ENDBRANCH  10  17
ENDBRANCH   5   8
ENDBRANCH   2   3
TORSDOF 5
ENDMDL
MODEL       27
REMARK 921   NORMALIZED FREE ENERGY PREDICTED BY IDOCK:   -4.47 KCAL/MOL
REMARK 922        TOTAL FREE ENERGY PREDICTED BY IDOCK:   -6.27 KCAL/MOL
REMARK 923 INTER-LIGAND FREE ENERGY PREDICTED BY IDOCK:   -5.78 KCAL/MOL
REMARK 924 INTRA-LIGAND FREE ENERGY PREDICTED BY IDOCK:   -0.49 KCAL/MOL
REMARK 927      BINDING AFFINITY PREDICTED BY RF-SCORE:    0.00 PKD
ROOT
HETATM    1  C   UNL     1     -12.047  11.684  69.997  1.00  0.00    -0.395 C  
HETATM    2  C   UNL     1     -11.635  13.120  69.726  1.00  0.00    -0.221 C  
ENDROOT
BRANCH   2   3
HETATM    3  N   UNL     1     -10.940  13.299  68.450  1.00  0.00    -0.254 N  
HETATM    4  O   UNL     1     -11.909  15.394  68.206  1.00  0.00    -0.339 OA 
HETATM    5  C   UNL     1     -11.186  14.504  67.767  1.00  0.00    -0.298 C  
BRANCH   3   6
HETATM    6  C   UNL     1     -10.344  12.142  67.776  1.00  0.00    -0.206 C  
HETATM    7  C   UNL     1      -8.890  11.824  68.074  1.00  0.00    -0.164 C  
ENDBRANCH   3   6
BRANCH   5   8
HETATM    8  C   UNL     1     -10.489  14.728  66.430  1.00  0.00    -0.294 C  
HETATM    9  C   UNL     1     -10.166  16.185  66.069  1.00  0.00    -0.374 C  
HETATM   10  C   UNL     1      -9.045  15.261  66.442  1.00  0.00    -0.347 C  
BRANCH   8  11
HETATM   11  C   UNL     1     -11.031  13.862  65.282  1.00  0.00    -0.331 A  
HETATM   12  C   UNL     1     -12.400  13.541  65.241  1.00  0.00    -0.506 A  
HETATM   13  C   UNL     1     -12.896  12.562  64.377  1.00  0.00    -0.366 A  
HETATM   14  C   UNL     1     -10.197  13.237  64.339  1.00  0.00    -0.300 A  
HETATM   15  C   UNL     1     -12.031  11.892  63.519  1.00  0.00    -0.567 A  
HETATM   16  C   UNL     1     -10.685  12.246  63.482  1.00  0.00    -0.497 A  
ENDBRANCH   8  11
BRANCH  10  17
HETATM   17  C   UNL     1      -8.297  15.433  67.732  1.00  0.00    -0.147 C  
HETATM   18  N   UNL     1      -6.935  14.944  67.599  1.00  0.00    -0.173 NA 
HETATM   19  H2  UNL     1      -6.449  15.384  66.817  1.00  0.00     0.000 HD 
HETATM   20  H1  UNL     1      -6.427  15.061  68.476  1.00  0.00     0.000 HD 
ENDBRANCH  10  17
ENDBRANCH   5   8
ENDBRANCH   2   3
TORSDOF 5
ENDMDL
MODEL       28
REMARK 921   NORMALIZED FREE ENERGY PREDICTED BY IDOCK:   -4.43 KCAL/MOL
REMARK 922        TOTAL FREE ENERGY PREDICTED BY IDOCK:   -6.22 KCAL/MOL
REMARK 923 INTER-LIGAND FREE ENERGY PREDICTED BY IDOCK:   -5.89 KCAL/MOL
REMARK 924 INTRA-LIGAND FREE ENERGY PREDICTED BY IDOCK:   -0.33 KCAL/MOL
REMARK 927      BINDING AFFINITY PREDICTED BY RF-SCORE:    0.00 PKD
ROOT
HETATM    1  C   UNL     1      -7.962  15.846  67.878  1.00  0.00    -0.146 C  
HETATM    2  C   UNL     1      -8.474  14.764  68.810  1.00  0.00    -0.170 C  
ENDROOT
BRANCH   2   3
HETATM    3  N   UNL     1      -9.669  14.081  68.314  1.00  0.00    -0.221 N  
HETATM    4  O   UNL     1      -8.553  12.047  68.397  1.00  0.00    -0.168 OA 
HETATM    5  C   UNL     1      -9.565  12.690  68.130  1.00  0.00    -0.219 C  
BRANCH   3   6
HETATM    6  C   UNL     1     -10.751  14.857  67.701  1.00  0.00    -0.270 C  
HETATM    7  C   UNL     1     -11.609  15.714  68.615  1.00  0.00    -0.391 C  
ENDBRANCH   3   6
BRANCH   5   8
HETATM    8  C   UNL     1     -10.784  11.939  67.606  1.00  0.00    -0.253 C  
HETATM    9  C   UNL     1     -10.983  10.513  68.138  1.00  0.00    -0.330 C  
HETATM   10  C   UNL     1     -11.910  11.598  68.599  1.00  0.00    -0.370 C  
BRANCH   8  11
HETATM   11  C   UNL     1     -11.048  12.133  66.106  1.00  0.00    -0.354 A  
HETATM   12  C   UNL     1     -12.254  12.723  65.684  1.00  0.00    -0.503 A  
HETATM   13  C   UNL     1     -12.654  12.691  64.346  1.00  0.00    -0.470 A  
HETATM   14  C   UNL     1     -10.207  11.608  65.109  1.00  0.00    -0.319 A  
HETATM   15  C   UNL     1     -11.844  12.082  63.394  1.00  0.00    -0.542 A  
HETATM   16  C   UNL     1     -10.609  11.562  63.770  1.00  0.00    -0.465 A  
ENDBRANCH   8  11
BRANCH  10  17
HETATM   17  C   UNL     1     -11.871  12.101  70.012  1.00  0.00    -0.306 C  
HETATM   18  N   UNL     1     -12.524  11.159  70.906  1.00  0.00    -0.391 NA 
HETATM   19  H2  UNL     1     -12.126  10.223  70.826  1.00  0.00     0.000 HD 
HETATM   20  H1  UNL     1     -12.498  11.502  71.866  1.00  0.00     0.000 HD 
ENDBRANCH  10  17
ENDBRANCH   5   8
ENDBRANCH   2   3
TORSDOF 5
ENDMDL
MODEL       29
REMARK 921   NORMALIZED FREE ENERGY PREDICTED BY IDOCK:   -4.42 KCAL/MOL
REMARK 922        TOTAL FREE ENERGY PREDICTED BY IDOCK:   -6.21 KCAL/MOL
REMARK 923 INTER-LIGAND FREE ENERGY PREDICTED BY IDOCK:   -5.85 KCAL/MOL
REMARK 924 INTRA-LIGAND FREE ENERGY PREDICTED BY IDOCK:   -0.36 KCAL/MOL
REMARK 927      BINDING AFFINITY PREDICTED BY RF-SCORE:    0.00 PKD
ROOT
HETATM    1  C   UNL     1     -12.041  14.813  70.785  1.00  0.00    -0.374 C  
HETATM    2  C   UNL     1     -12.339  15.470  69.449  1.00  0.00    -0.112 C  
ENDROOT
BRANCH   2   3
HETATM    3  N   UNL     1     -11.201  15.469  68.529  1.00  0.00    -0.314 N  
HETATM    4  O   UNL     1     -12.085  13.628  67.425  1.00  0.00    -0.380 OA 
HETATM    5  C   UNL     1     -11.188  14.457  67.551  1.00  0.00    -0.315 C  
BRANCH   3   6
HETATM    6  C   UNL     1      -9.995  16.232  68.860  1.00  0.00    -0.248 C  
HETATM    7  C   UNL     1      -9.985  17.714  68.529  1.00  0.00    -0.368 C  
ENDBRANCH   3   6
BRANCH   5   8
HETATM    8  C   UNL     1     -10.017  14.413  66.576  1.00  0.00    -0.291 C  
HETATM    9  C   UNL     1     -10.327  13.897  65.165  1.00  0.00    -0.403 C  
HETATM   10  C   UNL     1     -10.046  15.357  65.360  1.00  0.00    -0.394 C  
BRANCH   8  11
HETATM   11  C   UNL     1      -8.701  13.915  67.193  1.00  0.00    -0.233 A  
HETATM   12  C   UNL     1      -8.656  12.650  67.806  1.00  0.00    -0.179 A  
HETATM   13  C   UNL     1      -7.573  12.257  68.596  1.00  0.00    -0.089 A  
HETATM   14  C   UNL     1      -7.560  14.727  67.314  1.00  0.00    -0.195 A  
HETATM   15  C   UNL     1      -6.498  13.120  68.775  1.00  0.00    -0.095 A  
HETATM   16  C   UNL     1      -6.478  14.345  68.114  1.00  0.00    -0.139 A  
ENDBRANCH   8  11
BRANCH  10  17
HETATM   17  C   UNL     1     -11.131  16.382  65.206  1.00  0.00    -0.113 C  
HETATM   18  N   UNL     1     -11.659  16.364  63.852  1.00  0.00    -1.602 NA 
HETATM   19  H2  UNL     1     -11.976  15.433  63.582  1.00  0.00     0.000 HD 
HETATM   20  H1  UNL     1     -12.396  17.061  63.747  1.00  0.00     0.000 HD 
ENDBRANCH  10  17
ENDBRANCH   5   8
ENDBRANCH   2   3
TORSDOF 5
ENDMDL
MODEL       30
REMARK 921   NORMALIZED FREE ENERGY PREDICTED BY IDOCK:   -4.42 KCAL/MOL
REMARK 922        TOTAL FREE ENERGY PREDICTED BY IDOCK:   -6.20 KCAL/MOL
REMARK 923 INTER-LIGAND FREE ENERGY PREDICTED BY IDOCK:   -5.59 KCAL/MOL
REMARK 924 INTRA-LIGAND FREE ENERGY PREDICTED BY IDOCK:   -0.61 KCAL/MOL
REMARK 927      BINDING AFFINITY PREDICTED BY RF-SCORE:    0.00 PKD
ROOT
HETATM    1  C   UNL     1     -10.646   9.983  70.374  1.00  0.00    -0.343 C  
HETATM    2  C   UNL     1     -11.520  10.998  69.660  1.00  0.00    -0.303 C  
ENDROOT
BRANCH   2   3
HETATM    3  N   UNL     1     -10.850  11.664  68.542  1.00  0.00    -0.207 N  
HETATM    4  O   UNL     1     -12.171  13.546  68.861  1.00  0.00    -0.315 OA 
HETATM    5  C   UNL     1     -11.295  12.962  68.229  1.00  0.00    -0.291 C  
BRANCH   3   6
HETATM    6  C   UNL     1     -10.049  10.878  67.600  1.00  0.00    -0.179 C  
HETATM    7  C   UNL     1     -10.760   9.806  66.793  1.00  0.00    -0.143 C  
ENDBRANCH   3   6
BRANCH   5   8
HETATM    8  C   UNL     1     -10.631  13.689  67.066  1.00  0.00    -0.274 C  
HETATM    9  C   UNL     1     -10.413  15.198  67.246  1.00  0.00    -0.271 C  
HETATM   10  C   UNL     1      -9.227  14.281  67.286  1.00  0.00    -0.218 C  
BRANCH   8  11
HETATM   11  C   UNL     1     -11.124  13.248  65.680  1.00  0.00    -0.299 A  
HETATM   12  C   UNL     1     -12.496  13.013  65.474  1.00  0.00    -0.496 A  
HETATM   13  C   UNL     1     -12.963  12.374  64.323  1.00  0.00    -0.257 A  
HETATM   14  C   UNL     1     -10.251  12.915  64.630  1.00  0.00    -0.321 A  
HETATM   15  C   UNL     1     -12.065  11.971  63.341  1.00  0.00    -0.597 A  
HETATM   16  C   UNL     1     -10.711  12.262  63.482  1.00  0.00    -0.497 A  
ENDBRANCH   8  11
BRANCH  10  17
HETATM   17  C   UNL     1      -8.478  14.039  68.564  1.00  0.00    -0.143 C  
HETATM   18  N   UNL     1      -8.817  15.049  69.552  1.00  0.00    -0.435 NA 
HETATM   19  H2  UNL     1      -9.823  15.105  69.707  1.00  0.00     0.000 HD 
HETATM   20  H1  UNL     1      -8.308  14.884  70.420  1.00  0.00     0.000 HD 
ENDBRANCH  10  17
ENDBRANCH   5   8
ENDBRANCH   2   3
TORSDOF 5
ENDMDL
MODEL       31
REMARK 921   NORMALIZED FREE ENERGY PREDICTED BY IDOCK:   -4.39 KCAL/MOL
REMARK 922        TOTAL FREE ENERGY PREDICTED BY IDOCK:   -6.17 KCAL/MOL
REMARK 923 INTER-LIGAND FREE ENERGY PREDICTED BY IDOCK:   -5.86 KCAL/MOL
REMARK 924 INTRA-LIGAND FREE ENERGY PREDICTED BY IDOCK:   -0.31 KCAL/MOL
REMARK 927      BINDING AFFINITY PREDICTED BY RF-SCORE:    0.00 PKD
ROOT
HETATM    1  C   UNL     1     -10.695  18.928  67.083  1.00  0.00    -0.506 C  
HETATM    2  C   UNL     1     -10.399  17.627  67.805  1.00  0.00    -0.365 C  
ENDROOT
BRANCH   2   3
HETATM    3  N   UNL     1     -10.360  16.462  66.920  1.00  0.00    -0.297 N  
HETATM    4  O   UNL     1     -11.918  15.381  68.258  1.00  0.00    -0.283 OA 
HETATM    5  C   UNL     1     -11.175  15.373  67.281  1.00  0.00    -0.270 C  
BRANCH   3   6
HETATM    6  C   UNL     1      -9.266  16.316  65.956  1.00  0.00    -0.316 C  
HETATM    7  C   UNL     1      -7.863  16.662  66.423  1.00  0.00    -0.347 C  
ENDBRANCH   3   6
BRANCH   5   8
HETATM    8  C   UNL     1     -11.158  14.135  66.391  1.00  0.00    -0.320 C  
HETATM    9  C   UNL     1     -12.502  13.417  66.202  1.00  0.00    -0.389 C  
HETATM   10  C   UNL     1     -11.921  14.189  65.055  1.00  0.00    -0.412 C  
BRANCH   8  11
HETATM   11  C   UNL     1      -9.940  13.224  66.600  1.00  0.00    -0.272 A  
HETATM   12  C   UNL     1      -9.688  12.182  65.688  1.00  0.00    -0.223 A  
HETATM   13  C   UNL     1      -8.757  11.178  65.964  1.00  0.00    -0.185 A  
HETATM   14  C   UNL     1      -9.135  13.277  67.751  1.00  0.00    -0.202 A  
HETATM   15  C   UNL     1      -8.041  11.205  67.155  1.00  0.00    -0.138 A  
HETATM   16  C   UNL     1      -8.211  12.267  68.039  1.00  0.00    -0.163 A  
ENDBRANCH   8  11
BRANCH  10  17
HETATM   17  C   UNL     1     -12.555  15.464  64.580  1.00  0.00     0.215 C  
HETATM   18  N   UNL     1     -11.648  16.188  63.706  1.00  0.00    -1.387 NA 
HETATM   19  H2  UNL     1     -11.329  15.610  62.928  1.00  0.00     0.000 HD 
HETATM   20  H1  UNL     1     -12.079  17.055  63.383  1.00  0.00     0.000 HD 
ENDBRANCH  10  17
ENDBRANCH   5   8
ENDBRANCH   2   3
TORSDOF 5
ENDMDL
MODEL       32
REMARK 921   NORMALIZED FREE ENERGY PREDICTED BY IDOCK:   -4.38 KCAL/MOL
REMARK 922        TOTAL FREE ENERGY PREDICTED BY IDOCK:   -6.15 KCAL/MOL
REMARK 923 INTER-LIGAND FREE ENERGY PREDICTED BY IDOCK:   -6.42 KCAL/MOL
REMARK 924 INTRA-LIGAND FREE ENERGY PREDICTED BY IDOCK:    0.27 KCAL/MOL
REMARK 927      BINDING AFFINITY PREDICTED BY RF-SCORE:    0.00 PKD
ROOT
HETATM    1  C   UNL     1     -11.824  14.273  70.666  1.00  0.00    -0.349 C  
HETATM    2  C   UNL     1     -11.197  13.478  69.534  1.00  0.00    -0.132 C  
ENDROOT
BRANCH   2   3
HETATM    3  N   UNL     1     -10.509  14.311  68.545  1.00  0.00    -0.247 N  
HETATM    4  O   UNL     1     -12.517  14.668  67.437  1.00  0.00    -0.058 OA 
HETATM    5  C   UNL     1     -11.304  14.842  67.514  1.00  0.00    -0.342 C  
BRANCH   3   6
HETATM    6  C   UNL     1      -9.048  14.264  68.443  1.00  0.00    -0.194 C  
HETATM    7  C   UNL     1      -8.248  15.164  69.368  1.00  0.00    -0.197 C  
ENDBRANCH   3   6
BRANCH   5   8
HETATM    8  C   UNL     1     -10.628  15.708  66.457  1.00  0.00    -0.307 C  
HETATM    9  C   UNL     1      -9.421  15.086  65.742  1.00  0.00    -0.260 C  
HETATM   10  C   UNL     1     -10.706  15.256  64.988  1.00  0.00    -0.461 C  
BRANCH   8  11
HETATM   11  C   UNL     1     -10.479  17.186  66.851  1.00  0.00    -0.274 A  
HETATM   12  C   UNL     1     -10.309  18.158  65.848  1.00  0.00    -0.284 A  
HETATM   13  C   UNL     1      -9.919  19.464  66.154  1.00  0.00    -0.501 A  
HETATM   14  C   UNL     1     -10.351  17.610  68.184  1.00  0.00    -0.386 A  
HETATM   15  C   UNL     1      -9.708  19.831  67.478  1.00  0.00    -0.490 A  
HETATM   16  C   UNL     1      -9.947  18.913  68.496  1.00  0.00    -0.463 A  
ENDBRANCH   8  11
BRANCH  10  17
HETATM   17  C   UNL     1     -11.532  14.069  64.588  1.00  0.00    -0.383 C  
HETATM   18  N   UNL     1     -12.437  14.420  63.507  1.00  0.00    -1.090 NA 
HETATM   19  H2  UNL     1     -11.940  14.820  62.711  1.00  0.00     0.000 HD 
HETATM   20  H1  UNL     1     -12.999  13.613  63.235  1.00  0.00     0.000 HD 
ENDBRANCH  10  17
ENDBRANCH   5   8
ENDBRANCH   2   3
TORSDOF 5
ENDMDL
MODEL       33
REMARK 921   NORMALIZED FREE ENERGY PREDICTED BY IDOCK:   -4.38 KCAL/MOL
REMARK 922        TOTAL FREE ENERGY PREDICTED BY IDOCK:   -6.15 KCAL/MOL
REMARK 923 INTER-LIGAND FREE ENERGY PREDICTED BY IDOCK:   -5.63 KCAL/MOL
REMARK 924 INTRA-LIGAND FREE ENERGY PREDICTED BY IDOCK:   -0.52 KCAL/MOL
REMARK 927      BINDING AFFINITY PREDICTED BY RF-SCORE:    0.00 PKD
ROOT
HETATM    1  C   UNL     1     -12.068  13.281  64.869  1.00  0.00    -0.440 C  
HETATM    2  C   UNL     1     -10.704  13.937  64.753  1.00  0.00    -0.423 C  
ENDROOT
BRANCH   2   3
HETATM    3  N   UNL     1     -10.238  14.542  66.002  1.00  0.00    -0.300 N  
HETATM    4  O   UNL     1     -10.770  16.650  65.189  1.00  0.00    -0.621 OA 
HETATM    5  C   UNL     1     -10.311  15.944  66.083  1.00  0.00    -0.328 C  
BRANCH   3   6
HETATM    6  C   UNL     1      -9.410  13.761  66.925  1.00  0.00    -0.261 C  
HETATM    7  C   UNL     1     -10.118  12.818  67.881  1.00  0.00    -0.231 C  
ENDBRANCH   3   6
BRANCH   5   8
HETATM    8  C   UNL     1      -9.827  16.617  67.362  1.00  0.00    -0.254 C  
HETATM    9  C   UNL     1     -10.623  17.845  67.826  1.00  0.00    -0.399 C  
HETATM   10  C   UNL     1     -10.740  16.567  68.601  1.00  0.00    -0.334 C  
BRANCH   8  11
HETATM   11  C   UNL     1      -8.300  16.731  67.478  1.00  0.00    -0.200 A  
HETATM   12  C   UNL     1      -7.688  16.613  68.739  1.00  0.00    -0.233 A  
HETATM   13  C   UNL     1      -6.349  16.958  68.938  1.00  0.00    -0.179 A  
HETATM   14  C   UNL     1      -7.479  17.104  66.399  1.00  0.00    -0.341 A  
HETATM   15  C   UNL     1      -5.585  17.413  67.869  1.00  0.00    -0.132 A  
HETATM   16  C   UNL     1      -6.142  17.463  66.594  1.00  0.00    -0.239 A  
ENDBRANCH   8  11
BRANCH  10  17
HETATM   17  C   UNL     1     -12.011  15.769  68.590  1.00  0.00    -0.149 C  
HETATM   18  N   UNL     1     -12.438  15.474  69.948  1.00  0.00    -0.569 NA 
HETATM   19  H2  UNL     1     -12.527  16.320  70.509  1.00  0.00     0.000 HD 
HETATM   20  H1  UNL     1     -13.302  14.931  69.940  1.00  0.00     0.000 HD 
ENDBRANCH  10  17
ENDBRANCH   5   8
ENDBRANCH   2   3
TORSDOF 5
ENDMDL
MODEL       34
REMARK 921   NORMALIZED FREE ENERGY PREDICTED BY IDOCK:   -4.38 KCAL/MOL
REMARK 922        TOTAL FREE ENERGY PREDICTED BY IDOCK:   -6.15 KCAL/MOL
REMARK 923 INTER-LIGAND FREE ENERGY PREDICTED BY IDOCK:   -5.87 KCAL/MOL
REMARK 924 INTRA-LIGAND FREE ENERGY PREDICTED BY IDOCK:   -0.28 KCAL/MOL
REMARK 927      BINDING AFFINITY PREDICTED BY RF-SCORE:    0.00 PKD
ROOT
HETATM    1  C   UNL     1     -13.226  14.657  70.752  1.00  0.00    -0.333 C  
HETATM    2  C   UNL     1     -12.381  13.703  69.929  1.00  0.00    -0.249 C  
ENDROOT
BRANCH   2   3
HETATM    3  N   UNL     1     -11.821  14.310  68.720  1.00  0.00    -0.334 N  
HETATM    4  O   UNL     1     -10.850  12.283  68.141  1.00  0.00    -0.208 OA 
HETATM    5  C   UNL     1     -11.041  13.473  67.902  1.00  0.00    -0.265 C  
BRANCH   3   6
HETATM    6  C   UNL     1     -11.772  15.769  68.594  1.00  0.00    -0.344 C  
HETATM    7  C   UNL     1     -10.828  16.526  69.511  1.00  0.00    -0.315 C  
ENDBRANCH   3   6
BRANCH   5   8
HETATM    8  C   UNL     1     -10.431  14.067  66.638  1.00  0.00    -0.272 C  
HETATM    9  C   UNL     1     -10.282  13.114  65.444  1.00  0.00    -0.301 C  
HETATM   10  C   UNL     1     -11.323  14.192  65.390  1.00  0.00    -0.322 C  
BRANCH   8  11
HETATM   11  C   UNL     1      -9.242  15.007  66.891  1.00  0.00    -0.265 A  
HETATM   12  C   UNL     1      -9.155  16.220  66.185  1.00  0.00    -0.377 A  
HETATM   13  C   UNL     1      -7.985  16.984  66.185  1.00  0.00    -0.299 A  
HETATM   14  C   UNL     1      -8.142  14.648  67.689  1.00  0.00    -0.185 A  
HETATM   15  C   UNL     1      -6.879  16.556  66.909  1.00  0.00    -0.248 A  
HETATM   16  C   UNL     1      -6.964  15.401  67.682  1.00  0.00    -0.209 A  
ENDBRANCH   8  11
BRANCH  10  17
HETATM   17  C   UNL     1     -12.785  13.861  65.450  1.00  0.00    -0.490 C  
HETATM   18  N   UNL     1     -13.067  12.659  64.685  1.00  0.00    -0.848 NA 
HETATM   19  H2  UNL     1     -12.488  11.874  64.985  1.00  0.00     0.000 HD 
HETATM   20  H1  UNL     1     -14.061  12.434  64.726  1.00  0.00     0.000 HD 
ENDBRANCH  10  17
ENDBRANCH   5   8
ENDBRANCH   2   3
TORSDOF 5
ENDMDL
MODEL       35
REMARK 921   NORMALIZED FREE ENERGY PREDICTED BY IDOCK:   -4.35 KCAL/MOL
REMARK 922        TOTAL FREE ENERGY PREDICTED BY IDOCK:   -6.11 KCAL/MOL
REMARK 923 INTER-LIGAND FREE ENERGY PREDICTED BY IDOCK:   -6.00 KCAL/MOL
REMARK 924 INTRA-LIGAND FREE ENERGY PREDICTED BY IDOCK:   -0.12 KCAL/MOL
REMARK 927      BINDING AFFINITY PREDICTED BY RF-SCORE:    0.00 PKD
ROOT
HETATM    1  C   UNL     1     -11.163   4.906  73.248  1.00  0.00    -0.423 C  
HETATM    2  C   UNL     1     -10.221   4.995  72.061  1.00  0.00    -0.201 C  
ENDROOT
BRANCH   2   3
HETATM    3  N   UNL     1     -10.050   6.357  71.551  1.00  0.00    -0.191 N  
HETATM    4  O   UNL     1     -11.471   5.882  69.779  1.00  0.00    -0.307 OA 
HETATM    5  C   UNL     1     -10.734   6.671  70.363  1.00  0.00    -0.250 C  
BRANCH   3   6
HETATM    6  C   UNL     1      -8.948   7.187  72.046  1.00  0.00    -0.130 C  
HETATM    7  C   UNL     1      -9.192   8.009  73.299  1.00  0.00    -0.347 C  
ENDBRANCH   3   6
BRANCH   5   8
HETATM    8  C   UNL     1     -10.577   8.076  69.792  1.00  0.00    -0.238 C  
HETATM    9  C   UNL     1      -9.160   8.477  69.358  1.00  0.00    -0.150 C  
HETATM   10  C   UNL     1     -10.198   8.219  68.306  1.00  0.00    -0.246 C  
BRANCH   8  11
HETATM   11  C   UNL     1     -11.374   9.155  70.539  1.00  0.00    -0.300 A  
HETATM   12  C   UNL     1     -12.363   8.772  71.464  1.00  0.00    -0.380 A  
HETATM   13  C   UNL     1     -13.282   9.691  71.976  1.00  0.00    -0.546 A  
HETATM   14  C   UNL     1     -11.275  10.524  70.236  1.00  0.00    -0.391 A  
HETATM   15  C   UNL     1     -13.218  11.024  71.586  1.00  0.00    -0.461 A  
HETATM   16  C   UNL     1     -12.201  11.447  70.735  1.00  0.00    -0.475 A  
ENDBRANCH   8  11
BRANCH  10  17
HETATM   17  C   UNL     1     -10.113   7.017  67.412  1.00  0.00    -0.195 C  
HETATM   18  N   UNL     1     -11.427   6.671  66.899  1.00  0.00    -0.767 NA 
HETATM   19  H2  UNL     1     -11.871   7.460  66.430  1.00  0.00     0.000 HD 
HETATM   20  H1  UNL     1     -11.370   5.853  66.292  1.00  0.00     0.000 HD 
ENDBRANCH  10  17
ENDBRANCH   5   8
ENDBRANCH   2   3
TORSDOF 5
ENDMDL
MODEL       36
REMARK 921   NORMALIZED FREE ENERGY PREDICTED BY IDOCK:   -4.35 KCAL/MOL
REMARK 922        TOTAL FREE ENERGY PREDICTED BY IDOCK:   -6.11 KCAL/MOL
REMARK 923 INTER-LIGAND FREE ENERGY PREDICTED BY IDOCK:   -5.69 KCAL/MOL
REMARK 924 INTRA-LIGAND FREE ENERGY PREDICTED BY IDOCK:   -0.43 KCAL/MOL
REMARK 927      BINDING AFFINITY PREDICTED BY RF-SCORE:    0.00 PKD
ROOT
HETATM    1  C   UNL     1     -10.509  15.238  65.400  1.00  0.00    -0.422 C  
HETATM    2  C   UNL     1     -11.384  14.504  66.400  1.00  0.00    -0.349 C  
ENDROOT
BRANCH   2   3
HETATM    3  N   UNL     1     -10.697  13.407  67.085  1.00  0.00    -0.263 N  
HETATM    4  O   UNL     1     -12.100  11.873  66.054  1.00  0.00    -0.500 OA 
HETATM    5  C   UNL     1     -11.179  12.111  66.830  1.00  0.00    -0.322 C  
BRANCH   3   6
HETATM    6  C   UNL     1      -9.831  13.694  68.231  1.00  0.00    -0.232 C  
HETATM    7  C   UNL     1     -10.348  14.660  69.282  1.00  0.00    -0.183 C  
ENDBRANCH   3   6
BRANCH   5   8
HETATM    8  C   UNL     1     -10.498  10.940  67.529  1.00  0.00    -0.252 C  
HETATM    9  C   UNL     1     -10.319   9.663  66.696  1.00  0.00    -0.279 C  
HETATM   10  C   UNL     1      -9.114  10.494  67.022  1.00  0.00    -0.156 C  
BRANCH   8  11
HETATM   11  C   UNL     1     -10.942  10.728  68.985  1.00  0.00    -0.289 A  
HETATM   12  C   UNL     1     -10.248   9.811  69.796  1.00  0.00    -0.271 A  
HETATM   13  C   UNL     1     -10.755   9.395  71.028  1.00  0.00    -0.407 A  
HETATM   14  C   UNL     1     -12.113  11.294  69.515  1.00  0.00    -0.386 A  
HETATM   15  C   UNL     1     -11.966   9.903  71.487  1.00  0.00    -0.473 A  
HETATM   16  C   UNL     1     -12.634  10.871  70.742  1.00  0.00    -0.470 A  
ENDBRANCH   8  11
BRANCH  10  17
HETATM   17  C   UNL     1      -8.397  11.270  65.956  1.00  0.00    -0.071 C  
HETATM   18  N   UNL     1      -6.963  11.242  66.184  1.00  0.00    -0.362 NA 
HETATM   19  H2  UNL     1      -6.610  10.288  66.261  1.00  0.00     0.000 HD 
HETATM   20  H1  UNL     1      -6.475  11.770  65.460  1.00  0.00     0.000 HD 
ENDBRANCH  10  17
ENDBRANCH   5   8
ENDBRANCH   2   3
TORSDOF 5
ENDMDL
MODEL       37
REMARK 921   NORMALIZED FREE ENERGY PREDICTED BY IDOCK:   -4.35 KCAL/MOL
REMARK 922        TOTAL FREE ENERGY PREDICTED BY IDOCK:   -6.11 KCAL/MOL
REMARK 923 INTER-LIGAND FREE ENERGY PREDICTED BY IDOCK:   -5.91 KCAL/MOL
REMARK 924 INTRA-LIGAND FREE ENERGY PREDICTED BY IDOCK:   -0.20 KCAL/MOL
REMARK 927      BINDING AFFINITY PREDICTED BY RF-SCORE:    0.00 PKD
ROOT
HETATM    1  C   UNL     1      -7.280  17.432  66.108  1.00  0.00    -0.327 C  
HETATM    2  C   UNL     1      -7.957  17.591  67.457  1.00  0.00    -0.200 C  
ENDROOT
BRANCH   2   3
HETATM    3  N   UNL     1      -9.249  16.907  67.548  1.00  0.00    -0.222 N  
HETATM    4  O   UNL     1      -8.207  15.045  68.463  1.00  0.00    -0.137 OA 
HETATM    5  C   UNL     1      -9.229  15.599  68.066  1.00  0.00    -0.184 C  
BRANCH   3   6
HETATM    6  C   UNL     1     -10.399  17.419  66.799  1.00  0.00    -0.305 C  
HETATM    7  C   UNL     1     -10.401  18.892  66.430  1.00  0.00    -0.503 C  
ENDBRANCH   3   6
BRANCH   5   8
HETATM    8  C   UNL     1     -10.550  14.846  68.170  1.00  0.00    -0.244 C  
HETATM    9  C   UNL     1     -10.748  13.995  69.432  1.00  0.00    -0.085 C  
HETATM   10  C   UNL     1     -11.538  15.260  69.276  1.00  0.00    -0.350 C  
BRANCH   8  11
HETATM   11  C   UNL     1     -11.018  14.206  66.855  1.00  0.00    -0.302 A  
HETATM   12  C   UNL     1     -10.076  13.906  65.854  1.00  0.00    -0.331 A  
HETATM   13  C   UNL     1     -10.468  13.565  64.558  1.00  0.00    -0.426 A  
HETATM   14  C   UNL     1     -12.375  14.040  66.528  1.00  0.00    -0.442 A  
HETATM   15  C   UNL     1     -11.819  13.499  64.238  1.00  0.00    -0.471 A  
HETATM   16  C   UNL     1     -12.775  13.712  65.228  1.00  0.00    -0.478 A  
ENDBRANCH   8  11
BRANCH  10  17
HETATM   17  C   UNL     1     -11.267  16.453  70.145  1.00  0.00    -0.250 C  
HETATM   18  N   UNL     1     -11.869  16.275  71.456  1.00  0.00    -0.649 NA 
HETATM   19  H2  UNL     1     -11.565  15.408  71.898  1.00  0.00     0.000 HD 
HETATM   20  H1  UNL     1     -11.685  17.087  72.046  1.00  0.00     0.000 HD 
ENDBRANCH  10  17
ENDBRANCH   5   8
ENDBRANCH   2   3
TORSDOF 5
ENDMDL
MODEL       38
REMARK 921   NORMALIZED FREE ENERGY PREDICTED BY IDOCK:   -4.32 KCAL/MOL
REMARK 922        TOTAL FREE ENERGY PREDICTED BY IDOCK:   -6.07 KCAL/MOL
REMARK 923 INTER-LIGAND FREE ENERGY PREDICTED BY IDOCK:   -5.74 KCAL/MOL
REMARK 924 INTRA-LIGAND FREE ENERGY PREDICTED BY IDOCK:   -0.33 KCAL/MOL
REMARK 927      BINDING AFFINITY PREDICTED BY RF-SCORE:    0.00 PKD
ROOT
HETATM    1  C   UNL     1     -12.169  13.130  63.206  1.00  0.00    -0.438 C  
HETATM    2  C   UNL     1     -12.324  12.092  64.302  1.00  0.00    -0.371 C  
ENDROOT
BRANCH   2   3
HETATM    3  N   UNL     1     -11.381  12.264  65.409  1.00  0.00    -0.332 N  
HETATM    4  O   UNL     1     -12.905  13.629  66.506  1.00  0.00    -0.140 OA 
HETATM    5  C   UNL     1     -11.801  13.093  66.465  1.00  0.00    -0.400 C  
BRANCH   3   6
HETATM    6  C   UNL     1      -9.973  11.903  65.229  1.00  0.00    -0.251 C  
HETATM    7  C   UNL     1      -9.662  10.508  64.715  1.00  0.00    -0.365 C  
ENDBRANCH   3   6
BRANCH   5   8
HETATM    8  C   UNL     1     -10.847  13.307  67.635  1.00  0.00    -0.273 C  
HETATM    9  C   UNL     1     -11.469  13.250  69.037  1.00  0.00    -0.350 C  
HETATM   10  C   UNL     1     -10.586  12.125  68.586  1.00  0.00    -0.248 C  
BRANCH   8  11
HETATM   11  C   UNL     1      -9.812  14.419  67.410  1.00  0.00    -0.224 A  
HETATM   12  C   UNL     1     -10.196  15.603  66.754  1.00  0.00    -0.278 A  
HETATM   13  C   UNL     1      -9.252  16.528  66.302  1.00  0.00    -0.345 A  
HETATM   14  C   UNL     1      -8.445  14.257  67.692  1.00  0.00    -0.185 A  
HETATM   15  C   UNL     1      -7.898  16.296  66.513  1.00  0.00    -0.298 A  
HETATM   16  C   UNL     1      -7.494  15.172  67.230  1.00  0.00    -0.228 A  
ENDBRANCH   8  11
BRANCH  10  17
HETATM   17  C   UNL     1     -11.150  10.764  68.299  1.00  0.00    -0.271 C  
HETATM   18  N   UNL     1     -12.349  10.535  69.087  1.00  0.00    -0.749 NA 
HETATM   19  H2  UNL     1     -13.042  11.270  68.946  1.00  0.00     0.000 HD 
HETATM   20  H1  UNL     1     -12.733   9.610  68.892  1.00  0.00     0.000 HD 
ENDBRANCH  10  17
ENDBRANCH   5   8
ENDBRANCH   2   3
TORSDOF 5
ENDMDL
MODEL       39
REMARK 921   NORMALIZED FREE ENERGY PREDICTED BY IDOCK:   -4.28 KCAL/MOL
REMARK 922        TOTAL FREE ENERGY PREDICTED BY IDOCK:   -6.02 KCAL/MOL
REMARK 923 INTER-LIGAND FREE ENERGY PREDICTED BY IDOCK:   -6.41 KCAL/MOL
REMARK 924 INTRA-LIGAND FREE ENERGY PREDICTED BY IDOCK:    0.38 KCAL/MOL
REMARK 927      BINDING AFFINITY PREDICTED BY RF-SCORE:    0.00 PKD
ROOT
HETATM    1  C   UNL     1      -7.386  17.545  67.361  1.00  0.00    -0.198 C  
HETATM    2  C   UNL     1      -8.301  17.766  68.551  1.00  0.00    -0.297 C  
ENDROOT
BRANCH   2   3
HETATM    3  N   UNL     1      -9.582  17.064  68.443  1.00  0.00    -0.267 N  
HETATM    4  O   UNL     1      -8.700  15.261  69.610  1.00  0.00    -0.235 OA 
HETATM    5  C   UNL     1      -9.641  15.780  69.014  1.00  0.00    -0.243 C  
BRANCH   3   6
HETATM    6  C   UNL     1     -10.586  17.524  67.480  1.00  0.00    -0.333 C  
HETATM    7  C   UNL     1     -10.724  19.021  67.266  1.00  0.00    -0.556 C  
ENDBRANCH   3   6
BRANCH   5   8
HETATM    8  C   UNL     1     -10.952  15.009  68.917  1.00  0.00    -0.256 C  
HETATM    9  C   UNL     1     -11.691  15.092  67.574  1.00  0.00    -0.270 C  
HETATM   10  C   UNL     1     -11.020  13.807  67.958  1.00  0.00    -0.268 C  
BRANCH   8  11
HETATM   11  C   UNL     1     -11.836  15.106  70.170  1.00  0.00    -0.351 A  
HETATM   12  C   UNL     1     -11.631  16.155  71.085  1.00  0.00    -0.453 A  
HETATM   13  C   UNL     1     -12.224  16.148  72.350  1.00  0.00    -0.592 A  
HETATM   14  C   UNL     1     -12.753  14.105  70.536  1.00  0.00    -0.374 A  
HETATM   15  C   UNL     1     -13.054  15.097  72.721  1.00  0.00    -0.545 A  
HETATM   16  C   UNL     1     -13.338  14.086  71.806  1.00  0.00    -0.465 A  
ENDBRANCH   8  11
BRANCH  10  17
HETATM   17  C   UNL     1      -9.796  13.326  67.236  1.00  0.00    -0.233 C  
HETATM   18  N   UNL     1      -9.660  14.004  65.958  1.00  0.00    -0.470 NA 
HETATM   19  H2  UNL     1      -9.663  15.018  66.065  1.00  0.00     0.000 HD 
HETATM   20  H1  UNL     1      -8.828  13.676  65.467  1.00  0.00     0.000 HD 
ENDBRANCH  10  17
ENDBRANCH   5   8
ENDBRANCH   2   3
TORSDOF 5
ENDMDL
MODEL       40
REMARK 921   NORMALIZED FREE ENERGY PREDICTED BY IDOCK:   -4.28 KCAL/MOL
REMARK 922        TOTAL FREE ENERGY PREDICTED BY IDOCK:   -6.02 KCAL/MOL
REMARK 923 INTER-LIGAND FREE ENERGY PREDICTED BY IDOCK:   -5.98 KCAL/MOL
REMARK 924 INTRA-LIGAND FREE ENERGY PREDICTED BY IDOCK:   -0.03 KCAL/MOL
REMARK 927      BINDING AFFINITY PREDICTED BY RF-SCORE:    0.00 PKD
ROOT
HETATM    1  C   UNL     1      -9.196  16.503  66.074  1.00  0.00    -0.295 C  
HETATM    2  C   UNL     1     -10.438  16.062  66.827  1.00  0.00    -0.308 C  
ENDROOT
BRANCH   2   3
HETATM    3  N   UNL     1     -10.277  14.785  67.525  1.00  0.00    -0.232 N  
HETATM    4  O   UNL     1     -12.329  14.070  66.709  1.00  0.00    -0.439 OA 
HETATM    5  C   UNL     1     -11.331  13.863  67.394  1.00  0.00    -0.326 C  
BRANCH   3   6
HETATM    6  C   UNL     1      -9.268  14.654  68.579  1.00  0.00    -0.193 C  
HETATM    7  C   UNL     1      -9.103  15.813  69.546  1.00  0.00    -0.202 C  
ENDBRANCH   3   6
BRANCH   5   8
HETATM    8  C   UNL     1     -11.209  12.524  68.112  1.00  0.00    -0.312 C  
HETATM    9  C   UNL     1     -11.529  11.275  67.279  1.00  0.00    -0.265 C  
HETATM   10  C   UNL     1     -10.104  11.552  67.657  1.00  0.00    -0.202 C  
BRANCH   8  11
HETATM   11  C   UNL     1     -11.756  12.524  69.548  1.00  0.00    -0.375 A  
HETATM   12  C   UNL     1     -11.938  11.303  70.221  1.00  0.00    -0.466 A  
HETATM   13  C   UNL     1     -12.661  11.226  71.414  1.00  0.00    -0.501 A  
HETATM   14  C   UNL     1     -12.234  13.684  70.181  1.00  0.00    -0.413 A  
HETATM   15  C   UNL     1     -13.204  12.379  71.971  1.00  0.00    -0.514 A  
HETATM   16  C   UNL     1     -12.970  13.612  71.368  1.00  0.00    -0.427 A  
ENDBRANCH   8  11
BRANCH  10  17
HETATM   17  C   UNL     1      -9.094  11.961  66.625  1.00  0.00    -0.203 C  
HETATM   18  N   UNL     1      -9.481  11.472  65.313  1.00  0.00    -0.311 NA 
HETATM   19  H2  UNL     1     -10.424  11.770  65.060  1.00  0.00     0.000 HD 
HETATM   20  H1  UNL     1      -8.795  11.750  64.611  1.00  0.00     0.000 HD 
ENDBRANCH  10  17
ENDBRANCH   5   8
ENDBRANCH   2   3
TORSDOF 5
ENDMDL
MODEL       41
REMARK 921   NORMALIZED FREE ENERGY PREDICTED BY IDOCK:   -4.28 KCAL/MOL
REMARK 922        TOTAL FREE ENERGY PREDICTED BY IDOCK:   -6.02 KCAL/MOL
REMARK 923 INTER-LIGAND FREE ENERGY PREDICTED BY IDOCK:   -6.55 KCAL/MOL
REMARK 924 INTRA-LIGAND FREE ENERGY PREDICTED BY IDOCK:    0.53 KCAL/MOL
REMARK 927      BINDING AFFINITY PREDICTED BY RF-SCORE:    0.00 PKD
ROOT
HETATM    1  C   UNL     1      -9.862   9.322  69.145  1.00  0.00    -0.167 C  
HETATM    2  C   UNL     1      -9.807  10.282  67.971  1.00  0.00    -0.150 C  
ENDROOT
BRANCH   2   3
HETATM    3  N   UNL     1      -9.989  11.684  68.352  1.00  0.00    -0.197 N  
HETATM    4  O   UNL     1     -12.274  11.494  67.991  1.00  0.00    -0.582 OA 
HETATM    5  C   UNL     1     -11.304  12.181  68.300  1.00  0.00    -0.289 C  
BRANCH   3   6
HETATM    6  C   UNL     1      -8.831  12.580  68.409  1.00  0.00    -0.123 C  
HETATM    7  C   UNL     1      -7.558  12.132  67.713  1.00  0.00    -0.131 C  
ENDBRANCH   3   6
BRANCH   5   8
HETATM    8  C   UNL     1     -11.539  13.638  68.680  1.00  0.00    -0.364 C  
HETATM    9  C   UNL     1     -10.423  14.624  68.307  1.00  0.00    -0.236 C  
HETATM   10  C   UNL     1     -11.716  14.666  67.548  1.00  0.00    -0.403 C  
BRANCH   8  11
HETATM   11  C   UNL     1     -12.165  13.836  70.069  1.00  0.00    -0.407 A  
HETATM   12  C   UNL     1     -12.303  12.734  70.932  1.00  0.00    -0.356 A  
HETATM   13  C   UNL     1     -13.086  12.803  72.087  1.00  0.00    -0.454 A  
HETATM   14  C   UNL     1     -12.755  15.046  70.473  1.00  0.00    -0.406 A  
HETATM   15  C   UNL     1     -13.735  13.988  72.414  1.00  0.00    -0.669 A  
HETATM   16  C   UNL     1     -13.551  15.117  71.621  1.00  0.00    -0.560 A  
ENDBRANCH   8  11
BRANCH  10  17
HETATM   17  C   UNL     1     -11.786  14.229  66.114  1.00  0.00    -0.402 C  
HETATM   18  N   UNL     1     -13.169  14.143  65.675  1.00  0.00    -0.652 NA 
HETATM   19  H2  UNL     1     -13.671  15.017  65.830  1.00  0.00     0.000 HD 
HETATM   20  H1  UNL     1     -13.217  13.846  64.700  1.00  0.00     0.000 HD 
ENDBRANCH  10  17
ENDBRANCH   5   8
ENDBRANCH   2   3
TORSDOF 5
ENDMDL
MODEL       42
REMARK 921   NORMALIZED FREE ENERGY PREDICTED BY IDOCK:   -4.27 KCAL/MOL
REMARK 922        TOTAL FREE ENERGY PREDICTED BY IDOCK:   -6.01 KCAL/MOL
REMARK 923 INTER-LIGAND FREE ENERGY PREDICTED BY IDOCK:   -5.88 KCAL/MOL
REMARK 924 INTRA-LIGAND FREE ENERGY PREDICTED BY IDOCK:   -0.13 KCAL/MOL
REMARK 927      BINDING AFFINITY PREDICTED BY RF-SCORE:    0.00 PKD
ROOT
HETATM    1  C   UNL     1      -9.898  11.790  63.215  1.00  0.00    -0.402 C  
HETATM    2  C   UNL     1     -10.849  11.267  64.276  1.00  0.00    -0.328 C  
ENDROOT
BRANCH   2   3
HETATM    3  N   UNL     1     -11.196  12.261  65.293  1.00  0.00    -0.318 N  
HETATM    4  O   UNL     1      -9.633  11.338  66.740  1.00  0.00    -0.188 OA 
HETATM    5  C   UNL     1     -10.508  12.170  66.516  1.00  0.00    -0.225 C  
BRANCH   3   6
HETATM    6  C   UNL     1     -12.432  13.036  65.162  1.00  0.00    -0.496 C  
HETATM    7  C   UNL     1     -12.358  14.365  64.432  1.00  0.00    -0.428 C  
ENDBRANCH   3   6
BRANCH   5   8
HETATM    8  C   UNL     1     -10.844  13.180  67.607  1.00  0.00    -0.269 C  
HETATM    9  C   UNL     1     -12.284  13.155  68.136  1.00  0.00    -0.070 C  
HETATM   10  C   UNL     1     -11.179  12.649  69.013  1.00  0.00    -0.322 C  
BRANCH   8  11
HETATM   11  C   UNL     1     -10.241  14.576  67.384  1.00  0.00    -0.240 A  
HETATM   12  C   UNL     1     -10.891  15.705  67.915  1.00  0.00    -0.306 A  
HETATM   13  C   UNL     1     -10.534  17.001  67.533  1.00  0.00    -0.334 A  
HETATM   14  C   UNL     1      -9.143  14.806  66.538  1.00  0.00    -0.291 A  
HETATM   15  C   UNL     1      -9.503  17.195  66.621  1.00  0.00    -0.279 A  
HETATM   16  C   UNL     1      -8.791  16.100  66.141  1.00  0.00    -0.367 A  
ENDBRANCH   8  11
BRANCH  10  17
HETATM   17  C   UNL     1     -11.053  11.189  69.336  1.00  0.00    -0.255 C  
HETATM   18  N   UNL     1     -12.300  10.497  69.059  1.00  0.00    -0.762 NA 
HETATM   19  H2  UNL     1     -12.612  10.647  68.100  1.00  0.00     0.000 HD 
HETATM   20  H1  UNL     1     -12.215   9.504  69.279  1.00  0.00     0.000 HD 
ENDBRANCH  10  17
ENDBRANCH   5   8
ENDBRANCH   2   3
TORSDOF 5
ENDMDL
MODEL       43
REMARK 921   NORMALIZED FREE ENERGY PREDICTED BY IDOCK:   -4.27 KCAL/MOL
REMARK 922        TOTAL FREE ENERGY PREDICTED BY IDOCK:   -6.01 KCAL/MOL
REMARK 923 INTER-LIGAND FREE ENERGY PREDICTED BY IDOCK:   -6.06 KCAL/MOL
REMARK 924 INTRA-LIGAND FREE ENERGY PREDICTED BY IDOCK:    0.05 KCAL/MOL
REMARK 927      BINDING AFFINITY PREDICTED BY RF-SCORE:    0.00 PKD
ROOT
HETATM    1  C   UNL     1     -10.919  16.798  68.949  1.00  0.00    -0.259 C  
HETATM    2  C   UNL     1     -10.188  15.564  69.446  1.00  0.00    -0.262 C  
ENDROOT
BRANCH   2   3
HETATM    3  N   UNL     1     -10.251  14.432  68.519  1.00  0.00    -0.238 N  
HETATM    4  O   UNL     1     -12.037  13.546  69.708  1.00  0.00    -0.318 OA 
HETATM    5  C   UNL     1     -11.235  13.462  68.782  1.00  0.00    -0.275 C  
BRANCH   3   6
HETATM    6  C   UNL     1      -9.123  14.160  67.625  1.00  0.00    -0.194 C  
HETATM    7  C   UNL     1      -8.912  15.099  66.450  1.00  0.00    -0.314 C  
ENDBRANCH   3   6
BRANCH   5   8
HETATM    8  C   UNL     1     -11.330  12.262  67.847  1.00  0.00    -0.356 C  
HETATM    9  C   UNL     1     -10.245  11.189  68.007  1.00  0.00    -0.201 C  
HETATM   10  C   UNL     1     -11.642  10.885  68.460  1.00  0.00    -0.360 C  
BRANCH   8  11
HETATM   11  C   UNL     1     -11.707  12.617  66.400  1.00  0.00    -0.466 A  
HETATM   12  C   UNL     1     -11.190  11.849  65.340  1.00  0.00    -0.351 A  
HETATM   13  C   UNL     1     -11.290  12.273  64.013  1.00  0.00    -0.469 A  
HETATM   14  C   UNL     1     -12.428  13.774  66.062  1.00  0.00    -0.491 A  
HETATM   15  C   UNL     1     -11.929  13.472  63.716  1.00  0.00    -0.475 A  
HETATM   16  C   UNL     1     -12.520  14.212  64.737  1.00  0.00    -0.395 A  
ENDBRANCH   8  11
BRANCH  10  17
HETATM   17  C   UNL     1     -11.971  10.746  69.918  1.00  0.00    -0.342 C  
HETATM   18  N   UNL     1     -11.044   9.831  70.563  1.00  0.00    -0.296 NA 
HETATM   19  H2  UNL     1     -10.074  10.110  70.419  1.00  0.00     0.000 HD 
HETATM   20  H1  UNL     1     -11.268   9.736  71.554  1.00  0.00     0.000 HD 
ENDBRANCH  10  17
ENDBRANCH   5   8
ENDBRANCH   2   3
TORSDOF 5
ENDMDL
MODEL       44
REMARK 921   NORMALIZED FREE ENERGY PREDICTED BY IDOCK:   -4.26 KCAL/MOL
REMARK 922        TOTAL FREE ENERGY PREDICTED BY IDOCK:   -6.00 KCAL/MOL
REMARK 923 INTER-LIGAND FREE ENERGY PREDICTED BY IDOCK:   -5.58 KCAL/MOL
REMARK 924 INTRA-LIGAND FREE ENERGY PREDICTED BY IDOCK:   -0.42 KCAL/MOL
REMARK 927      BINDING AFFINITY PREDICTED BY RF-SCORE:    0.00 PKD
ROOT
HETATM    1  C   UNL     1     -11.391  15.665  68.741  1.00  0.00    -0.351 C  
HETATM    2  C   UNL     1     -10.768  14.285  68.844  1.00  0.00    -0.257 C  
ENDROOT
BRANCH   2   3
HETATM    3  N   UNL     1     -10.401  13.709  67.549  1.00  0.00    -0.240 N  
HETATM    4  O   UNL     1     -12.509  12.754  67.368  1.00  0.00    -0.168 OA 
HETATM    5  C   UNL     1     -11.384  12.931  66.910  1.00  0.00    -0.312 C  
BRANCH   3   6
HETATM    6  C   UNL     1      -8.992  13.645  67.153  1.00  0.00    -0.231 C  
HETATM    7  C   UNL     1      -8.291  14.951  66.825  1.00  0.00    -0.158 C  
ENDBRANCH   3   6
BRANCH   5   8
HETATM    8  C   UNL     1     -11.042  12.305  65.563  1.00  0.00    -0.348 C  
HETATM    9  C   UNL     1     -12.162  12.299  64.514  1.00  0.00    -0.469 C  
HETATM   10  C   UNL     1     -10.994  13.220  64.326  1.00  0.00    -0.418 C  
BRANCH   8  11
HETATM   11  C   UNL     1     -10.212  11.016  65.658  1.00  0.00    -0.318 A  
HETATM   12  C   UNL     1     -10.323  10.200  66.799  1.00  0.00    -0.285 A  
HETATM   13  C   UNL     1      -9.418   9.167  67.050  1.00  0.00    -0.201 A  
HETATM   14  C   UNL     1      -9.219  10.678  64.722  1.00  0.00    -0.255 A  
HETATM   15  C   UNL     1      -8.387   8.915  66.152  1.00  0.00    -0.125 A  
HETATM   16  C   UNL     1      -8.301   9.654  64.975  1.00  0.00    -0.146 A  
ENDBRANCH   8  11
BRANCH  10  17
HETATM   17  C   UNL     1     -11.152  14.707  64.461  1.00  0.00    -0.257 C  
HETATM   18  N   UNL     1     -12.374  15.150  63.811  1.00  0.00    -1.037 NA 
HETATM   19  H2  UNL     1     -13.191  14.649  64.160  1.00  0.00     0.000 HD 
HETATM   20  H1  UNL     1     -12.481  16.160  63.902  1.00  0.00     0.000 HD 
ENDBRANCH  10  17
ENDBRANCH   5   8
ENDBRANCH   2   3
TORSDOF 5
ENDMDL
MODEL       45
REMARK 921   NORMALIZED FREE ENERGY PREDICTED BY IDOCK:   -4.25 KCAL/MOL
REMARK 922        TOTAL FREE ENERGY PREDICTED BY IDOCK:   -5.99 KCAL/MOL
REMARK 923 INTER-LIGAND FREE ENERGY PREDICTED BY IDOCK:   -5.52 KCAL/MOL
REMARK 924 INTRA-LIGAND FREE ENERGY PREDICTED BY IDOCK:   -0.46 KCAL/MOL
REMARK 927      BINDING AFFINITY PREDICTED BY RF-SCORE:    0.00 PKD
ROOT
HETATM    1  C   UNL     1     -10.045  19.330  68.166  1.00  0.00    -0.507 C  
HETATM    2  C   UNL     1     -10.566  18.411  67.076  1.00  0.00    -0.366 C  
ENDROOT
BRANCH   2   3
HETATM    3  N   UNL     1     -10.398  16.989  67.380  1.00  0.00    -0.312 N  
HETATM    4  O   UNL     1      -8.535  16.905  65.998  1.00  0.00    -0.460 OA 
HETATM    5  C   UNL     1      -9.327  16.335  66.744  1.00  0.00    -0.237 C  
BRANCH   3   6
HETATM    6  C   UNL     1     -11.497  16.241  67.997  1.00  0.00    -0.125 C  
HETATM    7  C   UNL     1     -11.525  16.151  69.512  1.00  0.00    -0.292 C  
ENDBRANCH   3   6
BRANCH   5   8
HETATM    8  C   UNL     1      -9.121  14.851  67.025  1.00  0.00    -0.255 C  
HETATM    9  C   UNL     1      -7.665  14.370  67.096  1.00  0.00    -0.065 C  
HETATM   10  C   UNL     1      -8.469  14.448  68.360  1.00  0.00    -0.165 C  
BRANCH   8  11
HETATM   11  C   UNL     1     -10.092  13.925  66.277  1.00  0.00    -0.306 A  
HETATM   12  C   UNL     1     -10.480  14.242  64.963  1.00  0.00    -0.458 A  
HETATM   13  C   UNL     1     -11.541  13.586  64.335  1.00  0.00    -0.429 A  
HETATM   14  C   UNL     1     -10.742  12.844  66.895  1.00  0.00    -0.272 A  
HETATM   15  C   UNL     1     -12.229  12.582  65.006  1.00  0.00    -0.519 A  
HETATM   16  C   UNL     1     -11.815  12.192  66.277  1.00  0.00    -0.320 A  
ENDBRANCH   8  11
BRANCH  10  17
HETATM   17  C   UNL     1      -8.163  15.475  69.411  1.00  0.00    -0.247 C  
HETATM   18  N   UNL     1      -6.804  15.967  69.261  1.00  0.00    -0.189 NA 
HETATM   19  H2  UNL     1      -6.632  16.324  68.321  1.00  0.00     0.000 HD 
HETATM   20  H1  UNL     1      -6.596  16.665  69.975  1.00  0.00     0.000 HD 
ENDBRANCH  10  17
ENDBRANCH   5   8
ENDBRANCH   2   3
TORSDOF 5
ENDMDL
MODEL       46
REMARK 921   NORMALIZED FREE ENERGY PREDICTED BY IDOCK:   -4.22 KCAL/MOL
REMARK 922        TOTAL FREE ENERGY PREDICTED BY IDOCK:   -5.94 KCAL/MOL
REMARK 923 INTER-LIGAND FREE ENERGY PREDICTED BY IDOCK:   -5.55 KCAL/MOL
REMARK 924 INTRA-LIGAND FREE ENERGY PREDICTED BY IDOCK:   -0.39 KCAL/MOL
REMARK 927      BINDING AFFINITY PREDICTED BY RF-SCORE:    0.00 PKD
ROOT
HETATM    1  C   UNL     1      -7.582  17.155  66.163  1.00  0.00    -0.304 C  
HETATM    2  C   UNL     1      -7.978  16.973  67.617  1.00  0.00    -0.176 C  
ENDROOT
BRANCH   2   3
HETATM    3  N   UNL     1      -8.817  15.796  67.852  1.00  0.00    -0.174 N  
HETATM    4  O   UNL     1     -10.664  16.938  67.032  1.00  0.00    -0.267 OA 
HETATM    5  C   UNL     1     -10.179  15.922  67.524  1.00  0.00    -0.269 C  
BRANCH   3   6
HETATM    6  C   UNL     1      -8.331  14.717  68.716  1.00  0.00    -0.163 C  
HETATM    7  C   UNL     1      -7.070  13.986  68.291  1.00  0.00    -0.110 C  
ENDBRANCH   3   6
BRANCH   5   8
HETATM    8  C   UNL     1     -11.090  14.724  67.761  1.00  0.00    -0.306 C  
HETATM    9  C   UNL     1     -12.160  14.463  66.692  1.00  0.00    -0.392 C  
HETATM   10  C   UNL     1     -10.990  13.531  66.793  1.00  0.00    -0.297 C  
BRANCH   8  11
HETATM   11  C   UNL     1     -11.550  14.557  69.218  1.00  0.00    -0.339 A  
HETATM   12  C   UNL     1     -11.804  13.269  69.723  1.00  0.00    -0.394 A  
HETATM   13  C   UNL     1     -12.460  13.077  70.941  1.00  0.00    -0.396 A  
HETATM   14  C   UNL     1     -11.882  15.646  70.042  1.00  0.00    -0.381 A  
HETATM   15  C   UNL     1     -12.860  14.176  71.693  1.00  0.00    -0.428 A  
HETATM   16  C   UNL     1     -12.551  15.461  71.256  1.00  0.00    -0.477 A  
ENDBRANCH   8  11
BRANCH  10  17
HETATM   17  C   UNL     1      -9.937  13.491  65.724  1.00  0.00    -0.252 C  
HETATM   18  N   UNL     1      -9.338  12.170  65.649  1.00  0.00    -0.423 NA 
HETATM   19  H2  UNL     1     -10.041  11.442  65.516  1.00  0.00     0.000 HD 
HETATM   20  H1  UNL     1      -8.622  12.143  64.923  1.00  0.00     0.000 HD 
ENDBRANCH  10  17
ENDBRANCH   5   8
ENDBRANCH   2   3
TORSDOF 5
ENDMDL
MODEL       47
REMARK 921   NORMALIZED FREE ENERGY PREDICTED BY IDOCK:   -4.21 KCAL/MOL
REMARK 922        TOTAL FREE ENERGY PREDICTED BY IDOCK:   -5.93 KCAL/MOL
REMARK 923 INTER-LIGAND FREE ENERGY PREDICTED BY IDOCK:   -5.27 KCAL/MOL
REMARK 924 INTRA-LIGAND FREE ENERGY PREDICTED BY IDOCK:   -0.66 KCAL/MOL
REMARK 927      BINDING AFFINITY PREDICTED BY RF-SCORE:    0.00 PKD
ROOT
HETATM    1  C   UNL     1     -10.795   7.888  72.364  1.00  0.00    -0.378 C  
HETATM    2  C   UNL     1     -10.060   9.041  71.705  1.00  0.00    -0.335 C  
ENDROOT
BRANCH   2   3
HETATM    3  N   UNL     1     -10.507   9.315  70.338  1.00  0.00    -0.226 N  
HETATM    4  O   UNL     1      -8.318   9.155  69.582  1.00  0.00    -0.115 OA 
HETATM    5  C   UNL     1      -9.506   9.363  69.350  1.00  0.00    -0.173 C  
BRANCH   3   6
HETATM    6  C   UNL     1     -11.843   9.870  70.106  1.00  0.00    -0.124 C  
HETATM    7  C   UNL     1     -12.207  11.157  70.824  1.00  0.00    -0.484 C  
ENDBRANCH   3   6
BRANCH   5   8
HETATM    8  C   UNL     1      -9.926   9.653  67.914  1.00  0.00    -0.201 C  
HETATM    9  C   UNL     1      -9.103   8.969  66.815  1.00  0.00    -0.178 C  
HETATM   10  C   UNL     1     -10.502   8.497  67.076  1.00  0.00    -0.362 C  
BRANCH   8  11
HETATM   11  C   UNL     1     -10.301  11.120  67.650  1.00  0.00    -0.223 A  
HETATM   12  C   UNL     1      -9.602  12.145  68.312  1.00  0.00    -0.210 A  
HETATM   13  C   UNL     1     -10.061  13.465  68.306  1.00  0.00    -0.247 A  
HETATM   14  C   UNL     1     -11.421  11.495  66.888  1.00  0.00    -0.261 A  
HETATM   15  C   UNL     1     -11.225  13.791  67.620  1.00  0.00    -0.316 A  
HETATM   16  C   UNL     1     -11.893  12.811  66.890  1.00  0.00    -0.440 A  
ENDBRANCH   8  11
BRANCH  10  17
HETATM   17  C   UNL     1     -10.764   7.154  67.692  1.00  0.00    -0.244 C  
HETATM   18  N   UNL     1     -11.269   6.227  66.694  1.00  0.00    -0.753 NA 
HETATM   19  H2  UNL     1     -10.647   6.159  65.889  1.00  0.00     0.000 HD 
HETATM   20  H1  UNL     1     -11.448   5.314  67.113  1.00  0.00     0.000 HD 
ENDBRANCH  10  17
ENDBRANCH   5   8
ENDBRANCH   2   3
TORSDOF 5
ENDMDL
MODEL       48
REMARK 921   NORMALIZED FREE ENERGY PREDICTED BY IDOCK:   -4.20 KCAL/MOL
REMARK 922        TOTAL FREE ENERGY PREDICTED BY IDOCK:   -5.92 KCAL/MOL
REMARK 923 INTER-LIGAND FREE ENERGY PREDICTED BY IDOCK:   -5.47 KCAL/MOL
REMARK 924 INTRA-LIGAND FREE ENERGY PREDICTED BY IDOCK:   -0.45 KCAL/MOL
REMARK 927      BINDING AFFINITY PREDICTED BY RF-SCORE:    0.00 PKD
ROOT
HETATM    1  C   UNL     1      -9.988   9.391  70.828  1.00  0.00    -0.358 C  
HETATM    2  C   UNL     1     -11.002  10.023  69.892  1.00  0.00    -0.293 C  
ENDROOT
BRANCH   2   3
HETATM    3  N   UNL     1     -10.397  10.674  68.728  1.00  0.00    -0.182 N  
HETATM    4  O   UNL     1     -11.587  12.614  69.185  1.00  0.00    -0.282 OA 
HETATM    5  C   UNL     1     -10.801  11.997  68.472  1.00  0.00    -0.233 C  
BRANCH   3   6
HETATM    6  C   UNL     1      -9.723   9.865  67.709  1.00  0.00    -0.150 C  
HETATM    7  C   UNL     1     -10.466   8.661  67.159  1.00  0.00    -0.360 C  
ENDBRANCH   3   6
BRANCH   5   8
HETATM    8  C   UNL     1     -10.203  12.711  67.264  1.00  0.00    -0.227 C  
HETATM    9  C   UNL     1      -9.836  14.188  67.462  1.00  0.00    -0.235 C  
HETATM   10  C   UNL     1      -8.737  13.174  67.345  1.00  0.00    -0.206 C  
BRANCH   8  11
HETATM   11  C   UNL     1     -10.878  12.366  65.928  1.00  0.00    -0.305 A  
HETATM   12  C   UNL     1     -10.097  11.892  64.858  1.00  0.00    -0.296 A  
HETATM   13  C   UNL     1     -10.609  11.807  63.561  1.00  0.00    -0.499 A  
HETATM   14  C   UNL     1     -12.229  12.645  65.662  1.00  0.00    -0.474 A  
HETATM   15  C   UNL     1     -11.924  12.178  63.309  1.00  0.00    -0.489 A  
HETATM   16  C   UNL     1     -12.743  12.575  64.363  1.00  0.00    -0.447 A  
ENDBRANCH   8  11
BRANCH  10  17
HETATM   17  C   UNL     1      -7.880  12.821  68.526  1.00  0.00    -0.099 C  
HETATM   18  N   UNL     1      -7.715  13.972  69.398  1.00  0.00    -0.338 NA 
HETATM   19  H2  UNL     1      -8.613  14.363  69.684  1.00  0.00     0.000 HD 
HETATM   20  H1  UNL     1      -7.133  13.732  70.200  1.00  0.00     0.000 HD 
ENDBRANCH  10  17
ENDBRANCH   5   8
ENDBRANCH   2   3
TORSDOF 5
ENDMDL
MODEL       49
REMARK 921   NORMALIZED FREE ENERGY PREDICTED BY IDOCK:   -4.20 KCAL/MOL
REMARK 922        TOTAL FREE ENERGY PREDICTED BY IDOCK:   -5.92 KCAL/MOL
REMARK 923 INTER-LIGAND FREE ENERGY PREDICTED BY IDOCK:   -6.09 KCAL/MOL
REMARK 924 INTRA-LIGAND FREE ENERGY PREDICTED BY IDOCK:    0.17 KCAL/MOL
REMARK 927      BINDING AFFINITY PREDICTED BY RF-SCORE:    0.00 PKD
ROOT
HETATM    1  C   UNL     1     -10.073  11.923  65.172  1.00  0.00    -0.293 C  
HETATM    2  C   UNL     1     -11.103  11.670  66.259  1.00  0.00    -0.290 C  
ENDROOT
BRANCH   2   3
HETATM    3  N   UNL     1     -10.878  12.456  67.473  1.00  0.00    -0.230 N  
HETATM    4  O   UNL     1     -12.622  13.872  66.888  1.00  0.00    -0.267 OA 
HETATM    5  C   UNL     1     -11.718  13.570  67.661  1.00  0.00    -0.363 C  
BRANCH   3   6
HETATM    6  C   UNL     1      -9.627  12.302  68.220  1.00  0.00    -0.212 C  
HETATM    7  C   UNL     1      -9.360  10.961  68.879  1.00  0.00    -0.169 C  
ENDBRANCH   3   6
BRANCH   5   8
HETATM    8  C   UNL     1     -11.513  14.422  68.908  1.00  0.00    -0.319 C  
HETATM    9  C   UNL     1     -10.061  14.772  69.260  1.00  0.00    -0.165 C  
HETATM   10  C   UNL     1     -10.960  15.848  68.732  1.00  0.00    -0.301 C  
BRANCH   8  11
HETATM   11  C   UNL     1     -12.411  14.035  70.093  1.00  0.00    -0.409 A  
HETATM   12  C   UNL     1     -13.124  15.035  70.780  1.00  0.00    -0.420 A  
HETATM   13  C   UNL     1     -13.745  14.780  72.005  1.00  0.00    -0.527 A  
HETATM   14  C   UNL     1     -12.442  12.738  70.634  1.00  0.00    -0.328 A  
HETATM   15  C   UNL     1     -13.681  13.508  72.562  1.00  0.00    -0.664 A  
HETATM   16  C   UNL     1     -13.051  12.480  71.866  1.00  0.00    -0.473 A  
ENDBRANCH   8  11
BRANCH  10  17
HETATM   17  C   UNL     1     -10.750  16.430  67.364  1.00  0.00    -0.278 C  
HETATM   18  N   UNL     1     -10.529  17.864  67.450  1.00  0.00    -0.383 NA 
HETATM   19  H2  UNL     1      -9.760  18.091  68.081  1.00  0.00     0.000 HD 
HETATM   20  H1  UNL     1     -10.387  18.260  66.521  1.00  0.00     0.000 HD 
ENDBRANCH  10  17
ENDBRANCH   5   8
ENDBRANCH   2   3
TORSDOF 5
ENDMDL
MODEL       50
REMARK 921   NORMALIZED FREE ENERGY PREDICTED BY IDOCK:   -4.19 KCAL/MOL
REMARK 922        TOTAL FREE ENERGY PREDICTED BY IDOCK:   -5.91 KCAL/MOL
REMARK 923 INTER-LIGAND FREE ENERGY PREDICTED BY IDOCK:   -5.79 KCAL/MOL
REMARK 924 INTRA-LIGAND FREE ENERGY PREDICTED BY IDOCK:   -0.12 KCAL/MOL
REMARK 927      BINDING AFFINITY PREDICTED BY RF-SCORE:    0.00 PKD
ROOT
HETATM    1  C   UNL     1     -10.232  12.063  64.369  1.00  0.00    -0.332 C  
HETATM    2  C   UNL     1     -10.687  11.825  65.797  1.00  0.00    -0.280 C  
ENDROOT
BRANCH   2   3
HETATM    3  N   UNL     1     -11.008  13.055  66.522  1.00  0.00    -0.282 N  
HETATM    4  O   UNL     1      -8.952  12.967  67.598  1.00  0.00    -0.173 OA 
HETATM    5  C   UNL     1     -10.036  13.519  67.428  1.00  0.00    -0.234 C  
BRANCH   3   6
HETATM    6  C   UNL     1     -12.392  13.534  66.569  1.00  0.00    -0.327 C  
HETATM    7  C   UNL     1     -12.962  14.166  65.311  1.00  0.00    -0.268 C  
ENDBRANCH   3   6
BRANCH   5   8
HETATM    8  C   UNL     1     -10.332  14.793  68.211  1.00  0.00    -0.238 C  
HETATM    9  C   UNL     1      -9.162  15.770  68.387  1.00  0.00    -0.192 C  
HETATM   10  C   UNL     1     -10.283  16.137  67.461  1.00  0.00    -0.267 C  
BRANCH   8  11
HETATM   11  C   UNL     1     -11.215  14.581  69.451  1.00  0.00    -0.312 A  
HETATM   12  C   UNL     1     -11.565  13.275  69.839  1.00  0.00    -0.260 A  
HETATM   13  C   UNL     1     -12.559  13.037  70.791  1.00  0.00    -0.321 A  
HETATM   14  C   UNL     1     -11.826  15.642  70.142  1.00  0.00    -0.381 A  
HETATM   15  C   UNL     1     -13.213  14.106  71.392  1.00  0.00    -0.418 A  
HETATM   16  C   UNL     1     -12.831  15.410  71.086  1.00  0.00    -0.520 A  
ENDBRANCH   8  11
BRANCH  10  17
HETATM   17  C   UNL     1     -10.077  16.183  65.975  1.00  0.00    -0.351 C  
HETATM   18  N   UNL     1     -10.578  17.434  65.431  1.00  0.00    -0.631 NA 
HETATM   19  H2  UNL     1     -10.165  18.242  65.897  1.00  0.00     0.000 HD 
HETATM   20  H1  UNL     1     -10.438  17.466  64.421  1.00  0.00     0.000 HD 
ENDBRANCH  10  17
ENDBRANCH   5   8
ENDBRANCH   2   3
TORSDOF 5
ENDMDL
MODEL       51
REMARK 921   NORMALIZED FREE ENERGY PREDICTED BY IDOCK:   -4.18 KCAL/MOL
REMARK 922        TOTAL FREE ENERGY PREDICTED BY IDOCK:   -5.89 KCAL/MOL
REMARK 923 INTER-LIGAND FREE ENERGY PREDICTED BY IDOCK:   -6.06 KCAL/MOL
REMARK 924 INTRA-LIGAND FREE ENERGY PREDICTED BY IDOCK:    0.17 KCAL/MOL
REMARK 927      BINDING AFFINITY PREDICTED BY RF-SCORE:    0.00 PKD
ROOT
HETATM    1  C   UNL     1      -9.334  17.406  68.654  1.00  0.00    -0.267 C  
HETATM    2  C   UNL     1      -9.096  15.929  68.909  1.00  0.00    -0.233 C  
ENDROOT
BRANCH   2   3
HETATM    3  N   UNL     1     -10.213  15.076  68.500  1.00  0.00    -0.222 N  
HETATM    4  O   UNL     1      -8.747  13.690  67.354  1.00  0.00    -0.190 OA 
HETATM    5  C   UNL     1      -9.894  13.973  67.689  1.00  0.00    -0.233 C  
BRANCH   3   6
HETATM    6  C   UNL     1     -11.588  15.570  68.620  1.00  0.00    -0.368 C  
HETATM    7  C   UNL     1     -12.233  15.533  69.994  1.00  0.00    -0.380 C  
ENDBRANCH   3   6
BRANCH   5   8
HETATM    8  C   UNL     1     -11.028  13.063  67.232  1.00  0.00    -0.288 C  
HETATM    9  C   UNL     1     -12.284  13.762  66.693  1.00  0.00    -0.454 C  
HETATM   10  C   UNL     1     -11.385  13.040  65.734  1.00  0.00    -0.331 C  
BRANCH   8  11
HETATM   11  C   UNL     1     -11.281  11.857  68.150  1.00  0.00    -0.316 A  
HETATM   12  C   UNL     1     -12.017  12.030  69.336  1.00  0.00    -0.334 A  
HETATM   13  C   UNL     1     -12.060  11.041  70.322  1.00  0.00    -0.448 A  
HETATM   14  C   UNL     1     -10.679  10.604  67.945  1.00  0.00    -0.292 A  
HETATM   15  C   UNL     1     -11.377   9.845  70.132  1.00  0.00    -0.335 A  
HETATM   16  C   UNL     1     -10.706   9.615  68.934  1.00  0.00    -0.230 A  
ENDBRANCH   8  11
BRANCH  10  17
HETATM   17  C   UNL     1     -10.557  13.791  64.733  1.00  0.00    -0.428 C  
HETATM   18  N   UNL     1      -9.858  12.868  63.855  1.00  0.00    -0.711 NA 
HETATM   19  H2  UNL     1     -10.499  12.216  63.404  1.00  0.00     0.000 HD 
HETATM   20  H1  UNL     1      -9.295  13.378  63.175  1.00  0.00     0.000 HD 
ENDBRANCH  10  17
ENDBRANCH   5   8
ENDBRANCH   2   3
TORSDOF 5
ENDMDL
MODEL       52
REMARK 921   NORMALIZED FREE ENERGY PREDICTED BY IDOCK:   -4.16 KCAL/MOL
REMARK 922        TOTAL FREE ENERGY PREDICTED BY IDOCK:   -5.87 KCAL/MOL
REMARK 923 INTER-LIGAND FREE ENERGY PREDICTED BY IDOCK:   -5.25 KCAL/MOL
REMARK 924 INTRA-LIGAND FREE ENERGY PREDICTED BY IDOCK:   -0.61 KCAL/MOL
REMARK 927      BINDING AFFINITY PREDICTED BY RF-SCORE:    0.00 PKD
ROOT
HETATM    1  C   UNL     1      -6.406   8.588  71.050  1.00  0.00    -0.043 C  
HETATM    2  C   UNL     1      -7.149   7.327  71.453  1.00  0.00    -0.064 C  
ENDROOT
BRANCH   2   3
HETATM    3  N   UNL     1      -8.553   7.560  71.799  1.00  0.00    -0.113 N  
HETATM    4  O   UNL     1      -9.194   6.925  69.660  1.00  0.00    -0.146 OA 
HETATM    5  C   UNL     1      -9.494   7.332  70.779  1.00  0.00    -0.164 C  
BRANCH   3   6
HETATM    6  C   UNL     1      -8.889   8.334  72.997  1.00  0.00    -0.232 C  
HETATM    7  C   UNL     1      -8.284   7.890  74.316  1.00  0.00    -0.303 C  
ENDBRANCH   3   6
BRANCH   5   8
HETATM    8  C   UNL     1     -10.967   7.570  71.093  1.00  0.00    -0.264 C  
HETATM    9  C   UNL     1     -11.966   6.612  70.431  1.00  0.00    -0.342 C  
HETATM   10  C   UNL     1     -11.720   6.501  71.906  1.00  0.00    -0.371 C  
BRANCH   8  11
HETATM   11  C   UNL     1     -11.377   9.050  71.113  1.00  0.00    -0.375 A  
HETATM   12  C   UNL     1     -12.436   9.466  71.940  1.00  0.00    -0.468 A  
HETATM   13  C   UNL     1     -13.013  10.732  71.811  1.00  0.00    -0.568 A  
HETATM   14  C   UNL     1     -10.847  10.001  70.224  1.00  0.00    -0.370 A  
HETATM   15  C   UNL     1     -12.527  11.620  70.857  1.00  0.00    -0.440 A  
HETATM   16  C   UNL     1     -11.428  11.265  70.080  1.00  0.00    -0.359 A  
ENDBRANCH   8  11
BRANCH  10  17
HETATM   17  C   UNL     1     -10.996   5.320  72.484  1.00  0.00    -0.240 C  
HETATM   18  N   UNL     1     -10.947   5.413  73.933  1.00  0.00    -0.390 NA 
HETATM   19  H2  UNL     1     -11.876   5.523  74.338  1.00  0.00     0.000 HD 
HETATM   20  H1  UNL     1     -10.454   4.611  74.326  1.00  0.00     0.000 HD 
ENDBRANCH  10  17
ENDBRANCH   5   8
ENDBRANCH   2   3
TORSDOF 5
ENDMDL
MODEL       53
REMARK 921   NORMALIZED FREE ENERGY PREDICTED BY IDOCK:   -4.11 KCAL/MOL
REMARK 922        TOTAL FREE ENERGY PREDICTED BY IDOCK:   -5.80 KCAL/MOL
REMARK 923 INTER-LIGAND FREE ENERGY PREDICTED BY IDOCK:   -5.85 KCAL/MOL
REMARK 924 INTRA-LIGAND FREE ENERGY PREDICTED BY IDOCK:    0.05 KCAL/MOL
REMARK 927      BINDING AFFINITY PREDICTED BY RF-SCORE:    0.00 PKD
ROOT
HETATM    1  C   UNL     1      -9.637  10.323  69.511  1.00  0.00    -0.225 C  
HETATM    2  C   UNL     1      -9.929  10.144  68.032  1.00  0.00    -0.148 C  
ENDROOT
BRANCH   2   3
HETATM    3  N   UNL     1      -9.838  11.387  67.263  1.00  0.00    -0.188 N  
HETATM    4  O   UNL     1     -12.135  11.672  67.436  1.00  0.00    -0.605 OA 
HETATM    5  C   UNL     1     -11.049  12.059  67.014  1.00  0.00    -0.298 C  
BRANCH   3   6
HETATM    6  C   UNL     1      -8.624  11.682  66.497  1.00  0.00    -0.164 C  
HETATM    7  C   UNL     1      -7.538  12.491  67.183  1.00  0.00    -0.087 C  
ENDBRANCH   3   6
BRANCH   5   8
HETATM    8  C   UNL     1     -11.002  13.352  66.209  1.00  0.00    -0.296 C  
HETATM    9  C   UNL     1     -10.308  13.276  64.842  1.00  0.00    -0.368 C  
HETATM   10  C   UNL     1     -11.800  13.421  64.895  1.00  0.00    -0.403 C  
BRANCH   8  11
HETATM   11  C   UNL     1     -10.693  14.605  67.043  1.00  0.00    -0.290 A  
HETATM   12  C   UNL     1     -11.490  14.909  68.162  1.00  0.00    -0.348 A  
HETATM   13  C   UNL     1     -11.417  16.151  68.796  1.00  0.00    -0.340 A  
HETATM   14  C   UNL     1      -9.737  15.561  66.658  1.00  0.00    -0.264 A  
HETATM   15  C   UNL     1     -10.527  17.114  68.335  1.00  0.00    -0.376 A  
HETATM   16  C   UNL     1      -9.669  16.812  67.281  1.00  0.00    -0.250 A  
ENDBRANCH   8  11
BRANCH  10  17
HETATM   17  C   UNL     1     -12.702  12.295  64.481  1.00  0.00    -0.243 C  
HETATM   18  N   UNL     1     -12.282  11.751  63.201  1.00  0.00    -0.956 NA 
HETATM   19  H2  UNL     1     -11.303  11.466  63.213  1.00  0.00     0.000 HD 
HETATM   20  H1  UNL     1     -12.896  10.986  62.919  1.00  0.00     0.000 HD 
ENDBRANCH  10  17
ENDBRANCH   5   8
ENDBRANCH   2   3
TORSDOF 5
ENDMDL
MODEL       54
REMARK 921   NORMALIZED FREE ENERGY PREDICTED BY IDOCK:   -4.11 KCAL/MOL
REMARK 922        TOTAL FREE ENERGY PREDICTED BY IDOCK:   -5.80 KCAL/MOL
REMARK 923 INTER-LIGAND FREE ENERGY PREDICTED BY IDOCK:   -5.30 KCAL/MOL
REMARK 924 INTRA-LIGAND FREE ENERGY PREDICTED BY IDOCK:   -0.50 KCAL/MOL
REMARK 927      BINDING AFFINITY PREDICTED BY RF-SCORE:    0.00 PKD
ROOT
HETATM    1  C   UNL     1      -6.189  12.926  68.694  1.00  0.00    -0.071 C  
HETATM    2  C   UNL     1      -6.800  12.838  67.307  1.00  0.00    -0.080 C  
ENDROOT
BRANCH   2   3
HETATM    3  N   UNL     1      -8.224  12.499  67.314  1.00  0.00    -0.179 N  
HETATM    4  O   UNL     1      -7.740  10.414  66.417  1.00  0.00    -0.114 OA 
HETATM    5  C   UNL     1      -8.567  11.230  66.813  1.00  0.00    -0.159 C  
BRANCH   3   6
HETATM    6  C   UNL     1      -9.224  13.557  67.478  1.00  0.00    -0.219 C  
HETATM    7  C   UNL     1      -9.098  14.789  66.599  1.00  0.00    -0.300 C  
ENDBRANCH   3   6
BRANCH   5   8
HETATM    8  C   UNL     1     -10.040  10.838  66.794  1.00  0.00    -0.267 C  
HETATM    9  C   UNL     1     -10.350   9.352  67.023  1.00  0.00    -0.322 C  
HETATM   10  C   UNL     1     -10.677  10.339  68.103  1.00  0.00    -0.287 C  
BRANCH   8  11
HETATM   11  C   UNL     1     -10.864  11.528  65.696  1.00  0.00    -0.310 A  
HETATM   12  C   UNL     1     -10.436  11.455  64.358  1.00  0.00    -0.388 A  
HETATM   13  C   UNL     1     -10.995  12.265  63.366  1.00  0.00    -0.467 A  
HETATM   14  C   UNL     1     -11.954  12.369  65.976  1.00  0.00    -0.419 A  
HETATM   15  C   UNL     1     -12.011  13.156  63.690  1.00  0.00    -0.580 A  
HETATM   16  C   UNL     1     -12.509  13.192  64.990  1.00  0.00    -0.516 A  
ENDBRANCH   8  11
BRANCH  10  17
HETATM   17  C   UNL     1      -9.908  10.360  69.392  1.00  0.00    -0.213 C  
HETATM   18  N   UNL     1     -10.815  10.318  70.527  1.00  0.00    -0.408 NA 
HETATM   19  H2  UNL     1     -11.448   9.520  70.476  1.00  0.00     0.000 HD 
HETATM   20  H1  UNL     1     -10.292  10.332  71.403  1.00  0.00     0.000 HD 
ENDBRANCH  10  17
ENDBRANCH   5   8
ENDBRANCH   2   3
TORSDOF 5
ENDMDL
MODEL       55
REMARK 921   NORMALIZED FREE ENERGY PREDICTED BY IDOCK:   -4.10 KCAL/MOL
REMARK 922        TOTAL FREE ENERGY PREDICTED BY IDOCK:   -5.79 KCAL/MOL
REMARK 923 INTER-LIGAND FREE ENERGY PREDICTED BY IDOCK:   -5.36 KCAL/MOL
REMARK 924 INTRA-LIGAND FREE ENERGY PREDICTED BY IDOCK:   -0.44 KCAL/MOL
REMARK 927      BINDING AFFINITY PREDICTED BY RF-SCORE:    0.00 PKD
ROOT
HETATM    1  C   UNL     1     -10.700   5.666  66.893  1.00  0.00    -0.350 C  
HETATM    2  C   UNL     1      -9.483   6.333  67.507  1.00  0.00    -0.112 C  
ENDROOT
BRANCH   2   3
HETATM    3  N   UNL     1      -9.814   7.407  68.445  1.00  0.00    -0.154 N  
HETATM    4  O   UNL     1      -9.422   5.979  70.232  1.00  0.00    -0.159 OA 
HETATM    5  C   UNL     1      -9.760   7.082  69.813  1.00  0.00    -0.168 C  
BRANCH   3   6
HETATM    6  C   UNL     1     -10.514   8.602  67.966  1.00  0.00    -0.197 C  
HETATM    7  C   UNL     1      -9.780   9.506  66.992  1.00  0.00    -0.229 C  
ENDBRANCH   3   6
BRANCH   5   8
HETATM    8  C   UNL     1     -10.106   8.168  70.825  1.00  0.00    -0.211 C  
HETATM    9  C   UNL     1      -9.215   8.242  72.072  1.00  0.00    -0.270 C  
HETATM   10  C   UNL     1      -9.101   9.316  71.032  1.00  0.00    -0.253 C  
BRANCH   8  11
HETATM   11  C   UNL     1     -11.612   8.346  71.071  1.00  0.00    -0.307 A  
HETATM   12  C   UNL     1     -12.121   9.624  71.366  1.00  0.00    -0.472 A  
HETATM   13  C   UNL     1     -13.421   9.801  71.843  1.00  0.00    -0.485 A  
HETATM   14  C   UNL     1     -12.502   7.263  71.168  1.00  0.00    -0.373 A  
HETATM   15  C   UNL     1     -14.251   8.699  72.019  1.00  0.00    -0.524 A  
HETATM   16  C   UNL     1     -13.801   7.432  71.659  1.00  0.00    -0.490 A  
ENDBRANCH   8  11
BRANCH  10  17
HETATM   17  C   UNL     1      -7.877   9.435  70.172  1.00  0.00    -0.142 C  
HETATM   18  N   UNL     1      -7.078  10.578  70.578  1.00  0.00    -0.464 NA 
HETATM   19  H2  UNL     1      -6.843  10.543  71.570  1.00  0.00     0.000 HD 
HETATM   20  H1  UNL     1      -6.247  10.659  69.993  1.00  0.00     0.000 HD 
ENDBRANCH  10  17
ENDBRANCH   5   8
ENDBRANCH   2   3
TORSDOF 5
ENDMDL
MODEL       56
REMARK 921   NORMALIZED FREE ENERGY PREDICTED BY IDOCK:   -4.10 KCAL/MOL
REMARK 922        TOTAL FREE ENERGY PREDICTED BY IDOCK:   -5.79 KCAL/MOL
REMARK 923 INTER-LIGAND FREE ENERGY PREDICTED BY IDOCK:   -5.48 KCAL/MOL
REMARK 924 INTRA-LIGAND FREE ENERGY PREDICTED BY IDOCK:   -0.31 KCAL/MOL
REMARK 927      BINDING AFFINITY PREDICTED BY RF-SCORE:    0.00 PKD
ROOT
HETATM    1  C   UNL     1     -11.393  12.215  63.210  1.00  0.00    -0.410 C  
HETATM    2  C   UNL     1     -11.997  12.031  64.590  1.00  0.00    -0.249 C  
ENDROOT
BRANCH   2   3
HETATM    3  N   UNL     1     -11.224  12.668  65.658  1.00  0.00    -0.298 N  
HETATM    4  O   UNL     1     -12.927  14.212  65.980  1.00  0.00    -0.357 OA 
HETATM    5  C   UNL     1     -11.812  13.788  66.273  1.00  0.00    -0.398 C  
BRANCH   3   6
HETATM    6  C   UNL     1      -9.794  12.378  65.795  1.00  0.00    -0.240 C  
HETATM    7  C   UNL     1      -9.396  10.978  66.227  1.00  0.00    -0.206 C  
ENDBRANCH   3   6
BRANCH   5   8
HETATM    8  C   UNL     1     -11.038  14.487  67.385  1.00  0.00    -0.320 C  
HETATM    9  C   UNL     1     -11.863  14.970  68.586  1.00  0.00    -0.325 C  
HETATM   10  C   UNL     1     -10.948  13.794  68.756  1.00  0.00    -0.289 C  
BRANCH   8  11
HETATM   11  C   UNL     1      -9.956  15.458  66.887  1.00  0.00    -0.247 A  
HETATM   12  C   UNL     1      -8.605  15.201  67.183  1.00  0.00    -0.247 A  
HETATM   13  C   UNL     1      -7.615  16.166  66.980  1.00  0.00    -0.260 A  
HETATM   14  C   UNL     1     -10.257  16.686  66.274  1.00  0.00    -0.344 A  
HETATM   15  C   UNL     1      -7.957  17.409  66.458  1.00  0.00    -0.317 A  
HETATM   16  C   UNL     1      -9.273  17.661  66.081  1.00  0.00    -0.145 A  
ENDBRANCH   8  11
BRANCH  10  17
HETATM   17  C   UNL     1     -11.495  12.411  68.959  1.00  0.00    -0.300 C  
HETATM   18  N   UNL     1     -11.831  12.196  70.356  1.00  0.00    -0.525 NA 
HETATM   19  H2  UNL     1     -12.469  12.911  70.706  1.00  0.00     0.000 HD 
HETATM   20  H1  UNL     1     -12.202  11.256  70.494  1.00  0.00     0.000 HD 
ENDBRANCH  10  17
ENDBRANCH   5   8
ENDBRANCH   2   3
TORSDOF 5
ENDMDL
MODEL       57
REMARK 921   NORMALIZED FREE ENERGY PREDICTED BY IDOCK:   -4.04 KCAL/MOL
REMARK 922        TOTAL FREE ENERGY PREDICTED BY IDOCK:   -5.72 KCAL/MOL
REMARK 923 INTER-LIGAND FREE ENERGY PREDICTED BY IDOCK:   -5.75 KCAL/MOL
REMARK 924 INTRA-LIGAND FREE ENERGY PREDICTED BY IDOCK:    0.03 KCAL/MOL
REMARK 927      BINDING AFFINITY PREDICTED BY RF-SCORE:    0.00 PKD
ROOT
HETATM    1  C   UNL     1      -8.744  11.898  67.899  1.00  0.00    -0.167 C  
HETATM    2  C   UNL     1      -8.279  13.242  67.370  1.00  0.00    -0.183 C  
ENDROOT
BRANCH   2   3
HETATM    3  N   UNL     1      -9.301  14.287  67.448  1.00  0.00    -0.197 N  
HETATM    4  O   UNL     1      -8.377  15.054  69.435  1.00  0.00    -0.198 OA 
HETATM    5  C   UNL     1      -9.245  15.135  68.569  1.00  0.00    -0.192 C  
BRANCH   3   6
HETATM    6  C   UNL     1     -10.502  14.196  66.613  1.00  0.00    -0.278 C  
HETATM    7  C   UNL     1     -10.417  14.727  65.194  1.00  0.00    -0.443 C  
ENDBRANCH   3   6
BRANCH   5   8
HETATM    8  C   UNL     1     -10.295  16.232  68.695  1.00  0.00    -0.263 C  
HETATM    9  C   UNL     1     -11.758  15.790  68.556  1.00  0.00    -0.328 C  
HETATM   10  C   UNL     1     -11.245  16.195  69.906  1.00  0.00    -0.349 C  
BRANCH   8  11
HETATM   11  C   UNL     1      -9.927  17.545  67.986  1.00  0.00    -0.310 A  
HETATM   12  C   UNL     1      -8.920  18.366  68.526  1.00  0.00    -0.336 A  
HETATM   13  C   UNL     1      -8.723  19.674  68.075  1.00  0.00    -0.366 A  
HETATM   14  C   UNL     1     -10.654  18.053  66.896  1.00  0.00    -0.291 A  
HETATM   15  C   UNL     1      -9.521  20.183  67.056  1.00  0.00    -0.541 A  
HETATM   16  C   UNL     1     -10.470  19.365  66.449  1.00  0.00    -0.581 A  
ENDBRANCH   8  11
BRANCH  10  17
HETATM   17  C   UNL     1     -11.060  15.184  71.000  1.00  0.00    -0.238 C  
HETATM   18  N   UNL     1     -11.859  13.998  70.736  1.00  0.00    -0.491 NA 
HETATM   19  H2  UNL     1     -11.659  13.603  69.818  1.00  0.00     0.000 HD 
HETATM   20  H1  UNL     1     -11.734  13.311  71.480  1.00  0.00     0.000 HD 
ENDBRANCH  10  17
ENDBRANCH   5   8
ENDBRANCH   2   3
TORSDOF 5
ENDMDL
MODEL       58
REMARK 921   NORMALIZED FREE ENERGY PREDICTED BY IDOCK:   -4.04 KCAL/MOL
REMARK 922        TOTAL FREE ENERGY PREDICTED BY IDOCK:   -5.71 KCAL/MOL
REMARK 923 INTER-LIGAND FREE ENERGY PREDICTED BY IDOCK:   -5.08 KCAL/MOL
REMARK 924 INTRA-LIGAND FREE ENERGY PREDICTED BY IDOCK:   -0.64 KCAL/MOL
REMARK 927      BINDING AFFINITY PREDICTED BY RF-SCORE:    0.00 PKD
ROOT
HETATM    1  C   UNL     1      -9.763   4.769  68.277  1.00  0.00    -0.200 C  
HETATM    2  C   UNL     1      -8.995   4.944  69.575  1.00  0.00    -0.092 C  
ENDROOT
BRANCH   2   3
HETATM    3  N   UNL     1      -9.450   6.082  70.376  1.00  0.00    -0.162 N  
HETATM    4  O   UNL     1     -10.010   4.647  72.112  1.00  0.00    -0.167 OA 
HETATM    5  C   UNL     1      -9.964   5.784  71.651  1.00  0.00    -0.174 C  
BRANCH   3   6
HETATM    6  C   UNL     1      -9.695   7.375  69.731  1.00  0.00    -0.170 C  
HETATM    7  C   UNL     1      -8.507   8.299  69.529  1.00  0.00    -0.125 C  
ENDBRANCH   3   6
BRANCH   5   8
HETATM    8  C   UNL     1     -10.457   6.939  72.515  1.00  0.00    -0.241 C  
HETATM    9  C   UNL     1     -10.286   6.772  74.032  1.00  0.00    -0.377 C  
HETATM   10  C   UNL     1      -9.416   7.753  73.305  1.00  0.00    -0.344 C  
BRANCH   8  11
HETATM   11  C   UNL     1     -11.792   7.545  72.058  1.00  0.00    -0.331 A  
HETATM   12  C   UNL     1     -12.023   8.923  72.228  1.00  0.00    -0.380 A  
HETATM   13  C   UNL     1     -13.296   9.476  72.069  1.00  0.00    -0.535 A  
HETATM   14  C   UNL     1     -12.872   6.764  71.613  1.00  0.00    -0.328 A  
HETATM   15  C   UNL     1     -14.366   8.662  71.717  1.00  0.00    -0.476 A  
HETATM   16  C   UNL     1     -14.151   7.310  71.465  1.00  0.00    -0.515 A  
ENDBRANCH   8  11
BRANCH  10  17
HETATM   17  C   UNL     1      -7.946   7.502  73.129  1.00  0.00    -0.111 C  
HETATM   18  N   UNL     1      -7.219   8.759  73.069  1.00  0.00    -0.348 NA 
HETATM   19  H2  UNL     1      -7.409   9.346  73.881  1.00  0.00     0.000 HD 
HETATM   20  H1  UNL     1      -6.221   8.588  72.949  1.00  0.00     0.000 HD 
ENDBRANCH  10  17
ENDBRANCH   5   8
ENDBRANCH   2   3
TORSDOF 5
ENDMDL
MODEL       59
REMARK 921   NORMALIZED FREE ENERGY PREDICTED BY IDOCK:   -4.02 KCAL/MOL
REMARK 922        TOTAL FREE ENERGY PREDICTED BY IDOCK:   -5.68 KCAL/MOL
REMARK 923 INTER-LIGAND FREE ENERGY PREDICTED BY IDOCK:   -5.61 KCAL/MOL
REMARK 924 INTRA-LIGAND FREE ENERGY PREDICTED BY IDOCK:   -0.08 KCAL/MOL
REMARK 927      BINDING AFFINITY PREDICTED BY RF-SCORE:    0.00 PKD
ROOT
HETATM    1  C   UNL     1      -6.594  11.908  67.086  1.00  0.00    -0.148 C  
HETATM    2  C   UNL     1      -7.379  12.578  68.199  1.00  0.00    -0.110 C  
ENDROOT
BRANCH   2   3
HETATM    3  N   UNL     1      -8.803  12.235  68.200  1.00  0.00    -0.184 N  
HETATM    4  O   UNL     1      -9.355  14.489  68.192  1.00  0.00    -0.185 OA 
HETATM    5  C   UNL     1      -9.706  13.313  68.215  1.00  0.00    -0.225 C  
BRANCH   3   6
HETATM    6  C   UNL     1      -9.223  10.874  68.546  1.00  0.00    -0.181 C  
HETATM    7  C   UNL     1      -8.476  10.167  69.662  1.00  0.00    -0.172 C  
ENDBRANCH   3   6
BRANCH   5   8
HETATM    8  C   UNL     1     -11.198  13.001  68.226  1.00  0.00    -0.309 C  
HETATM    9  C   UNL     1     -12.079  13.864  67.313  1.00  0.00    -0.403 C  
HETATM   10  C   UNL     1     -11.832  12.432  66.944  1.00  0.00    -0.377 C  
BRANCH   8  11
HETATM   11  C   UNL     1     -11.772  12.706  69.621  1.00  0.00    -0.373 A  
HETATM   12  C   UNL     1     -12.027  11.376  70.000  1.00  0.00    -0.442 A  
HETATM   13  C   UNL     1     -12.776  11.070  71.139  1.00  0.00    -0.521 A  
HETATM   14  C   UNL     1     -12.206  13.717  70.496  1.00  0.00    -0.440 A  
HETATM   15  C   UNL     1     -13.272  12.095  71.937  1.00  0.00    -0.474 A  
HETATM   16  C   UNL     1     -12.967  13.418  71.630  1.00  0.00    -0.445 A  
ENDBRANCH   8  11
BRANCH  10  17
HETATM   17  C   UNL     1     -10.985  12.074  65.758  1.00  0.00    -0.307 C  
HETATM   18  N   UNL     1     -11.188  13.027  64.680  1.00  0.00    -0.311 NA 
HETATM   19  H2  UNL     1     -11.025  13.986  64.986  1.00  0.00     0.000 HD 
HETATM   20  H1  UNL     1     -10.613  12.782  63.874  1.00  0.00     0.000 HD 
ENDBRANCH  10  17
ENDBRANCH   5   8
ENDBRANCH   2   3
TORSDOF 5
ENDMDL
MODEL       60
REMARK 921   NORMALIZED FREE ENERGY PREDICTED BY IDOCK:   -4.00 KCAL/MOL
REMARK 922        TOTAL FREE ENERGY PREDICTED BY IDOCK:   -5.66 KCAL/MOL
REMARK 923 INTER-LIGAND FREE ENERGY PREDICTED BY IDOCK:   -5.21 KCAL/MOL
REMARK 924 INTRA-LIGAND FREE ENERGY PREDICTED BY IDOCK:   -0.45 KCAL/MOL
REMARK 927      BINDING AFFINITY PREDICTED BY RF-SCORE:    0.00 PKD
ROOT
HETATM    1  C   UNL     1      -6.377  13.343  68.732  1.00  0.00    -0.094 C  
HETATM    2  C   UNL     1      -6.977  13.967  67.486  1.00  0.00    -0.144 C  
ENDROOT
BRANCH   2   3
HETATM    3  N   UNL     1      -8.427  14.158  67.566  1.00  0.00    -0.175 N  
HETATM    4  O   UNL     1      -8.112  16.415  68.009  1.00  0.00    -0.153 OA 
HETATM    5  C   UNL     1      -8.870  15.461  67.859  1.00  0.00    -0.168 C  
BRANCH   3   6
HETATM    6  C   UNL     1      -9.309  12.997  67.707  1.00  0.00    -0.199 C  
HETATM    7  C   UNL     1      -9.669  12.229  66.448  1.00  0.00    -0.243 C  
ENDBRANCH   3   6
BRANCH   5   8
HETATM    8  C   UNL     1     -10.371  15.704  67.961  1.00  0.00    -0.246 C  
HETATM    9  C   UNL     1     -10.870  17.077  67.491  1.00  0.00    -0.203 C  
HETATM   10  C   UNL     1     -11.172  15.868  66.657  1.00  0.00     0.061 C  
BRANCH   8  11
HETATM   11  C   UNL     1     -11.012  15.170  69.251  1.00  0.00    -0.260 A  
HETATM   12  C   UNL     1     -12.099  14.280  69.170  1.00  0.00    -0.337 A  
HETATM   13  C   UNL     1     -12.873  13.967  70.290  1.00  0.00    -0.132 A  
HETATM   14  C   UNL     1     -10.666  15.645  70.528  1.00  0.00    -0.295 A  
HETATM   15  C   UNL     1     -12.563  14.525  71.524  1.00  0.00    -0.419 A  
HETATM   16  C   UNL     1     -11.445  15.346  71.650  1.00  0.00    -0.492 A  
ENDBRANCH   8  11
BRANCH  10  17
HETATM   17  C   UNL     1     -10.520  15.666  65.320  1.00  0.00    -0.412 C  
HETATM   18  N   UNL     1     -11.259  16.364  64.282  1.00  0.00    -1.298 NA 
HETATM   19  H2  UNL     1     -11.377  17.353  64.501  1.00  0.00     0.000 HD 
HETATM   20  H1  UNL     1     -10.816  16.226  63.374  1.00  0.00     0.000 HD 
ENDBRANCH  10  17
ENDBRANCH   5   8
ENDBRANCH   2   3
TORSDOF 5
ENDMDL
MODEL       61
REMARK 921   NORMALIZED FREE ENERGY PREDICTED BY IDOCK:   -3.99 KCAL/MOL
REMARK 922        TOTAL FREE ENERGY PREDICTED BY IDOCK:   -5.65 KCAL/MOL
REMARK 923 INTER-LIGAND FREE ENERGY PREDICTED BY IDOCK:   -5.66 KCAL/MOL
REMARK 924 INTRA-LIGAND FREE ENERGY PREDICTED BY IDOCK:    0.01 KCAL/MOL
REMARK 927      BINDING AFFINITY PREDICTED BY RF-SCORE:    0.00 PKD
ROOT
HETATM    1  C   UNL     1      -6.477  13.370  67.466  1.00  0.00    -0.129 C  
HETATM    2  C   UNL     1      -7.446  13.188  68.620  1.00  0.00    -0.092 C  
ENDROOT
BRANCH   2   3
HETATM    3  N   UNL     1      -8.606  14.079  68.557  1.00  0.00    -0.167 N  
HETATM    4  O   UNL     1     -10.020  12.242  68.438  1.00  0.00    -0.215 OA 
HETATM    5  C   UNL     1      -9.864  13.460  68.447  1.00  0.00    -0.216 C  
BRANCH   3   6
HETATM    6  C   UNL     1      -8.418  15.499  68.248  1.00  0.00    -0.156 C  
HETATM    7  C   UNL     1      -7.607  16.332  69.226  1.00  0.00    -0.203 C  
ENDBRANCH   3   6
BRANCH   5   8
HETATM    8  C   UNL     1     -11.099  14.350  68.369  1.00  0.00    -0.272 C  
HETATM    9  C   UNL     1     -11.020  15.537  67.400  1.00  0.00    -0.306 C  
HETATM   10  C   UNL     1     -11.899  14.372  67.054  1.00  0.00    -0.437 C  
BRANCH   8  11
HETATM   11  C   UNL     1     -11.754  14.643  69.728  1.00  0.00    -0.361 A  
HETATM   12  C   UNL     1     -11.411  15.817  70.425  1.00  0.00    -0.380 A  
HETATM   13  C   UNL     1     -11.775  16.007  71.760  1.00  0.00    -0.593 A  
HETATM   14  C   UNL     1     -12.574  13.717  70.395  1.00  0.00    -0.325 A  
HETATM   15  C   UNL     1     -12.508  15.030  72.424  1.00  0.00    -0.429 A  
HETATM   16  C   UNL     1     -12.930  13.896  71.736  1.00  0.00    -0.442 A  
ENDBRANCH   8  11
BRANCH  10  17
HETATM   17  C   UNL     1     -11.550  13.448  65.924  1.00  0.00    -0.342 C  
HETATM   18  N   UNL     1     -12.126  12.133  66.146  1.00  0.00    -0.590 NA 
HETATM   19  H2  UNL     1     -13.133  12.181  66.300  1.00  0.00     0.000 HD 
HETATM   20  H1  UNL     1     -11.889  11.504  65.379  1.00  0.00     0.000 HD 
ENDBRANCH  10  17
ENDBRANCH   5   8
ENDBRANCH   2   3
TORSDOF 5
ENDMDL
MODEL       62
REMARK 921   NORMALIZED FREE ENERGY PREDICTED BY IDOCK:   -3.99 KCAL/MOL
REMARK 922        TOTAL FREE ENERGY PREDICTED BY IDOCK:   -5.65 KCAL/MOL
REMARK 923 INTER-LIGAND FREE ENERGY PREDICTED BY IDOCK:   -5.58 KCAL/MOL
REMARK 924 INTRA-LIGAND FREE ENERGY PREDICTED BY IDOCK:   -0.06 KCAL/MOL
REMARK 927      BINDING AFFINITY PREDICTED BY RF-SCORE:    0.00 PKD
ROOT
HETATM    1  C   UNL     1     -10.783   7.066  67.490  1.00  0.00    -0.352 C  
HETATM    2  C   UNL     1     -10.007   8.044  68.352  1.00  0.00    -0.185 C  
ENDROOT
BRANCH   2   3
HETATM    3  N   UNL     1     -10.266   9.447  68.023  1.00  0.00    -0.192 N  
HETATM    4  O   UNL     1      -8.420   9.467  66.617  1.00  0.00    -0.124 OA 
HETATM    5  C   UNL     1      -9.363  10.058  67.135  1.00  0.00    -0.149 C  
BRANCH   3   6
HETATM    6  C   UNL     1     -11.173  10.237  68.861  1.00  0.00    -0.207 C  
HETATM    7  C   UNL     1     -11.090  10.046  70.365  1.00  0.00    -0.393 C  
ENDBRANCH   3   6
BRANCH   5   8
HETATM    8  C   UNL     1      -9.589  11.521  66.771  1.00  0.00    -0.203 C  
HETATM    9  C   UNL     1      -9.587  12.519  67.938  1.00  0.00    -0.206 C  
HETATM   10  C   UNL     1      -8.430  12.512  66.984  1.00  0.00    -0.161 C  
BRANCH   8  11
HETATM   11  C   UNL     1     -10.671  11.747  65.705  1.00  0.00    -0.328 A  
HETATM   12  C   UNL     1     -10.442  11.325  64.382  1.00  0.00    -0.407 A  
HETATM   13  C   UNL     1     -11.270  11.727  63.332  1.00  0.00    -0.440 A  
HETATM   14  C   UNL     1     -11.834  12.499  65.945  1.00  0.00    -0.489 A  
HETATM   15  C   UNL     1     -12.362  12.549  63.586  1.00  0.00    -0.618 A  
HETATM   16  C   UNL     1     -12.660  12.916  64.896  1.00  0.00    -0.525 A  
ENDBRANCH   8  11
BRANCH  10  17
HETATM   17  C   UNL     1      -7.075  12.032  67.415  1.00  0.00    -0.136 C  
HETATM   18  N   UNL     1      -6.255  11.718  66.257  1.00  0.00    -0.468 NA 
HETATM   19  H2  UNL     1      -6.192  12.506  65.612  1.00  0.00     0.000 HD 
HETATM   20  H1  UNL     1      -5.334  11.392  66.549  1.00  0.00     0.000 HD 
ENDBRANCH  10  17
ENDBRANCH   5   8
ENDBRANCH   2   3
TORSDOF 5
ENDMDL
MODEL       63
REMARK 921   NORMALIZED FREE ENERGY PREDICTED BY IDOCK:   -3.99 KCAL/MOL
REMARK 922        TOTAL FREE ENERGY PREDICTED BY IDOCK:   -5.64 KCAL/MOL
REMARK 923 INTER-LIGAND FREE ENERGY PREDICTED BY IDOCK:   -5.91 KCAL/MOL
REMARK 924 INTRA-LIGAND FREE ENERGY PREDICTED BY IDOCK:    0.26 KCAL/MOL
REMARK 927      BINDING AFFINITY PREDICTED BY RF-SCORE:    0.00 PKD
ROOT
HETATM    1  C   UNL     1      -8.537   9.578  68.214  1.00  0.00    -0.120 C  
HETATM    2  C   UNL     1      -9.223  10.442  69.257  1.00  0.00    -0.184 C  
ENDROOT
BRANCH   2   3
HETATM    3  N   UNL     1     -10.242  11.333  68.699  1.00  0.00    -0.198 N  
HETATM    4  O   UNL     1      -8.599  12.874  68.139  1.00  0.00    -0.177 OA 
HETATM    5  C   UNL     1      -9.785  12.556  68.176  1.00  0.00    -0.222 C  
BRANCH   3   6
HETATM    6  C   UNL     1     -11.655  11.115  69.020  1.00  0.00    -0.324 C  
HETATM    7  C   UNL     1     -12.008  10.777  70.457  1.00  0.00    -0.456 C  
ENDBRANCH   3   6
BRANCH   5   8
HETATM    8  C   UNL     1     -10.813  13.519  67.593  1.00  0.00    -0.273 C  
HETATM    9  C   UNL     1     -11.984  13.897  68.510  1.00  0.00    -0.394 C  
HETATM   10  C   UNL     1     -10.930  14.922  68.215  1.00  0.00    -0.268 C  
BRANCH   8  11
HETATM   11  C   UNL     1     -11.178  13.243  66.127  1.00  0.00    -0.317 A  
HETATM   12  C   UNL     1     -12.530  13.118  65.759  1.00  0.00    -0.441 A  
HETATM   13  C   UNL     1     -12.905  12.621  64.509  1.00  0.00    -0.356 A  
HETATM   14  C   UNL     1     -10.216  12.953  65.143  1.00  0.00    -0.288 A  
HETATM   15  C   UNL     1     -11.931  12.254  63.588  1.00  0.00    -0.633 A  
HETATM   16  C   UNL     1     -10.586  12.442  63.895  1.00  0.00    -0.470 A  
ENDBRANCH   8  11
BRANCH  10  17
HETATM   17  C   UNL     1      -9.973  15.377  69.279  1.00  0.00    -0.256 C  
HETATM   18  N   UNL     1     -10.557  15.200  70.598  1.00  0.00    -0.532 NA 
HETATM   19  H2  UNL     1     -10.864  14.239  70.750  1.00  0.00     0.000 HD 
HETATM   20  H1  UNL     1      -9.907  15.509  71.320  1.00  0.00     0.000 HD 
ENDBRANCH  10  17
ENDBRANCH   5   8
ENDBRANCH   2   3
TORSDOF 5
ENDMDL
MODEL       64
REMARK 921   NORMALIZED FREE ENERGY PREDICTED BY IDOCK:   -3.98 KCAL/MOL
REMARK 922        TOTAL FREE ENERGY PREDICTED BY IDOCK:   -5.64 KCAL/MOL
REMARK 923 INTER-LIGAND FREE ENERGY PREDICTED BY IDOCK:   -5.18 KCAL/MOL
REMARK 924 INTRA-LIGAND FREE ENERGY PREDICTED BY IDOCK:   -0.46 KCAL/MOL
REMARK 927      BINDING AFFINITY PREDICTED BY RF-SCORE:    0.00 PKD
ROOT
HETATM    1  C   UNL     1      -7.973  12.519  67.066  1.00  0.00    -0.086 C  
HETATM    2  C   UNL     1      -8.752  12.494  68.369  1.00  0.00    -0.122 C  
ENDROOT
BRANCH   2   3
HETATM    3  N   UNL     1      -9.850  13.462  68.413  1.00  0.00    -0.230 N  
HETATM    4  O   UNL     1      -8.433  15.039  69.357  1.00  0.00    -0.191 OA 
HETATM    5  C   UNL     1      -9.552  14.722  68.962  1.00  0.00    -0.178 C  
BRANCH   3   6
HETATM    6  C   UNL     1     -11.232  13.003  68.248  1.00  0.00    -0.275 C  
HETATM    7  C   UNL     1     -11.740  11.936  69.202  1.00  0.00    -0.380 C  
ENDBRANCH   3   6
BRANCH   5   8
HETATM    8  C   UNL     1     -10.668  15.757  69.035  1.00  0.00    -0.235 C  
HETATM    9  C   UNL     1     -10.285  17.196  68.663  1.00  0.00    -0.336 C  
HETATM   10  C   UNL     1     -11.147  16.406  67.724  1.00  0.00    -0.199 C  
BRANCH   8  11
HETATM   11  C   UNL     1     -11.589  15.608  70.256  1.00  0.00    -0.370 A  
HETATM   12  C   UNL     1     -11.025  15.455  71.536  1.00  0.00    -0.156 A  
HETATM   13  C   UNL     1     -11.797  15.065  72.633  1.00  0.00    -0.403 A  
HETATM   14  C   UNL     1     -12.982  15.462  70.147  1.00  0.00    -0.104 A  
HETATM   15  C   UNL     1     -13.159  14.837  72.476  1.00  0.00    -0.492 A  
HETATM   16  C   UNL     1     -13.758  15.058  71.239  1.00  0.00    -0.523 A  
ENDBRANCH   8  11
BRANCH  10  17
HETATM   17  C   UNL     1     -10.621  15.941  66.397  1.00  0.00    -0.297 C  
HETATM   18  N   UNL     1     -10.516  17.057  65.472  1.00  0.00    -0.604 NA 
HETATM   19  H2  UNL     1      -9.954  17.816  65.857  1.00  0.00     0.000 HD 
HETATM   20  H1  UNL     1     -10.159  16.741  64.570  1.00  0.00     0.000 HD 
ENDBRANCH  10  17
ENDBRANCH   5   8
ENDBRANCH   2   3
TORSDOF 5
ENDMDL
MODEL       65
REMARK 921   NORMALIZED FREE ENERGY PREDICTED BY IDOCK:   -3.97 KCAL/MOL
REMARK 922        TOTAL FREE ENERGY PREDICTED BY IDOCK:   -5.62 KCAL/MOL
REMARK 923 INTER-LIGAND FREE ENERGY PREDICTED BY IDOCK:   -5.10 KCAL/MOL
REMARK 924 INTRA-LIGAND FREE ENERGY PREDICTED BY IDOCK:   -0.52 KCAL/MOL
REMARK 927      BINDING AFFINITY PREDICTED BY RF-SCORE:    0.00 PKD
ROOT
HETATM    1  C   UNL     1      -8.282   7.893  74.446  1.00  0.00    -0.288 C  
HETATM    2  C   UNL     1      -8.146   6.823  73.378  1.00  0.00    -0.102 C  
ENDROOT
BRANCH   2   3
HETATM    3  N   UNL     1      -9.381   6.585  72.628  1.00  0.00    -0.141 N  
HETATM    4  O   UNL     1      -8.535   7.794  70.837  1.00  0.00    -0.122 OA 
HETATM    5  C   UNL     1      -9.453   7.156  71.344  1.00  0.00    -0.161 C  
BRANCH   3   6
HETATM    6  C   UNL     1     -10.579   6.112  73.327  1.00  0.00    -0.258 C  
HETATM    7  C   UNL     1     -10.543   4.716  73.923  1.00  0.00    -0.337 C  
ENDBRANCH   3   6
BRANCH   5   8
HETATM    8  C   UNL     1     -10.724   6.941  70.531  1.00  0.00    -0.267 C  
HETATM    9  C   UNL     1     -10.545   6.826  69.011  1.00  0.00    -0.258 C  
HETATM   10  C   UNL     1     -10.899   5.599  69.797  1.00  0.00    -0.370 C  
BRANCH   8  11
HETATM   11  C   UNL     1     -11.923   7.778  70.999  1.00  0.00    -0.281 A  
HETATM   12  C   UNL     1     -11.727   9.117  71.386  1.00  0.00    -0.413 A  
HETATM   13  C   UNL     1     -12.719   9.839  72.052  1.00  0.00    -0.463 A  
HETATM   14  C   UNL     1     -13.200   7.231  71.210  1.00  0.00    -0.352 A  
HETATM   15  C   UNL     1     -13.942   9.240  72.331  1.00  0.00    -0.432 A  
HETATM   16  C   UNL     1     -14.193   7.944  71.889  1.00  0.00    -0.508 A  
ENDBRANCH   8  11
BRANCH  10  17
HETATM   17  C   UNL     1      -9.910   4.485  69.980  1.00  0.00    -0.226 C  
HETATM   18  N   UNL     1      -9.081   4.341  68.795  1.00  0.00    -0.118 NA 
HETATM   19  H2  UNL     1      -8.623   5.217  68.544  1.00  0.00     0.000 HD 
HETATM   20  H1  UNL     1      -8.410   3.583  68.919  1.00  0.00     0.000 HD 
ENDBRANCH  10  17
ENDBRANCH   5   8
ENDBRANCH   2   3
TORSDOF 5
ENDMDL
MODEL       66
REMARK 921   NORMALIZED FREE ENERGY PREDICTED BY IDOCK:   -3.93 KCAL/MOL
REMARK 922        TOTAL FREE ENERGY PREDICTED BY IDOCK:   -5.57 KCAL/MOL
REMARK 923 INTER-LIGAND FREE ENERGY PREDICTED BY IDOCK:   -5.37 KCAL/MOL
REMARK 924 INTRA-LIGAND FREE ENERGY PREDICTED BY IDOCK:   -0.20 KCAL/MOL
REMARK 927      BINDING AFFINITY PREDICTED BY RF-SCORE:    0.00 PKD
ROOT
HETATM    1  C   UNL     1      -8.087   7.910  68.031  1.00  0.00    -0.126 C  
HETATM    2  C   UNL     1      -8.340   7.027  69.239  1.00  0.00    -0.129 C  
ENDROOT
BRANCH   2   3
HETATM    3  N   UNL     1      -9.222   7.637  70.235  1.00  0.00    -0.157 N  
HETATM    4  O   UNL     1     -11.078   6.830  69.098  1.00  0.00    -0.250 OA 
HETATM    5  C   UNL     1     -10.605   7.474  70.031  1.00  0.00    -0.237 C  
BRANCH   3   6
HETATM    6  C   UNL     1      -8.696   8.655  71.149  1.00  0.00    -0.197 C  
HETATM    7  C   UNL     1      -7.982   8.177  72.401  1.00  0.00    -0.185 C  
ENDBRANCH   3   6
BRANCH   5   8
HETATM    8  C   UNL     1     -11.560   8.101  71.039  1.00  0.00    -0.301 C  
HETATM    9  C   UNL     1     -12.845   7.315  71.335  1.00  0.00    -0.425 C  
HETATM   10  C   UNL     1     -11.775   7.381  72.383  1.00  0.00    -0.306 C  
BRANCH   8  11
HETATM   11  C   UNL     1     -11.729   9.620  70.891  1.00  0.00    -0.412 A  
HETATM   12  C   UNL     1     -12.573  10.315  71.777  1.00  0.00    -0.488 A  
HETATM   13  C   UNL     1     -12.958  11.636  71.535  1.00  0.00    -0.463 A  
HETATM   14  C   UNL     1     -11.197  10.344  69.810  1.00  0.00    -0.353 A  
HETATM   15  C   UNL     1     -12.490  12.299  70.406  1.00  0.00    -0.221 A  
HETATM   16  C   UNL     1     -11.590  11.662  69.556  1.00  0.00    -0.397 A  
ENDBRANCH   8  11
BRANCH  10  17
HETATM   17  C   UNL     1     -10.970   6.166  72.745  1.00  0.00    -0.260 C  
HETATM   18  N   UNL     1     -11.846   5.058  73.083  1.00  0.00    -0.465 NA 
HETATM   19  H2  UNL     1     -12.514   4.861  72.338  1.00  0.00     0.000 HD 
HETATM   20  H1  UNL     1     -11.298   4.233  73.329  1.00  0.00     0.000 HD 
ENDBRANCH  10  17
ENDBRANCH   5   8
ENDBRANCH   2   3
TORSDOF 5
ENDMDL
MODEL       67
REMARK 921   NORMALIZED FREE ENERGY PREDICTED BY IDOCK:   -3.92 KCAL/MOL
REMARK 922        TOTAL FREE ENERGY PREDICTED BY IDOCK:   -5.56 KCAL/MOL
REMARK 923 INTER-LIGAND FREE ENERGY PREDICTED BY IDOCK:   -5.53 KCAL/MOL
REMARK 924 INTRA-LIGAND FREE ENERGY PREDICTED BY IDOCK:   -0.03 KCAL/MOL
REMARK 927      BINDING AFFINITY PREDICTED BY RF-SCORE:    0.00 PKD
ROOT
HETATM    1  C   UNL     1     -10.581   6.791  73.673  1.00  0.00    -0.347 C  
HETATM    2  C   UNL     1      -9.822   6.564  72.378  1.00  0.00    -0.159 C  
ENDROOT
BRANCH   2   3
HETATM    3  N   UNL     1      -9.792   7.737  71.503  1.00  0.00    -0.166 N  
HETATM    4  O   UNL     1     -11.452   6.801  70.177  1.00  0.00    -0.333 OA 
HETATM    5  C   UNL     1     -10.667   7.718  70.401  1.00  0.00    -0.236 C  
BRANCH   3   6
HETATM    6  C   UNL     1      -8.663   8.668  71.572  1.00  0.00    -0.202 C  
HETATM    7  C   UNL     1      -7.286   8.089  71.847  1.00  0.00    -0.089 C  
ENDBRANCH   3   6
BRANCH   5   8
HETATM    8  C   UNL     1     -10.662   8.916  69.459  1.00  0.00    -0.206 C  
HETATM    9  C   UNL     1      -9.306   9.290  68.844  1.00  0.00    -0.150 C  
HETATM   10  C   UNL     1     -10.355   8.670  67.970  1.00  0.00    -0.277 C  
BRANCH   8  11
HETATM   11  C   UNL     1     -11.527  10.095  69.930  1.00  0.00    -0.317 A  
HETATM   12  C   UNL     1     -11.343  11.365  69.354  1.00  0.00    -0.365 A  
HETATM   13  C   UNL     1     -11.913  12.511  69.912  1.00  0.00    -0.371 A  
HETATM   14  C   UNL     1     -12.401  10.009  71.027  1.00  0.00    -0.458 A  
HETATM   15  C   UNL     1     -12.699  12.408  71.055  1.00  0.00    -0.315 A  
HETATM   16  C   UNL     1     -12.964  11.154  71.599  1.00  0.00    -0.548 A  
ENDBRANCH   8  11
BRANCH  10  17
HETATM   17  C   UNL     1     -10.193   7.276  67.437  1.00  0.00    -0.236 C  
HETATM   18  N   UNL     1     -11.484   6.716  67.076  1.00  0.00    -0.754 NA 
HETATM   19  H2  UNL     1     -11.989   7.316  66.423  1.00  0.00     0.000 HD 
HETATM   20  H1  UNL     1     -11.374   5.769  66.714  1.00  0.00     0.000 HD 
ENDBRANCH  10  17
ENDBRANCH   5   8
ENDBRANCH   2   3
TORSDOF 5
ENDMDL
MODEL       68
REMARK 921   NORMALIZED FREE ENERGY PREDICTED BY IDOCK:   -3.92 KCAL/MOL
REMARK 922        TOTAL FREE ENERGY PREDICTED BY IDOCK:   -5.56 KCAL/MOL
REMARK 923 INTER-LIGAND FREE ENERGY PREDICTED BY IDOCK:   -5.11 KCAL/MOL
REMARK 924 INTRA-LIGAND FREE ENERGY PREDICTED BY IDOCK:   -0.45 KCAL/MOL
REMARK 927      BINDING AFFINITY PREDICTED BY RF-SCORE:    0.00 PKD
ROOT
HETATM    1  C   UNL     1      -5.139  15.545  67.913  1.00  0.00    -0.127 C  
HETATM    2  C   UNL     1      -5.830  16.831  68.327  1.00  0.00    -0.121 C  
ENDROOT
BRANCH   2   3
HETATM    3  N   UNL     1      -7.198  16.951  67.819  1.00  0.00    -0.142 N  
HETATM    4  O   UNL     1      -7.969  15.626  69.562  1.00  0.00    -0.230 OA 
HETATM    5  C   UNL     1      -8.194  16.267  68.539  1.00  0.00    -0.195 C  
BRANCH   3   6
HETATM    6  C   UNL     1      -7.429  17.431  66.454  1.00  0.00    -0.305 C  
HETATM    7  C   UNL     1      -7.245  18.915  66.189  1.00  0.00    -0.288 C  
ENDBRANCH   3   6
BRANCH   5   8
HETATM    8  C   UNL     1      -9.632  16.357  68.040  1.00  0.00    -0.226 C  
HETATM    9  C   UNL     1     -10.722  16.423  69.119  1.00  0.00    -0.317 C  
HETATM   10  C   UNL     1     -10.418  17.652  68.316  1.00  0.00    -0.376 C  
BRANCH   8  11
HETATM   11  C   UNL     1      -9.941  15.454  66.836  1.00  0.00    -0.247 A  
HETATM   12  C   UNL     1     -10.694  15.963  65.763  1.00  0.00    -0.325 A  
HETATM   13  C   UNL     1     -11.216  15.126  64.774  1.00  0.00    -0.396 A  
HETATM   14  C   UNL     1      -9.638  14.082  66.814  1.00  0.00    -0.293 A  
HETATM   15  C   UNL     1     -10.978  13.757  64.828  1.00  0.00    -0.396 A  
HETATM   16  C   UNL     1     -10.168  13.237  65.834  1.00  0.00    -0.295 A  
ENDBRANCH   8  11
BRANCH  10  17
HETATM   17  C   UNL     1      -9.750  18.841  68.942  1.00  0.00    -0.344 C  
HETATM   18  N   UNL     1     -10.481  20.058  68.631  1.00  0.00    -0.488 NA 
HETATM   19  H2  UNL     1     -11.463  19.989  68.900  1.00  0.00     0.000 HD 
HETATM   20  H1  UNL     1     -10.027  20.866  69.057  1.00  0.00     0.000 HD 
ENDBRANCH  10  17
ENDBRANCH   5   8
ENDBRANCH   2   3
TORSDOF 5
ENDMDL
MODEL       69
REMARK 921   NORMALIZED FREE ENERGY PREDICTED BY IDOCK:   -3.91 KCAL/MOL
REMARK 922        TOTAL FREE ENERGY PREDICTED BY IDOCK:   -5.55 KCAL/MOL
REMARK 923 INTER-LIGAND FREE ENERGY PREDICTED BY IDOCK:   -5.61 KCAL/MOL
REMARK 924 INTRA-LIGAND FREE ENERGY PREDICTED BY IDOCK:    0.06 KCAL/MOL
REMARK 927      BINDING AFFINITY PREDICTED BY RF-SCORE:    0.00 PKD
ROOT
HETATM    1  C   UNL     1      -7.209   6.273  72.973  1.00  0.00    -0.087 C  
HETATM    2  C   UNL     1      -8.589   6.557  73.537  1.00  0.00    -0.123 C  
ENDROOT
BRANCH   2   3
HETATM    3  N   UNL     1      -9.660   6.453  72.544  1.00  0.00    -0.153 N  
HETATM    4  O   UNL     1      -9.801   8.768  72.441  1.00  0.00    -0.284 OA 
HETATM    5  C   UNL     1     -10.204   7.665  72.080  1.00  0.00    -0.207 C  
BRANCH   3   6
HETATM    6  C   UNL     1     -10.353   5.176  72.351  1.00  0.00    -0.204 C  
HETATM    7  C   UNL     1      -9.667   4.123  71.498  1.00  0.00    -0.243 C  
ENDBRANCH   3   6
BRANCH   5   8
HETATM    8  C   UNL     1     -11.327   7.603  71.052  1.00  0.00    -0.289 C  
HETATM    9  C   UNL     1     -12.559   6.775  71.442  1.00  0.00    -0.348 C  
HETATM   10  C   UNL     1     -12.670   8.270  71.400  1.00  0.00    -0.279 C  
BRANCH   8  11
HETATM   11  C   UNL     1     -10.848   7.440  69.601  1.00  0.00    -0.222 A  
HETATM   12  C   UNL     1     -10.248   8.528  68.942  1.00  0.00    -0.221 A  
HETATM   13  C   UNL     1     -10.028   8.517  67.562  1.00  0.00    -0.258 A  
HETATM   14  C   UNL     1     -11.115   6.293  68.834  1.00  0.00    -0.434 A  
HETATM   15  C   UNL     1     -10.389   7.403  66.812  1.00  0.00    -0.321 A  
HETATM   16  C   UNL     1     -10.911   6.281  67.450  1.00  0.00    -0.448 A  
ENDBRANCH   8  11
BRANCH  10  17
HETATM   17  C   UNL     1     -12.830   9.070  72.659  1.00  0.00    -0.245 C  
HETATM   18  N   UNL     1     -14.157   8.878  73.219  1.00  0.00    -1.248 NA 
HETATM   19  H2  UNL     1     -14.366   7.891  73.368  1.00  0.00     0.000 HD 
HETATM   20  H1  UNL     1     -14.266   9.423  74.075  1.00  0.00     0.000 HD 
ENDBRANCH  10  17
ENDBRANCH   5   8
ENDBRANCH   2   3
TORSDOF 5
ENDMDL
MODEL       70
REMARK 921   NORMALIZED FREE ENERGY PREDICTED BY IDOCK:   -3.91 KCAL/MOL
REMARK 922        TOTAL FREE ENERGY PREDICTED BY IDOCK:   -5.54 KCAL/MOL
REMARK 923 INTER-LIGAND FREE ENERGY PREDICTED BY IDOCK:   -5.78 KCAL/MOL
REMARK 924 INTRA-LIGAND FREE ENERGY PREDICTED BY IDOCK:    0.24 KCAL/MOL
REMARK 927      BINDING AFFINITY PREDICTED BY RF-SCORE:    0.00 PKD
ROOT
HETATM    1  C   UNL     1     -12.718  14.044  65.892  1.00  0.00    -0.436 C  
HETATM    2  C   UNL     1     -11.560  13.472  66.689  1.00  0.00    -0.363 C  
ENDROOT
BRANCH   2   3
HETATM    3  N   UNL     1     -10.864  14.466  67.507  1.00  0.00    -0.278 N  
HETATM    4  O   UNL     1      -9.441  14.941  65.736  1.00  0.00    -0.308 OA 
HETATM    5  C   UNL     1      -9.784  15.132  66.899  1.00  0.00    -0.239 C  
BRANCH   3   6
HETATM    6  C   UNL     1     -11.051  14.473  68.961  1.00  0.00    -0.262 C  
HETATM    7  C   UNL     1     -12.145  15.361  69.527  1.00  0.00    -0.332 C  
ENDBRANCH   3   6
BRANCH   5   8
HETATM    8  C   UNL     1      -9.025  16.170  67.718  1.00  0.00    -0.192 C  
HETATM    9  C   UNL     1      -8.638  15.757  69.145  1.00  0.00    -0.256 C  
HETATM   10  C   UNL     1      -7.566  15.868  68.102  1.00  0.00    -0.135 C  
BRANCH   8  11
HETATM   11  C   UNL     1      -9.548  17.606  67.560  1.00  0.00    -0.267 A  
HETATM   12  C   UNL     1      -9.452  18.246  66.310  1.00  0.00    -0.237 A  
HETATM   13  C   UNL     1      -9.672  19.618  66.173  1.00  0.00    -0.489 A  
HETATM   14  C   UNL     1      -9.986  18.382  68.646  1.00  0.00    -0.415 A  
HETATM   15  C   UNL     1     -10.014  20.380  67.284  1.00  0.00    -0.564 A  
HETATM   16  C   UNL     1     -10.195  19.759  68.517  1.00  0.00    -0.547 A  
ENDBRANCH   8  11
BRANCH  10  17
HETATM   17  C   UNL     1      -6.866  14.648  67.577  1.00  0.00    -0.149 C  
HETATM   18  N   UNL     1      -5.443  14.901  67.431  1.00  0.00    -0.316 NA 
HETATM   19  H2  UNL     1      -5.026  15.232  68.300  1.00  0.00     0.000 HD 
HETATM   20  H1  UNL     1      -4.968  14.072  67.073  1.00  0.00     0.000 HD 
ENDBRANCH  10  17
ENDBRANCH   5   8
ENDBRANCH   2   3
TORSDOF 5
ENDMDL
MODEL       71
REMARK 921   NORMALIZED FREE ENERGY PREDICTED BY IDOCK:   -3.91 KCAL/MOL
REMARK 922        TOTAL FREE ENERGY PREDICTED BY IDOCK:   -5.54 KCAL/MOL
REMARK 923 INTER-LIGAND FREE ENERGY PREDICTED BY IDOCK:   -4.95 KCAL/MOL
REMARK 924 INTRA-LIGAND FREE ENERGY PREDICTED BY IDOCK:   -0.59 KCAL/MOL
REMARK 927      BINDING AFFINITY PREDICTED BY RF-SCORE:    0.00 PKD
ROOT
HETATM    1  C   UNL     1     -11.574  14.715  69.471  1.00  0.00    -0.350 C  
HETATM    2  C   UNL     1     -11.926  14.335  68.044  1.00  0.00    -0.318 C  
ENDROOT
BRANCH   2   3
HETATM    3  N   UNL     1     -10.826  13.696  67.320  1.00  0.00    -0.282 N  
HETATM    4  O   UNL     1     -12.029  11.713  67.225  1.00  0.00    -0.627 OA 
HETATM    5  C   UNL     1     -11.005  12.343  66.978  1.00  0.00    -0.260 C  
BRANCH   3   6
HETATM    6  C   UNL     1      -9.502  14.325  67.303  1.00  0.00    -0.220 C  
HETATM    7  C   UNL     1      -9.222  15.350  66.219  1.00  0.00    -0.354 C  
ENDBRANCH   3   6
BRANCH   5   8
HETATM    8  C   UNL     1      -9.880  11.636  66.230  1.00  0.00    -0.245 C  
HETATM    9  C   UNL     1     -10.304  10.526  65.259  1.00  0.00    -0.300 C  
HETATM   10  C   UNL     1      -9.791  11.821  64.705  1.00  0.00    -0.230 C  
BRANCH   8  11
HETATM   11  C   UNL     1      -8.644  11.331  67.090  1.00  0.00    -0.147 A  
HETATM   12  C   UNL     1      -7.381  11.225  66.477  1.00  0.00    -0.101 A  
HETATM   13  C   UNL     1      -6.279  10.705  67.159  1.00  0.00    -0.062 A  
HETATM   14  C   UNL     1      -8.725  10.999  68.453  1.00  0.00    -0.150 A  
HETATM   15  C   UNL     1      -6.412  10.297  68.482  1.00  0.00    -0.052 A  
HETATM   16  C   UNL     1      -7.628  10.465  69.137  1.00  0.00    -0.117 A  
ENDBRANCH   8  11
BRANCH  10  17
HETATM   17  C   UNL     1     -10.704  12.773  63.989  1.00  0.00    -0.426 C  
HETATM   18  N   UNL     1     -11.619  12.047  63.124  1.00  0.00    -0.715 NA 
HETATM   19  H2  UNL     1     -12.140  11.335  63.636  1.00  0.00     0.000 HD 
HETATM   20  H1  UNL     1     -12.240  12.694  62.637  1.00  0.00     0.000 HD 
ENDBRANCH  10  17
ENDBRANCH   5   8
ENDBRANCH   2   3
TORSDOF 5
ENDMDL
MODEL       72
REMARK 921   NORMALIZED FREE ENERGY PREDICTED BY IDOCK:   -3.90 KCAL/MOL
REMARK 922        TOTAL FREE ENERGY PREDICTED BY IDOCK:   -5.54 KCAL/MOL
REMARK 923 INTER-LIGAND FREE ENERGY PREDICTED BY IDOCK:   -4.85 KCAL/MOL
REMARK 924 INTRA-LIGAND FREE ENERGY PREDICTED BY IDOCK:   -0.69 KCAL/MOL
REMARK 927      BINDING AFFINITY PREDICTED BY RF-SCORE:    0.00 PKD
ROOT
HETATM    1  C   UNL     1      -8.290   8.021  66.665  1.00  0.00    -0.120 C  
HETATM    2  C   UNL     1      -9.492   8.814  66.186  1.00  0.00    -0.247 C  
ENDROOT
BRANCH   2   3
HETATM    3  N   UNL     1      -9.257  10.258  66.134  1.00  0.00    -0.154 N  
HETATM    4  O   UNL     1     -10.209  10.497  68.238  1.00  0.00    -0.153 OA 
HETATM    5  C   UNL     1      -9.691  11.003  67.246  1.00  0.00    -0.166 C  
BRANCH   3   6
HETATM    6  C   UNL     1      -8.943  10.900  64.855  1.00  0.00    -0.152 C  
HETATM    7  C   UNL     1      -9.954  10.766  63.731  1.00  0.00    -0.411 C  
ENDBRANCH   3   6
BRANCH   5   8
HETATM    8  C   UNL     1      -9.475  12.512  67.231  1.00  0.00    -0.193 C  
HETATM    9  C   UNL     1      -9.132  13.162  68.578  1.00  0.00    -0.053 C  
HETATM   10  C   UNL     1      -8.063  13.047  67.533  1.00  0.00    -0.179 C  
BRANCH   8  11
HETATM   11  C   UNL     1     -10.471  13.284  66.353  1.00  0.00    -0.286 A  
HETATM   12  C   UNL     1     -11.767  12.772  66.158  1.00  0.00    -0.458 A  
HETATM   13  C   UNL     1     -12.618  13.291  65.179  1.00  0.00    -0.512 A  
HETATM   14  C   UNL     1     -10.107  14.414  65.600  1.00  0.00    -0.377 A  
HETATM   15  C   UNL     1     -12.196  14.350  64.384  1.00  0.00    -0.481 A  
HETATM   16  C   UNL     1     -10.950  14.929  64.610  1.00  0.00    -0.323 A  
ENDBRANCH   8  11
BRANCH  10  17
HETATM   17  C   UNL     1      -6.904  12.110  67.710  1.00  0.00    -0.106 C  
HETATM   18  N   UNL     1      -6.018  12.174  66.560  1.00  0.00    -0.482 NA 
HETATM   19  H2  UNL     1      -5.709  13.128  66.373  1.00  0.00     0.000 HD 
HETATM   20  H1  UNL     1      -5.231  11.537  66.681  1.00  0.00     0.000 HD 
ENDBRANCH  10  17
ENDBRANCH   5   8
ENDBRANCH   2   3
TORSDOF 5
ENDMDL
MODEL       73
REMARK 921   NORMALIZED FREE ENERGY PREDICTED BY IDOCK:   -3.89 KCAL/MOL
REMARK 922        TOTAL FREE ENERGY PREDICTED BY IDOCK:   -5.52 KCAL/MOL
REMARK 923 INTER-LIGAND FREE ENERGY PREDICTED BY IDOCK:   -5.71 KCAL/MOL
REMARK 924 INTRA-LIGAND FREE ENERGY PREDICTED BY IDOCK:    0.19 KCAL/MOL
REMARK 927      BINDING AFFINITY PREDICTED BY RF-SCORE:    0.00 PKD
ROOT
HETATM    1  C   UNL     1     -11.507  11.563  69.671  1.00  0.00    -0.373 C  
HETATM    2  C   UNL     1     -11.838  11.543  68.190  1.00  0.00    -0.236 C  
ENDROOT
BRANCH   2   3
HETATM    3  N   UNL     1     -10.931  12.355  67.376  1.00  0.00    -0.244 N  
HETATM    4  O   UNL     1     -12.390  14.154  67.530  1.00  0.00    -0.296 OA 
HETATM    5  C   UNL     1     -11.347  13.670  67.099  1.00  0.00    -0.319 C  
BRANCH   3   6
HETATM    6  C   UNL     1      -9.866  11.707  66.606  1.00  0.00    -0.200 C  
HETATM    7  C   UNL     1     -10.113  10.292  66.114  1.00  0.00    -0.307 C  
ENDBRANCH   3   6
BRANCH   5   8
HETATM    8  C   UNL     1     -10.436  14.548  66.248  1.00  0.00    -0.303 C  
HETATM    9  C   UNL     1      -9.936  13.933  64.934  1.00  0.00    -0.173 C  
HETATM   10  C   UNL     1     -10.959  15.028  64.881  1.00  0.00    -0.427 C  
BRANCH   8  11
HETATM   11  C   UNL     1      -9.395  15.343  67.049  1.00  0.00    -0.238 A  
HETATM   12  C   UNL     1      -9.719  16.626  67.527  1.00  0.00    -0.247 A  
HETATM   13  C   UNL     1      -8.742  17.486  68.034  1.00  0.00    -0.254 A  
HETATM   14  C   UNL     1      -8.065  14.917  67.205  1.00  0.00    -0.234 A  
HETATM   15  C   UNL     1      -7.416  17.072  68.090  1.00  0.00    -0.195 A  
HETATM   16  C   UNL     1      -7.079  15.779  67.699  1.00  0.00    -0.192 A  
ENDBRANCH   8  11
BRANCH  10  17
HETATM   17  C   UNL     1     -12.370  14.749  64.454  1.00  0.00    -0.368 C  
HETATM   18  N   UNL     1     -12.394  13.755  63.395  1.00  0.00    -1.100 NA 
HETATM   19  H2  UNL     1     -11.905  12.902  63.665  1.00  0.00     0.000 HD 
HETATM   20  H1  UNL     1     -13.354  13.566  63.104  1.00  0.00     0.000 HD 
ENDBRANCH  10  17
ENDBRANCH   5   8
ENDBRANCH   2   3
TORSDOF 5
ENDMDL
MODEL       74
REMARK 921   NORMALIZED FREE ENERGY PREDICTED BY IDOCK:   -3.87 KCAL/MOL
REMARK 922        TOTAL FREE ENERGY PREDICTED BY IDOCK:   -5.49 KCAL/MOL
REMARK 923 INTER-LIGAND FREE ENERGY PREDICTED BY IDOCK:   -5.95 KCAL/MOL
REMARK 924 INTRA-LIGAND FREE ENERGY PREDICTED BY IDOCK:    0.46 KCAL/MOL
REMARK 927      BINDING AFFINITY PREDICTED BY RF-SCORE:    0.00 PKD
ROOT
HETATM    1  C   UNL     1     -11.749   9.947  71.328  1.00  0.00    -0.472 C  
HETATM    2  C   UNL     1     -12.598  10.581  70.242  1.00  0.00    -0.235 C  
ENDROOT
BRANCH   2   3
HETATM    3  N   UNL     1     -11.849  11.482  69.364  1.00  0.00    -0.328 N  
HETATM    4  O   UNL     1     -10.908   9.657  68.281  1.00  0.00    -0.231 OA 
HETATM    5  C   UNL     1     -11.006  10.873  68.416  1.00  0.00    -0.237 C  
BRANCH   3   6
HETATM    6  C   UNL     1     -11.712  12.897  69.718  1.00  0.00    -0.281 C  
HETATM    7  C   UNL     1     -12.575  13.428  70.849  1.00  0.00    -0.406 C  
ENDBRANCH   3   6
BRANCH   5   8
HETATM    8  C   UNL     1     -10.200  11.774  67.487  1.00  0.00    -0.214 C  
HETATM    9  C   UNL     1      -9.520  12.986  68.138  1.00  0.00    -0.218 C  
HETATM   10  C   UNL     1      -8.674  11.837  67.679  1.00  0.00    -0.159 C  
BRANCH   8  11
HETATM   11  C   UNL     1     -10.863  12.034  66.126  1.00  0.00    -0.325 A  
HETATM   12  C   UNL     1     -10.351  11.412  64.973  1.00  0.00    -0.342 A  
HETATM   13  C   UNL     1     -10.747  11.805  63.693  1.00  0.00    -0.503 A  
HETATM   14  C   UNL     1     -11.876  12.991  65.942  1.00  0.00    -0.468 A  
HETATM   15  C   UNL     1     -11.683  12.821  63.538  1.00  0.00    -0.597 A  
HETATM   16  C   UNL     1     -12.266  13.399  64.663  1.00  0.00    -0.456 A  
ENDBRANCH   8  11
BRANCH  10  17
HETATM   17  C   UNL     1      -7.982  10.942  68.665  1.00  0.00    -0.140 C  
HETATM   18  N   UNL     1      -7.163  11.724  69.576  1.00  0.00    -0.342 NA 
HETATM   19  H2  UNL     1      -7.704  12.453  70.040  1.00  0.00     0.000 HD 
HETATM   20  H1  UNL     1      -6.693  11.115  70.246  1.00  0.00     0.000 HD 
ENDBRANCH  10  17
ENDBRANCH   5   8
ENDBRANCH   2   3
TORSDOF 5
ENDMDL
MODEL       75
REMARK 921   NORMALIZED FREE ENERGY PREDICTED BY IDOCK:   -3.87 KCAL/MOL
REMARK 922        TOTAL FREE ENERGY PREDICTED BY IDOCK:   -5.49 KCAL/MOL
REMARK 923 INTER-LIGAND FREE ENERGY PREDICTED BY IDOCK:   -5.77 KCAL/MOL
REMARK 924 INTRA-LIGAND FREE ENERGY PREDICTED BY IDOCK:    0.28 KCAL/MOL
REMARK 927      BINDING AFFINITY PREDICTED BY RF-SCORE:    0.00 PKD
ROOT
HETATM    1  C   UNL     1     -10.619  18.758  65.847  1.00  0.00    -0.405 C  
HETATM    2  C   UNL     1      -9.671  18.104  66.836  1.00  0.00    -0.318 C  
ENDROOT
BRANCH   2   3
HETATM    3  N   UNL     1      -9.777  16.644  66.871  1.00  0.00    -0.245 N  
HETATM    4  O   UNL     1     -11.418  16.794  68.506  1.00  0.00    -0.198 OA 
HETATM    5  C   UNL     1     -10.699  16.105  67.787  1.00  0.00    -0.325 C  
BRANCH   3   6
HETATM    6  C   UNL     1      -8.724  15.823  66.267  1.00  0.00    -0.323 C  
HETATM    7  C   UNL     1      -7.308  16.000  66.784  1.00  0.00    -0.186 C  
ENDBRANCH   3   6
BRANCH   5   8
HETATM    8  C   UNL     1     -10.835  14.589  67.862  1.00  0.00    -0.260 C  
HETATM    9  C   UNL     1      -9.815  13.859  68.747  1.00  0.00    -0.117 C  
HETATM   10  C   UNL     1     -11.237  13.961  69.209  1.00  0.00    -0.296 C  
BRANCH   8  11
HETATM   11  C   UNL     1     -11.154  13.915  66.519  1.00  0.00    -0.310 A  
HETATM   12  C   UNL     1     -12.366  14.207  65.867  1.00  0.00    -0.486 A  
HETATM   13  C   UNL     1     -12.818  13.443  64.788  1.00  0.00    -0.222 A  
HETATM   14  C   UNL     1     -10.360  12.893  65.971  1.00  0.00    -0.294 A  
HETATM   15  C   UNL     1     -12.055  12.378  64.325  1.00  0.00    -0.516 A  
HETATM   16  C   UNL     1     -10.814  12.116  64.900  1.00  0.00    -0.352 A  
ENDBRANCH   8  11
BRANCH  10  17
HETATM   17  C   UNL     1     -11.611  14.822  70.381  1.00  0.00    -0.279 C  
HETATM   18  N   UNL     1     -13.052  14.999  70.442  1.00  0.00    -0.638 NA 
HETATM   19  H2  UNL     1     -13.544  14.105  70.456  1.00  0.00     0.000 HD 
HETATM   20  H1  UNL     1     -13.306  15.584  71.238  1.00  0.00     0.000 HD 
ENDBRANCH  10  17
ENDBRANCH   5   8
ENDBRANCH   2   3
TORSDOF 5
ENDMDL
MODEL       76
REMARK 921   NORMALIZED FREE ENERGY PREDICTED BY IDOCK:   -3.87 KCAL/MOL
REMARK 922        TOTAL FREE ENERGY PREDICTED BY IDOCK:   -5.49 KCAL/MOL
REMARK 923 INTER-LIGAND FREE ENERGY PREDICTED BY IDOCK:   -5.03 KCAL/MOL
REMARK 924 INTRA-LIGAND FREE ENERGY PREDICTED BY IDOCK:   -0.46 KCAL/MOL
REMARK 927      BINDING AFFINITY PREDICTED BY RF-SCORE:    0.00 PKD
ROOT
HETATM    1  C   UNL     1     -10.419   8.874  70.082  1.00  0.00    -0.236 C  
HETATM    2  C   UNL     1      -9.369   8.252  69.179  1.00  0.00    -0.151 C  
ENDROOT
BRANCH   2   3
HETATM    3  N   UNL     1      -9.572   8.542  67.758  1.00  0.00    -0.152 N  
HETATM    4  O   UNL     1      -8.031  10.274  67.884  1.00  0.00    -0.101 OA 
HETATM    5  C   UNL     1      -8.836   9.617  67.228  1.00  0.00    -0.132 C  
BRANCH   3   6
HETATM    6  C   UNL     1     -10.737   7.991  67.061  1.00  0.00    -0.193 C  
HETATM    7  C   UNL     1     -10.988   6.498  67.179  1.00  0.00    -0.480 C  
ENDBRANCH   3   6
BRANCH   5   8
HETATM    8  C   UNL     1      -9.023   9.960  65.755  1.00  0.00    -0.189 C  
HETATM    9  C   UNL     1      -7.753  10.329  64.977  1.00  0.00    -0.129 C  
HETATM   10  C   UNL     1      -8.417   9.013  64.704  1.00  0.00    -0.194 C  
BRANCH   8  11
HETATM   11  C   UNL     1     -10.259  10.824  65.459  1.00  0.00    -0.330 A  
HETATM   12  C   UNL     1     -10.640  11.056  64.125  1.00  0.00    -0.412 A  
HETATM   13  C   UNL     1     -11.588  12.027  63.793  1.00  0.00    -0.565 A  
HETATM   14  C   UNL     1     -10.952  11.531  66.456  1.00  0.00    -0.346 A  
HETATM   15  C   UNL     1     -12.191  12.778  64.796  1.00  0.00    -0.517 A  
HETATM   16  C   UNL     1     -11.892  12.514  66.130  1.00  0.00    -0.459 A  
ENDBRANCH   8  11
BRANCH  10  17
HETATM   17  C   UNL     1      -7.771   7.720  65.112  1.00  0.00    -0.101 C  
HETATM   18  N   UNL     1      -8.434   6.596  64.473  1.00  0.00    -0.347 NA 
HETATM   19  H2  UNL     1      -8.465   6.701  63.459  1.00  0.00     0.000 HD 
HETATM   20  H1  UNL     1      -7.996   5.718  64.751  1.00  0.00     0.000 HD 
ENDBRANCH  10  17
ENDBRANCH   5   8
ENDBRANCH   2   3
TORSDOF 5
ENDMDL
MODEL       77
REMARK 921   NORMALIZED FREE ENERGY PREDICTED BY IDOCK:   -3.86 KCAL/MOL
REMARK 922        TOTAL FREE ENERGY PREDICTED BY IDOCK:   -5.47 KCAL/MOL
REMARK 923 INTER-LIGAND FREE ENERGY PREDICTED BY IDOCK:   -5.51 KCAL/MOL
REMARK 924 INTRA-LIGAND FREE ENERGY PREDICTED BY IDOCK:    0.03 KCAL/MOL
REMARK 927      BINDING AFFINITY PREDICTED BY RF-SCORE:    0.00 PKD
ROOT
HETATM    1  C   UNL     1      -7.313   9.405  68.694  1.00  0.00    -0.075 C  
HETATM    2  C   UNL     1      -7.803   8.182  69.447  1.00  0.00    -0.105 C  
ENDROOT
BRANCH   2   3
HETATM    3  N   UNL     1      -9.250   8.169  69.665  1.00  0.00    -0.155 N  
HETATM    4  O   UNL     1      -8.934   8.853  71.861  1.00  0.00    -0.331 OA 
HETATM    5  C   UNL     1      -9.692   8.517  70.955  1.00  0.00    -0.187 C  
BRANCH   3   6
HETATM    6  C   UNL     1     -10.124   7.476  68.714  1.00  0.00    -0.185 C  
HETATM    7  C   UNL     1     -10.500   8.210  67.439  1.00  0.00    -0.356 C  
ENDBRANCH   3   6
BRANCH   5   8
HETATM    8  C   UNL     1     -11.191   8.508  71.229  1.00  0.00    -0.321 C  
HETATM    9  C   UNL     1     -11.973   7.302  70.689  1.00  0.00    -0.259 C  
HETATM   10  C   UNL     1     -11.754   7.425  72.167  1.00  0.00    -0.328 C  
BRANCH   8  11
HETATM   11  C   UNL     1     -11.873   9.874  71.057  1.00  0.00    -0.463 A  
HETATM   12  C   UNL     1     -11.468  10.726  70.013  1.00  0.00    -0.412 A  
HETATM   13  C   UNL     1     -11.867  12.063  69.963  1.00  0.00    -0.392 A  
HETATM   14  C   UNL     1     -12.788  10.392  71.989  1.00  0.00    -0.447 A  
HETATM   15  C   UNL     1     -12.699  12.575  70.952  1.00  0.00    -0.270 A  
HETATM   16  C   UNL     1     -13.181  11.734  71.952  1.00  0.00    -0.468 A  
ENDBRANCH   8  11
BRANCH  10  17
HETATM   17  C   UNL     1     -10.838   6.484  72.895  1.00  0.00    -0.258 C  
HETATM   18  N   UNL     1     -10.418   7.061  74.161  1.00  0.00    -0.494 NA 
HETATM   19  H2  UNL     1     -11.215   7.335  74.736  1.00  0.00     0.000 HD 
HETATM   20  H1  UNL     1      -9.796   6.422  74.656  1.00  0.00     0.000 HD 
ENDBRANCH  10  17
ENDBRANCH   5   8
ENDBRANCH   2   3
TORSDOF 5
ENDMDL
MODEL       78
REMARK 921   NORMALIZED FREE ENERGY PREDICTED BY IDOCK:   -3.83 KCAL/MOL
REMARK 922        TOTAL FREE ENERGY PREDICTED BY IDOCK:   -5.45 KCAL/MOL
REMARK 923 INTER-LIGAND FREE ENERGY PREDICTED BY IDOCK:   -5.49 KCAL/MOL
REMARK 924 INTRA-LIGAND FREE ENERGY PREDICTED BY IDOCK:    0.05 KCAL/MOL
REMARK 927      BINDING AFFINITY PREDICTED BY RF-SCORE:    0.00 PKD
ROOT
HETATM    1  C   UNL     1     -11.547  14.511  70.919  1.00  0.00    -0.243 C  
HETATM    2  C   UNL     1     -12.375  14.302  69.665  1.00  0.00    -0.266 C  
ENDROOT
BRANCH   2   3
HETATM    3  N   UNL     1     -11.749  13.404  68.693  1.00  0.00    -0.328 N  
HETATM    4  O   UNL     1     -11.157  15.225  67.381  1.00  0.00    -0.320 OA 
HETATM    5  C   UNL     1     -11.178  14.010  67.559  1.00  0.00    -0.309 C  
BRANCH   3   6
HETATM    6  C   UNL     1     -12.044  11.970  68.731  1.00  0.00    -0.110 C  
HETATM    7  C   UNL     1     -11.322  11.129  69.768  1.00  0.00    -0.354 C  
ENDBRANCH   3   6
BRANCH   5   8
HETATM    8  C   UNL     1     -10.523  13.112  66.516  1.00  0.00    -0.283 C  
HETATM    9  C   UNL     1     -11.451  12.131  65.786  1.00  0.00    -0.414 C  
HETATM   10  C   UNL     1     -10.908  13.312  65.039  1.00  0.00    -0.335 C  
BRANCH   8  11
HETATM   11  C   UNL     1      -9.157  12.549  66.935  1.00  0.00    -0.213 A  
HETATM   12  C   UNL     1      -8.152  13.427  67.381  1.00  0.00    -0.178 A  
HETATM   13  C   UNL     1      -6.828  13.007  67.530  1.00  0.00    -0.156 A  
HETATM   14  C   UNL     1      -8.798  11.203  66.752  1.00  0.00    -0.162 A  
HETATM   15  C   UNL     1      -6.483  11.690  67.252  1.00  0.00    -0.120 A  
HETATM   16  C   UNL     1      -7.472  10.780  66.886  1.00  0.00    -0.120 A  
ENDBRANCH   8  11
BRANCH  10  17
HETATM   17  C   UNL     1     -11.803  14.442  64.621  1.00  0.00    -0.451 C  
HETATM   18  N   UNL     1     -12.342  14.200  63.293  1.00  0.00    -1.133 NA 
HETATM   19  H2  UNL     1     -12.817  13.300  63.236  1.00  0.00     0.000 HD 
HETATM   20  H1  UNL     1     -12.950  14.969  63.009  1.00  0.00     0.000 HD 
ENDBRANCH  10  17
ENDBRANCH   5   8
ENDBRANCH   2   3
TORSDOF 5
ENDMDL
MODEL       79
REMARK 921   NORMALIZED FREE ENERGY PREDICTED BY IDOCK:   -3.81 KCAL/MOL
REMARK 922        TOTAL FREE ENERGY PREDICTED BY IDOCK:   -5.42 KCAL/MOL
REMARK 923 INTER-LIGAND FREE ENERGY PREDICTED BY IDOCK:   -5.74 KCAL/MOL
REMARK 924 INTRA-LIGAND FREE ENERGY PREDICTED BY IDOCK:    0.31 KCAL/MOL
REMARK 927      BINDING AFFINITY PREDICTED BY RF-SCORE:    0.00 PKD
ROOT
HETATM    1  C   UNL     1     -10.502  19.856  66.192  1.00  0.00    -0.581 C  
HETATM    2  C   UNL     1      -9.723  19.145  67.283  1.00  0.00    -0.319 C  
ENDROOT
BRANCH   2   3
HETATM    3  N   UNL     1      -9.376  17.763  66.949  1.00  0.00    -0.262 N  
HETATM    4  O   UNL     1     -11.014  16.992  68.402  1.00  0.00    -0.352 OA 
HETATM    5  C   UNL     1     -10.105  16.758  67.610  1.00  0.00    -0.275 C  
BRANCH   3   6
HETATM    6  C   UNL     1      -8.110  17.473  66.269  1.00  0.00    -0.254 C  
HETATM    7  C   UNL     1      -6.943  18.411  66.521  1.00  0.00    -0.247 C  
ENDBRANCH   3   6
BRANCH   5   8
HETATM    8  C   UNL     1      -9.770  15.303  67.300  1.00  0.00    -0.212 C  
HETATM    9  C   UNL     1      -8.305  15.002  66.958  1.00  0.00    -0.254 C  
HETATM   10  C   UNL     1      -8.855  14.543  68.275  1.00  0.00    -0.179 C  
BRANCH   8  11
HETATM   11  C   UNL     1     -10.817  14.586  66.433  1.00  0.00    -0.318 A  
HETATM   12  C   UNL     1     -11.251  13.297  66.794  1.00  0.00    -0.331 A  
HETATM   13  C   UNL     1     -11.997  12.505  65.919  1.00  0.00    -0.472 A  
HETATM   14  C   UNL     1     -11.259  15.089  65.198  1.00  0.00    -0.391 A  
HETATM   15  C   UNL     1     -12.342  12.994  64.664  1.00  0.00    -0.480 A  
HETATM   16  C   UNL     1     -11.994  14.295  64.312  1.00  0.00    -0.449 A  
ENDBRANCH   8  11
BRANCH  10  17
HETATM   17  C   UNL     1      -8.408  15.172  69.563  1.00  0.00    -0.151 C  
HETATM   18  N   UNL     1      -7.143  15.863  69.380  1.00  0.00    -0.211 NA 
HETATM   19  H2  UNL     1      -7.189  16.543  68.622  1.00  0.00     0.000 HD 
HETATM   20  H1  UNL     1      -6.839  16.290  70.255  1.00  0.00     0.000 HD 
ENDBRANCH  10  17
ENDBRANCH   5   8
ENDBRANCH   2   3
TORSDOF 5
ENDMDL
MODEL       80
REMARK 921   NORMALIZED FREE ENERGY PREDICTED BY IDOCK:   -3.81 KCAL/MOL
REMARK 922        TOTAL FREE ENERGY PREDICTED BY IDOCK:   -5.42 KCAL/MOL
REMARK 923 INTER-LIGAND FREE ENERGY PREDICTED BY IDOCK:   -5.95 KCAL/MOL
REMARK 924 INTRA-LIGAND FREE ENERGY PREDICTED BY IDOCK:    0.53 KCAL/MOL
REMARK 927      BINDING AFFINITY PREDICTED BY RF-SCORE:    0.00 PKD
ROOT
HETATM    1  C   UNL     1     -12.245  14.103  64.180  1.00  0.00    -0.423 C  
HETATM    2  C   UNL     1     -12.631  12.858  64.957  1.00  0.00    -0.472 C  
ENDROOT
BRANCH   2   3
HETATM    3  N   UNL     1     -11.580  12.381  65.858  1.00  0.00    -0.379 N  
HETATM    4  O   UNL     1     -12.099  14.066  67.368  1.00  0.00    -0.402 OA 
HETATM    5  C   UNL     1     -11.404  13.105  67.052  1.00  0.00    -0.312 C  
BRANCH   3   6
HETATM    6  C   UNL     1     -10.556  11.458  65.360  1.00  0.00    -0.275 C  
HETATM    7  C   UNL     1     -10.623  11.053  63.899  1.00  0.00    -0.382 C  
ENDBRANCH   3   6
BRANCH   5   8
HETATM    8  C   UNL     1     -10.315  12.648  68.016  1.00  0.00    -0.231 C  
HETATM    9  C   UNL     1      -8.901  12.518  67.431  1.00  0.00    -0.187 C  
HETATM   10  C   UNL     1      -9.198  13.644  68.376  1.00  0.00    -0.169 C  
BRANCH   8  11
HETATM   11  C   UNL     1     -10.746  11.523  68.969  1.00  0.00    -0.233 A  
HETATM   12  C   UNL     1     -12.000  11.593  69.603  1.00  0.00    -0.390 A  
HETATM   13  C   UNL     1     -12.334  10.744  70.660  1.00  0.00    -0.465 A  
HETATM   14  C   UNL     1      -9.882  10.489  69.369  1.00  0.00    -0.205 A  
HETATM   15  C   UNL     1     -11.422   9.789  71.096  1.00  0.00    -0.472 A  
HETATM   16  C   UNL     1     -10.205   9.644  70.436  1.00  0.00    -0.348 A  
ENDBRANCH   8  11
BRANCH  10  17
HETATM   17  C   UNL     1      -9.247  15.065  67.897  1.00  0.00    -0.182 C  
HETATM   18  N   UNL     1      -8.650  15.178  66.577  1.00  0.00    -0.422 NA 
HETATM   19  H2  UNL     1      -9.081  14.538  65.910  1.00  0.00     0.000 HD 
HETATM   20  H1  UNL     1      -8.684  16.144  66.251  1.00  0.00     0.000 HD 
ENDBRANCH  10  17
ENDBRANCH   5   8
ENDBRANCH   2   3
TORSDOF 5
ENDMDL
MODEL       81
REMARK 921   NORMALIZED FREE ENERGY PREDICTED BY IDOCK:   -3.81 KCAL/MOL
REMARK 922        TOTAL FREE ENERGY PREDICTED BY IDOCK:   -5.41 KCAL/MOL
REMARK 923 INTER-LIGAND FREE ENERGY PREDICTED BY IDOCK:   -5.43 KCAL/MOL
REMARK 924 INTRA-LIGAND FREE ENERGY PREDICTED BY IDOCK:    0.02 KCAL/MOL
REMARK 927      BINDING AFFINITY PREDICTED BY RF-SCORE:    0.00 PKD
ROOT
HETATM    1  C   UNL     1      -7.017   9.351  66.599  1.00  0.00    -0.081 C  
HETATM    2  C   UNL     1      -8.125   9.777  65.654  1.00  0.00    -0.120 C  
ENDROOT
BRANCH   2   3
HETATM    3  N   UNL     1      -9.370  10.136  66.335  1.00  0.00    -0.164 N  
HETATM    4  O   UNL     1      -8.384  12.081  67.130  1.00  0.00    -0.167 OA 
HETATM    5  C   UNL     1      -9.357  11.335  67.071  1.00  0.00    -0.172 C  
BRANCH   3   6
HETATM    6  C   UNL     1     -10.410   9.123  66.535  1.00  0.00    -0.199 C  
HETATM    7  C   UNL     1      -9.994   7.796  67.144  1.00  0.00    -0.298 C  
ENDBRANCH   3   6
BRANCH   5   8
HETATM    8  C   UNL     1     -10.630  11.743  67.804  1.00  0.00    -0.232 C  
HETATM    9  C   UNL     1     -10.984  13.236  67.769  1.00  0.00    -0.278 C  
HETATM   10  C   UNL     1     -11.811  12.272  66.971  1.00  0.00    -0.329 C  
BRANCH   8  11
HETATM   11  C   UNL     1     -10.833  11.042  69.157  1.00  0.00    -0.283 A  
HETATM   12  C   UNL     1      -9.792  10.267  69.700  1.00  0.00    -0.230 A  
HETATM   13  C   UNL     1     -10.006   9.412  70.784  1.00  0.00    -0.358 A  
HETATM   14  C   UNL     1     -12.072  11.008  69.819  1.00  0.00    -0.424 A  
HETATM   15  C   UNL     1     -11.267   9.329  71.362  1.00  0.00    -0.433 A  
HETATM   16  C   UNL     1     -12.295  10.144  70.896  1.00  0.00    -0.461 A  
ENDBRANCH   8  11
BRANCH  10  17
HETATM   17  C   UNL     1     -11.762  12.266  65.471  1.00  0.00    -0.377 C  
HETATM   18  N   UNL     1     -12.969  12.857  64.920  1.00  0.00    -0.823 NA 
HETATM   19  H2  UNL     1     -13.136  13.792  65.290  1.00  0.00     0.000 HD 
HETATM   20  H1  UNL     1     -12.935  12.852  63.900  1.00  0.00     0.000 HD 
ENDBRANCH  10  17
ENDBRANCH   5   8
ENDBRANCH   2   3
TORSDOF 5
ENDMDL
MODEL       82
REMARK 921   NORMALIZED FREE ENERGY PREDICTED BY IDOCK:   -3.79 KCAL/MOL
REMARK 922        TOTAL FREE ENERGY PREDICTED BY IDOCK:   -5.39 KCAL/MOL
REMARK 923 INTER-LIGAND FREE ENERGY PREDICTED BY IDOCK:   -4.91 KCAL/MOL
REMARK 924 INTRA-LIGAND FREE ENERGY PREDICTED BY IDOCK:   -0.48 KCAL/MOL
REMARK 927      BINDING AFFINITY PREDICTED BY RF-SCORE:    0.00 PKD
ROOT
HETATM    1  C   UNL     1     -13.164  11.138  71.894  1.00  0.00    -0.488 C  
HETATM    2  C   UNL     1     -13.283   9.806  71.177  1.00  0.00    -0.331 C  
ENDROOT
BRANCH   2   3
HETATM    3  N   UNL     1     -11.997   9.139  70.962  1.00  0.00    -0.291 N  
HETATM    4  O   UNL     1     -12.820   7.211  71.959  1.00  0.00    -0.267 OA 
HETATM    5  C   UNL     1     -11.892   7.816  71.429  1.00  0.00    -0.297 C  
BRANCH   3   6
HETATM    6  C   UNL     1     -10.810   9.934  70.633  1.00  0.00    -0.330 C  
HETATM    7  C   UNL     1     -10.587  10.296  69.175  1.00  0.00    -0.254 C  
ENDBRANCH   3   6
BRANCH   5   8
HETATM    8  C   UNL     1     -10.568   7.087  71.235  1.00  0.00    -0.238 C  
HETATM    9  C   UNL     1     -10.648   5.561  71.089  1.00  0.00    -0.303 C  
HETATM   10  C   UNL     1     -10.312   6.391  69.886  1.00  0.00    -0.242 C  
BRANCH   8  11
HETATM   11  C   UNL     1      -9.422   7.612  72.113  1.00  0.00    -0.201 A  
HETATM   12  C   UNL     1      -8.163   7.861  71.536  1.00  0.00    -0.122 A  
HETATM   13  C   UNL     1      -7.032   8.091  72.322  1.00  0.00    -0.089 A  
HETATM   14  C   UNL     1      -9.519   7.716  73.511  1.00  0.00    -0.347 A  
HETATM   15  C   UNL     1      -7.140   8.096  73.708  1.00  0.00    -0.172 A  
HETATM   16  C   UNL     1      -8.388   7.933  74.304  1.00  0.00    -0.297 A  
ENDBRANCH   8  11
BRANCH  10  17
HETATM   17  C   UNL     1     -11.281   6.533  68.748  1.00  0.00    -0.236 C  
HETATM   18  N   UNL     1     -10.680   7.286  67.660  1.00  0.00    -0.403 NA 
HETATM   19  H2  UNL     1      -9.797   6.874  67.357  1.00  0.00     0.000 HD 
HETATM   20  H1  UNL     1     -11.338   7.383  66.887  1.00  0.00     0.000 HD 
ENDBRANCH  10  17
ENDBRANCH   5   8
ENDBRANCH   2   3
TORSDOF 5
ENDMDL
MODEL       83
REMARK 921   NORMALIZED FREE ENERGY PREDICTED BY IDOCK:   -3.79 KCAL/MOL
REMARK 922        TOTAL FREE ENERGY PREDICTED BY IDOCK:   -5.39 KCAL/MOL
REMARK 923 INTER-LIGAND FREE ENERGY PREDICTED BY IDOCK:   -5.34 KCAL/MOL
REMARK 924 INTRA-LIGAND FREE ENERGY PREDICTED BY IDOCK:   -0.05 KCAL/MOL
REMARK 927      BINDING AFFINITY PREDICTED BY RF-SCORE:    0.00 PKD
ROOT
HETATM    1  C   UNL     1     -10.841   6.689  67.144  1.00  0.00    -0.471 C  
HETATM    2  C   UNL     1     -10.983   6.051  68.514  1.00  0.00    -0.267 C  
ENDROOT
BRANCH   2   3
HETATM    3  N   UNL     1     -10.536   6.913  69.610  1.00  0.00    -0.209 N  
HETATM    4  O   UNL     1     -12.576   6.626  70.678  1.00  0.00    -0.223 OA 
HETATM    5  C   UNL     1     -11.461   7.137  70.646  1.00  0.00    -0.308 C  
BRANCH   3   6
HETATM    6  C   UNL     1      -9.359   7.767  69.431  1.00  0.00    -0.152 C  
HETATM    7  C   UNL     1      -7.997   7.159  69.713  1.00  0.00    -0.123 C  
ENDBRANCH   3   6
BRANCH   5   8
HETATM    8  C   UNL     1     -11.040   8.036  71.803  1.00  0.00    -0.313 C  
HETATM    9  C   UNL     1     -10.925   9.534  71.493  1.00  0.00    -0.369 C  
HETATM   10  C   UNL     1     -12.061   9.052  72.344  1.00  0.00    -0.289 C  
BRANCH   8  11
HETATM   11  C   UNL     1      -9.925   7.451  72.684  1.00  0.00    -0.241 A  
HETATM   12  C   UNL     1      -8.828   8.257  73.040  1.00  0.00    -0.302 A  
HETATM   13  C   UNL     1      -7.677   7.713  73.616  1.00  0.00    -0.164 A  
HETATM   14  C   UNL     1      -9.862   6.091  73.033  1.00  0.00    -0.176 A  
HETATM   15  C   UNL     1      -7.607   6.347  73.865  1.00  0.00    -0.084 A  
HETATM   16  C   UNL     1      -8.708   5.538  73.596  1.00  0.00    -0.122 A  
ENDBRANCH   8  11
BRANCH  10  17
HETATM   17  C   UNL     1     -13.473   9.072  71.835  1.00  0.00    -0.425 C  
HETATM   18  N   UNL     1     -14.408   8.809  72.917  1.00  0.00    -1.104 NA 
HETATM   19  H2  UNL     1     -14.277   9.454  73.696  1.00  0.00     0.000 HD 
HETATM   20  H1  UNL     1     -15.367   8.822  72.571  1.00  0.00     0.000 HD 
ENDBRANCH  10  17
ENDBRANCH   5   8
ENDBRANCH   2   3
TORSDOF 5
ENDMDL
MODEL       84
REMARK 921   NORMALIZED FREE ENERGY PREDICTED BY IDOCK:   -3.79 KCAL/MOL
REMARK 922        TOTAL FREE ENERGY PREDICTED BY IDOCK:   -5.39 KCAL/MOL
REMARK 923 INTER-LIGAND FREE ENERGY PREDICTED BY IDOCK:   -4.97 KCAL/MOL
REMARK 924 INTRA-LIGAND FREE ENERGY PREDICTED BY IDOCK:   -0.41 KCAL/MOL
REMARK 927      BINDING AFFINITY PREDICTED BY RF-SCORE:    0.00 PKD
ROOT
HETATM    1  C   UNL     1     -11.402   9.213  71.830  1.00  0.00    -0.451 C  
HETATM    2  C   UNL     1     -11.357  10.245  70.717  1.00  0.00    -0.337 C  
ENDROOT
BRANCH   2   3
HETATM    3  N   UNL     1     -10.449   9.889  69.625  1.00  0.00    -0.231 N  
HETATM    4  O   UNL     1     -12.016  10.618  68.075  1.00  0.00    -0.457 OA 
HETATM    5  C   UNL     1     -10.922  10.116  68.320  1.00  0.00    -0.248 C  
BRANCH   3   6
HETATM    6  C   UNL     1      -9.303   9.014  69.886  1.00  0.00    -0.173 C  
HETATM    7  C   UNL     1      -7.967   9.671  70.183  1.00  0.00    -0.189 C  
ENDBRANCH   3   6
BRANCH   5   8
HETATM    8  C   UNL     1     -10.013   9.752  67.152  1.00  0.00    -0.252 C  
HETATM    9  C   UNL     1     -10.202  10.566  65.865  1.00  0.00    -0.311 C  
HETATM   10  C   UNL     1      -8.970  10.786  66.691  1.00  0.00    -0.164 C  
BRANCH   8  11
HETATM   11  C   UNL     1      -9.806   8.242  66.959  1.00  0.00    -0.298 A  
HETATM   12  C   UNL     1      -8.663   7.778  66.283  1.00  0.00    -0.174 A  
HETATM   13  C   UNL     1      -8.551   6.452  65.860  1.00  0.00    -0.151 A  
HETATM   14  C   UNL     1     -10.784   7.289  67.293  1.00  0.00    -0.391 A  
HETATM   15  C   UNL     1      -9.577   5.551  66.123  1.00  0.00    -0.158 A  
HETATM   16  C   UNL     1     -10.683   5.963  66.861  1.00  0.00    -0.395 A  
ENDBRANCH   8  11
BRANCH  10  17
HETATM   17  C   UNL     1      -8.765  12.065  67.449  1.00  0.00    -0.170 C  
HETATM   18  N   UNL     1      -8.549  13.171  66.532  1.00  0.00    -0.424 NA 
HETATM   19  H2  UNL     1      -9.304  13.252  65.851  1.00  0.00     0.000 HD 
HETATM   20  H1  UNL     1      -8.409  14.040  67.048  1.00  0.00     0.000 HD 
ENDBRANCH  10  17
ENDBRANCH   5   8
ENDBRANCH   2   3
TORSDOF 5
ENDMDL
MODEL       85
REMARK 921   NORMALIZED FREE ENERGY PREDICTED BY IDOCK:   -3.79 KCAL/MOL
REMARK 922        TOTAL FREE ENERGY PREDICTED BY IDOCK:   -5.39 KCAL/MOL
REMARK 923 INTER-LIGAND FREE ENERGY PREDICTED BY IDOCK:   -4.94 KCAL/MOL
REMARK 924 INTRA-LIGAND FREE ENERGY PREDICTED BY IDOCK:   -0.45 KCAL/MOL
REMARK 927      BINDING AFFINITY PREDICTED BY RF-SCORE:    0.00 PKD
ROOT
HETATM    1  C   UNL     1     -11.552  16.423  64.571  1.00  0.00     0.021 C  
HETATM    2  C   UNL     1     -11.200  14.988  64.226  1.00  0.00    -0.006 C  
ENDROOT
BRANCH   2   3
HETATM    3  N   UNL     1     -11.335  14.065  65.355  1.00  0.00    -0.308 N  
HETATM    4  O   UNL     1      -9.299  14.791  66.202  1.00  0.00    -0.295 OA 
HETATM    5  C   UNL     1     -10.278  14.054  66.283  1.00  0.00    -0.296 C  
BRANCH   3   6
HETATM    6  C   UNL     1     -12.316  12.978  65.294  1.00  0.00    -0.486 C  
HETATM    7  C   UNL     1     -12.378  12.154  64.021  1.00  0.00    -0.550 C  
ENDBRANCH   3   6
BRANCH   5   8
HETATM    8  C   UNL     1     -10.373  13.102  67.470  1.00  0.00    -0.225 C  
HETATM    9  C   UNL     1      -9.788  13.609  68.795  1.00  0.00    -0.069 C  
HETATM   10  C   UNL     1     -11.277  13.499  68.651  1.00  0.00    -0.311 C  
BRANCH   8  11
HETATM   11  C   UNL     1     -10.073  11.634  67.128  1.00  0.00    -0.227 A  
HETATM   12  C   UNL     1      -9.204  11.333  66.064  1.00  0.00    -0.224 A  
HETATM   13  C   UNL     1      -9.096  10.038  65.552  1.00  0.00    -0.227 A  
HETATM   14  C   UNL     1     -10.746  10.558  67.731  1.00  0.00    -0.319 A  
HETATM   15  C   UNL     1      -9.845   9.008  66.108  1.00  0.00    -0.349 A  
HETATM   16  C   UNL     1     -10.653   9.262  67.214  1.00  0.00    -0.303 A  
ENDBRANCH   8  11
BRANCH  10  17
HETATM   17  C   UNL     1     -12.141  14.724  68.583  1.00  0.00    -0.188 C  
HETATM   18  N   UNL     1     -12.628  15.077  69.906  1.00  0.00    -0.576 NA 
HETATM   19  H2  UNL     1     -11.865  15.188  70.574  1.00  0.00     0.000 HD 
HETATM   20  H1  UNL     1     -13.216  15.909  69.860  1.00  0.00     0.000 HD 
ENDBRANCH  10  17
ENDBRANCH   5   8
ENDBRANCH   2   3
TORSDOF 5
ENDMDL
MODEL       86
REMARK 921   NORMALIZED FREE ENERGY PREDICTED BY IDOCK:   -3.78 KCAL/MOL
REMARK 922        TOTAL FREE ENERGY PREDICTED BY IDOCK:   -5.38 KCAL/MOL
REMARK 923 INTER-LIGAND FREE ENERGY PREDICTED BY IDOCK:   -4.87 KCAL/MOL
REMARK 924 INTRA-LIGAND FREE ENERGY PREDICTED BY IDOCK:   -0.50 KCAL/MOL
REMARK 927      BINDING AFFINITY PREDICTED BY RF-SCORE:    0.00 PKD
ROOT
HETATM    1  C   UNL     1      -9.728   9.050  70.960  1.00  0.00    -0.348 C  
HETATM    2  C   UNL     1      -8.927   9.917  70.007  1.00  0.00    -0.169 C  
ENDROOT
BRANCH   2   3
HETATM    3  N   UNL     1      -9.535  10.047  68.681  1.00  0.00    -0.151 N  
HETATM    4  O   UNL     1      -7.520  10.813  67.822  1.00  0.00    -0.092 OA 
HETATM    5  C   UNL     1      -8.704  10.535  67.657  1.00  0.00    -0.121 C  
BRANCH   3   6
HETATM    6  C   UNL     1     -10.994  10.027  68.544  1.00  0.00    -0.209 C  
HETATM    7  C   UNL     1     -11.782  11.126  69.234  1.00  0.00    -0.401 C  
ENDBRANCH   3   6
BRANCH   5   8
HETATM    8  C   UNL     1      -9.299  10.694  66.262  1.00  0.00    -0.199 C  
HETATM    9  C   UNL     1      -8.353  10.418  65.085  1.00  0.00    -0.165 C  
HETATM   10  C   UNL     1      -9.446   9.437  65.386  1.00  0.00    -0.322 C  
BRANCH   8  11
HETATM   11  C   UNL     1     -10.221  11.913  66.103  1.00  0.00    -0.258 A  
HETATM   12  C   UNL     1      -9.906  13.113  66.767  1.00  0.00    -0.251 A  
HETATM   13  C   UNL     1     -10.828  14.158  66.864  1.00  0.00    -0.296 A  
HETATM   14  C   UNL     1     -11.461  11.850  65.444  1.00  0.00    -0.310 A  
HETATM   15  C   UNL     1     -12.083  14.031  66.281  1.00  0.00    -0.482 A  
HETATM   16  C   UNL     1     -12.392  12.888  65.550  1.00  0.00    -0.517 A  
ENDBRANCH   8  11
BRANCH  10  17
HETATM   17  C   UNL     1      -9.134   8.074  65.934  1.00  0.00    -0.106 C  
HETATM   18  N   UNL     1     -10.347   7.425  66.403  1.00  0.00    -0.474 NA 
HETATM   19  H2  UNL     1     -11.062   7.388  65.677  1.00  0.00     0.000 HD 
HETATM   20  H1  UNL     1     -10.135   6.500  66.776  1.00  0.00     0.000 HD 
ENDBRANCH  10  17
ENDBRANCH   5   8
ENDBRANCH   2   3
TORSDOF 5
ENDMDL
MODEL       87
REMARK 921   NORMALIZED FREE ENERGY PREDICTED BY IDOCK:   -3.78 KCAL/MOL
REMARK 922        TOTAL FREE ENERGY PREDICTED BY IDOCK:   -5.38 KCAL/MOL
REMARK 923 INTER-LIGAND FREE ENERGY PREDICTED BY IDOCK:   -5.68 KCAL/MOL
REMARK 924 INTRA-LIGAND FREE ENERGY PREDICTED BY IDOCK:    0.30 KCAL/MOL
REMARK 927      BINDING AFFINITY PREDICTED BY RF-SCORE:    0.00 PKD
ROOT
HETATM    1  C   UNL     1     -13.285  14.523  70.984  1.00  0.00    -0.414 C  
HETATM    2  C   UNL     1     -12.583  13.204  70.716  1.00  0.00    -0.260 C  
ENDROOT
BRANCH   2   3
HETATM    3  N   UNL     1     -11.666  13.250  69.576  1.00  0.00    -0.311 N  
HETATM    4  O   UNL     1     -12.048  10.997  69.168  1.00  0.00    -0.366 OA 
HETATM    5  C   UNL     1     -11.470  12.042  68.882  1.00  0.00    -0.301 C  
BRANCH   3   6
HETATM    6  C   UNL     1     -10.746  14.381  69.425  1.00  0.00    -0.162 C  
HETATM    7  C   UNL     1     -11.197  15.547  68.564  1.00  0.00    -0.334 C  
ENDBRANCH   3   6
BRANCH   5   8
HETATM    8  C   UNL     1     -10.516  12.042  67.693  1.00  0.00    -0.226 C  
HETATM    9  C   UNL     1      -9.180  12.770  67.894  1.00  0.00    -0.205 C  
HETATM   10  C   UNL     1      -9.190  11.272  67.824  1.00  0.00    -0.156 C  
BRANCH   8  11
HETATM   11  C   UNL     1     -11.199  12.267  66.335  1.00  0.00    -0.370 A  
HETATM   12  C   UNL     1     -10.730  11.582  65.200  1.00  0.00    -0.348 A  
HETATM   13  C   UNL     1     -11.139  11.935  63.911  1.00  0.00    -0.483 A  
HETATM   14  C   UNL     1     -12.184  13.249  66.131  1.00  0.00    -0.466 A  
HETATM   15  C   UNL     1     -12.045  12.974  63.732  1.00  0.00    -0.574 A  
HETATM   16  C   UNL     1     -12.587  13.616  64.843  1.00  0.00    -0.380 A  
ENDBRANCH   8  11
BRANCH  10  17
HETATM   17  C   UNL     1      -8.899  10.438  69.037  1.00  0.00    -0.172 C  
HETATM   18  N   UNL     1      -9.469   9.109  68.890  1.00  0.00    -0.150 NA 
HETATM   19  H2  UNL     1      -9.154   8.654  68.033  1.00  0.00     0.000 HD 
HETATM   20  H1  UNL     1      -9.271   8.542  69.715  1.00  0.00     0.000 HD 
ENDBRANCH  10  17
ENDBRANCH   5   8
ENDBRANCH   2   3
TORSDOF 5
ENDMDL
MODEL       88
REMARK 921   NORMALIZED FREE ENERGY PREDICTED BY IDOCK:   -3.77 KCAL/MOL
REMARK 922        TOTAL FREE ENERGY PREDICTED BY IDOCK:   -5.37 KCAL/MOL
REMARK 923 INTER-LIGAND FREE ENERGY PREDICTED BY IDOCK:   -5.32 KCAL/MOL
REMARK 924 INTRA-LIGAND FREE ENERGY PREDICTED BY IDOCK:   -0.04 KCAL/MOL
REMARK 927      BINDING AFFINITY PREDICTED BY RF-SCORE:    0.00 PKD
ROOT
HETATM    1  C   UNL     1     -12.224  14.511  64.578  1.00  0.00    -0.483 C  
HETATM    2  C   UNL     1     -11.107  15.539  64.603  1.00  0.00    -0.359 C  
ENDROOT
BRANCH   2   3
HETATM    3  N   UNL     1     -10.528  15.743  65.932  1.00  0.00    -0.333 N  
HETATM    4  O   UNL     1      -9.817  13.534  65.970  1.00  0.00    -0.288 OA 
HETATM    5  C   UNL     1      -9.913  14.625  66.525  1.00  0.00    -0.281 C  
BRANCH   3   6
HETATM    6  C   UNL     1     -10.909  16.918  66.720  1.00  0.00     0.001 C  
HETATM    7  C   UNL     1     -10.345  18.263  66.298  1.00  0.00    -0.422 C  
ENDBRANCH   3   6
BRANCH   5   8
HETATM    8  C   UNL     1      -9.305  14.790  67.913  1.00  0.00    -0.193 C  
HETATM    9  C   UNL     1      -8.010  14.012  68.183  1.00  0.00    -0.149 C  
HETATM   10  C   UNL     1      -7.945  15.502  68.031  1.00  0.00    -0.138 C  
BRANCH   8  11
HETATM   11  C   UNL     1     -10.331  14.793  69.056  1.00  0.00    -0.243 A  
HETATM   12  C   UNL     1     -11.294  13.770  69.128  1.00  0.00    -0.329 A  
HETATM   13  C   UNL     1     -12.394  13.859  69.984  1.00  0.00    -0.378 A  
HETATM   14  C   UNL     1     -10.460  15.860  69.962  1.00  0.00    -0.295 A  
HETATM   15  C   UNL     1     -12.546  14.972  70.803  1.00  0.00    -0.429 A  
HETATM   16  C   UNL     1     -11.567  15.962  70.811  1.00  0.00    -0.441 A  
ENDBRANCH   8  11
BRANCH  10  17
HETATM   17  C   UNL     1      -7.297  16.131  66.833  1.00  0.00    -0.220 C  
HETATM   18  N   UNL     1      -5.850  16.125  66.975  1.00  0.00    -0.343 NA 
HETATM   19  H2  UNL     1      -5.491  15.187  67.152  1.00  0.00     0.000 HD 
HETATM   20  H1  UNL     1      -5.410  16.552  66.161  1.00  0.00     0.000 HD 
ENDBRANCH  10  17
ENDBRANCH   5   8
ENDBRANCH   2   3
TORSDOF 5
ENDMDL
MODEL       89
REMARK 921   NORMALIZED FREE ENERGY PREDICTED BY IDOCK:   -3.77 KCAL/MOL
REMARK 922        TOTAL FREE ENERGY PREDICTED BY IDOCK:   -5.36 KCAL/MOL
REMARK 923 INTER-LIGAND FREE ENERGY PREDICTED BY IDOCK:   -5.35 KCAL/MOL
REMARK 924 INTRA-LIGAND FREE ENERGY PREDICTED BY IDOCK:   -0.01 KCAL/MOL
REMARK 927      BINDING AFFINITY PREDICTED BY RF-SCORE:    0.00 PKD
ROOT
HETATM    1  C   UNL     1     -11.991  14.518  69.864  1.00  0.00    -0.382 C  
HETATM    2  C   UNL     1     -12.015  14.291  68.364  1.00  0.00    -0.309 C  
ENDROOT
BRANCH   2   3
HETATM    3  N   UNL     1     -10.866  13.532  67.868  1.00  0.00    -0.242 N  
HETATM    4  O   UNL     1     -12.074  11.560  68.064  1.00  0.00    -0.617 OA 
HETATM    5  C   UNL     1     -11.028  12.137  67.781  1.00  0.00    -0.233 C  
BRANCH   3   6
HETATM    6  C   UNL     1      -9.540  14.155  67.835  1.00  0.00    -0.223 C  
HETATM    7  C   UNL     1      -9.199  15.023  66.637  1.00  0.00    -0.302 C  
ENDBRANCH   3   6
BRANCH   5   8
HETATM    8  C   UNL     1      -9.853  11.306  67.278  1.00  0.00    -0.203 C  
HETATM    9  C   UNL     1      -8.527  11.479  68.031  1.00  0.00    -0.148 C  
HETATM   10  C   UNL     1      -9.297  10.203  68.195  1.00  0.00    -0.140 C  
BRANCH   8  11
HETATM   11  C   UNL     1      -9.744  11.228  65.747  1.00  0.00    -0.263 A  
HETATM   12  C   UNL     1     -10.606  12.002  64.950  1.00  0.00    -0.334 A  
HETATM   13  C   UNL     1     -10.725  11.784  63.575  1.00  0.00    -0.501 A  
HETATM   14  C   UNL     1      -8.922  10.299  65.088  1.00  0.00    -0.220 A  
HETATM   15  C   UNL     1      -9.965  10.793  62.963  1.00  0.00    -0.291 A  
HETATM   16  C   UNL     1      -9.045  10.066  63.714  1.00  0.00    -0.302 A  
ENDBRANCH   8  11
BRANCH  10  17
HETATM   17  C   UNL     1      -9.970   9.866  69.494  1.00  0.00    -0.222 C  
HETATM   18  N   UNL     1     -11.022   8.886  69.282  1.00  0.00    -0.420 NA 
HETATM   19  H2  UNL     1     -10.674   8.053  68.809  1.00  0.00     0.000 HD 
HETATM   20  H1  UNL     1     -11.480   8.658  70.165  1.00  0.00     0.000 HD 
ENDBRANCH  10  17
ENDBRANCH   5   8
ENDBRANCH   2   3
TORSDOF 5
ENDMDL
MODEL       90
REMARK 921   NORMALIZED FREE ENERGY PREDICTED BY IDOCK:   -3.77 KCAL/MOL
REMARK 922        TOTAL FREE ENERGY PREDICTED BY IDOCK:   -5.36 KCAL/MOL
REMARK 923 INTER-LIGAND FREE ENERGY PREDICTED BY IDOCK:   -5.69 KCAL/MOL
REMARK 924 INTRA-LIGAND FREE ENERGY PREDICTED BY IDOCK:    0.33 KCAL/MOL
REMARK 927      BINDING AFFINITY PREDICTED BY RF-SCORE:    0.00 PKD
ROOT
HETATM    1  C   UNL     1      -6.597  11.383  67.606  1.00  0.00    -0.074 C  
HETATM    2  C   UNL     1      -7.523  11.884  68.699  1.00  0.00    -0.118 C  
ENDROOT
BRANCH   2   3
HETATM    3  N   UNL     1      -8.943  11.712  68.388  1.00  0.00    -0.181 N  
HETATM    4  O   UNL     1      -9.123  13.976  67.912  1.00  0.00    -0.174 OA 
HETATM    5  C   UNL     1      -9.648  12.871  68.015  1.00  0.00    -0.221 C  
BRANCH   3   6
HETATM    6  C   UNL     1      -9.638  10.492  68.808  1.00  0.00    -0.179 C  
HETATM    7  C   UNL     1      -9.063   9.722  69.983  1.00  0.00    -0.258 C  
ENDBRANCH   3   6
BRANCH   5   8
HETATM    8  C   UNL     1     -11.131  12.739  67.691  1.00  0.00    -0.294 C  
HETATM    9  C   UNL     1     -11.963  11.881  68.654  1.00  0.00    -0.291 C  
HETATM   10  C   UNL     1     -12.147  13.370  68.660  1.00  0.00    -0.281 C  
BRANCH   8  11
HETATM   11  C   UNL     1     -11.437  12.548  66.197  1.00  0.00    -0.426 A  
HETATM   12  C   UNL     1     -10.784  11.529  65.479  1.00  0.00    -0.328 A  
HETATM   13  C   UNL     1     -10.829  11.473  64.084  1.00  0.00    -0.435 A  
HETATM   14  C   UNL     1     -12.231  13.444  65.461  1.00  0.00    -0.499 A  
HETATM   15  C   UNL     1     -11.548  12.429  63.376  1.00  0.00    -0.541 A  
HETATM   16  C   UNL     1     -12.269  13.401  64.063  1.00  0.00    -0.466 A  
ENDBRANCH   8  11
BRANCH  10  17
HETATM   17  C   UNL     1     -11.690  14.202  69.822  1.00  0.00    -0.311 C  
HETATM   18  N   UNL     1     -12.666  15.236  70.123  1.00  0.00    -0.617 NA 
HETATM   19  H2  UNL     1     -13.595  14.846  70.278  1.00  0.00     0.000 HD 
HETATM   20  H1  UNL     1     -12.355  15.802  70.912  1.00  0.00     0.000 HD 
ENDBRANCH  10  17
ENDBRANCH   5   8
ENDBRANCH   2   3
TORSDOF 5
ENDMDL
MODEL       91
REMARK 921   NORMALIZED FREE ENERGY PREDICTED BY IDOCK:   -3.76 KCAL/MOL
REMARK 922        TOTAL FREE ENERGY PREDICTED BY IDOCK:   -5.36 KCAL/MOL
REMARK 923 INTER-LIGAND FREE ENERGY PREDICTED BY IDOCK:   -4.68 KCAL/MOL
REMARK 924 INTRA-LIGAND FREE ENERGY PREDICTED BY IDOCK:   -0.67 KCAL/MOL
REMARK 927      BINDING AFFINITY PREDICTED BY RF-SCORE:    0.00 PKD
ROOT
HETATM    1  C   UNL     1     -10.680  19.210  66.128  1.00  0.00    -0.442 C  
HETATM    2  C   UNL     1     -10.223  18.519  67.399  1.00  0.00    -0.373 C  
ENDROOT
BRANCH   2   3
HETATM    3  N   UNL     1      -9.913  17.100  67.215  1.00  0.00    -0.267 N  
HETATM    4  O   UNL     1     -10.885  16.613  69.266  1.00  0.00    -0.324 OA 
HETATM    5  C   UNL     1     -10.292  16.237  68.259  1.00  0.00    -0.272 C  
BRANCH   3   6
HETATM    6  C   UNL     1      -8.944  16.693  66.194  1.00  0.00    -0.286 C  
HETATM    7  C   UNL     1      -7.536  17.253  66.294  1.00  0.00    -0.360 C  
ENDBRANCH   3   6
BRANCH   5   8
HETATM    8  C   UNL     1      -9.981  14.752  68.113  1.00  0.00    -0.221 C  
HETATM    9  C   UNL     1     -11.008  13.781  68.711  1.00  0.00    -0.289 C  
HETATM   10  C   UNL     1     -10.901  13.899  67.220  1.00  0.00    -0.292 C  
BRANCH   8  11
HETATM   11  C   UNL     1      -8.507  14.389  68.348  1.00  0.00    -0.165 A  
HETATM   12  C   UNL     1      -7.909  13.377  67.575  1.00  0.00    -0.181 A  
HETATM   13  C   UNL     1      -6.666  12.837  67.913  1.00  0.00    -0.116 A  
HETATM   14  C   UNL     1      -7.753  14.914  69.412  1.00  0.00    -0.150 A  
HETATM   15  C   UNL     1      -5.983  13.312  69.026  1.00  0.00    -0.083 A  
HETATM   16  C   UNL     1      -6.514  14.367  69.763  1.00  0.00    -0.150 A  
ENDBRANCH   8  11
BRANCH  10  17
HETATM   17  C   UNL     1     -11.996  14.534  66.413  1.00  0.00    -0.334 C  
HETATM   18  N   UNL     1     -11.672  14.495  64.997  1.00  0.00    -0.377 NA 
HETATM   19  H2  UNL     1     -11.468  13.547  64.681  1.00  0.00     0.000 HD 
HETATM   20  H1  UNL     1     -12.416  14.927  64.449  1.00  0.00     0.000 HD 
ENDBRANCH  10  17
ENDBRANCH   5   8
ENDBRANCH   2   3
TORSDOF 5
ENDMDL
MODEL       92
REMARK 921   NORMALIZED FREE ENERGY PREDICTED BY IDOCK:   -3.76 KCAL/MOL
REMARK 922        TOTAL FREE ENERGY PREDICTED BY IDOCK:   -5.35 KCAL/MOL
REMARK 923 INTER-LIGAND FREE ENERGY PREDICTED BY IDOCK:   -5.64 KCAL/MOL
REMARK 924 INTRA-LIGAND FREE ENERGY PREDICTED BY IDOCK:    0.29 KCAL/MOL
REMARK 927      BINDING AFFINITY PREDICTED BY RF-SCORE:    0.00 PKD
ROOT
HETATM    1  C   UNL     1     -12.600  10.702  70.713  1.00  0.00    -0.479 C  
HETATM    2  C   UNL     1     -12.466   9.590  71.738  1.00  0.00    -0.401 C  
ENDROOT
BRANCH   2   3
HETATM    3  N   UNL     1     -11.448   8.596  71.393  1.00  0.00    -0.271 N  
HETATM    4  O   UNL     1     -13.042   6.912  71.508  1.00  0.00    -0.359 OA 
HETATM    5  C   UNL     1     -11.878   7.257  71.328  1.00  0.00    -0.307 C  
BRANCH   3   6
HETATM    6  C   UNL     1     -10.028   8.943  71.491  1.00  0.00    -0.320 C  
HETATM    7  C   UNL     1      -9.345   9.475  70.244  1.00  0.00    -0.305 C  
ENDBRANCH   3   6
BRANCH   5   8
HETATM    8  C   UNL     1     -10.849   6.188  70.981  1.00  0.00    -0.338 C  
HETATM    9  C   UNL     1      -9.504   6.276  71.715  1.00  0.00    -0.158 C  
HETATM   10  C   UNL     1     -10.457   5.174  72.071  1.00  0.00    -0.278 C  
BRANCH   8  11
HETATM   11  C   UNL     1     -10.768   5.850  69.484  1.00  0.00    -0.414 A  
HETATM   12  C   UNL     1      -9.967   4.775  69.057  1.00  0.00    -0.213 A  
HETATM   13  C   UNL     1      -9.658   4.583  67.708  1.00  0.00    -0.208 A  
HETATM   14  C   UNL     1     -11.338   6.660  68.488  1.00  0.00    -0.128 A  
HETATM   15  C   UNL     1     -10.161   5.457  66.752  1.00  0.00    -0.282 A  
HETATM   16  C   UNL     1     -11.021   6.482  67.137  1.00  0.00    -0.480 A  
ENDBRANCH   8  11
BRANCH  10  17
HETATM   17  C   UNL     1     -11.161   5.156  73.396  1.00  0.00    -0.320 C  
HETATM   18  N   UNL     1     -10.646   6.205  74.260  1.00  0.00    -0.374 NA 
HETATM   19  H2  UNL     1     -10.698   7.122  73.815  1.00  0.00     0.000 HD 
HETATM   20  H1  UNL     1     -11.124   6.193  75.161  1.00  0.00     0.000 HD 
ENDBRANCH  10  17
ENDBRANCH   5   8
ENDBRANCH   2   3
TORSDOF 5
ENDMDL
MODEL       93
REMARK 921   NORMALIZED FREE ENERGY PREDICTED BY IDOCK:   -3.76 KCAL/MOL
REMARK 922        TOTAL FREE ENERGY PREDICTED BY IDOCK:   -5.35 KCAL/MOL
REMARK 923 INTER-LIGAND FREE ENERGY PREDICTED BY IDOCK:   -4.72 KCAL/MOL
REMARK 924 INTRA-LIGAND FREE ENERGY PREDICTED BY IDOCK:   -0.62 KCAL/MOL
REMARK 927      BINDING AFFINITY PREDICTED BY RF-SCORE:    0.00 PKD
ROOT
HETATM    1  C   UNL     1      -5.472  10.600  64.987  1.00  0.00    -0.135 C  
HETATM    2  C   UNL     1      -5.916  10.033  66.323  1.00  0.00    -0.067 C  
ENDROOT
BRANCH   2   3
HETATM    3  N   UNL     1      -7.297  10.370  66.672  1.00  0.00    -0.109 N  
HETATM    4  O   UNL     1      -8.025   8.358  65.771  1.00  0.00    -0.099 OA 
HETATM    5  C   UNL     1      -8.280   9.429  66.314  1.00  0.00    -0.111 C  
BRANCH   3   6
HETATM    6  C   UNL     1      -7.645  11.750  67.020  1.00  0.00    -0.147 C  
HETATM    7  C   UNL     1      -7.487  12.174  68.469  1.00  0.00    -0.117 C  
ENDBRANCH   3   6
BRANCH   5   8
HETATM    8  C   UNL     1      -9.734   9.744  66.651  1.00  0.00    -0.257 C  
HETATM    9  C   UNL     1     -10.634   8.540  66.960  1.00  0.00    -0.305 C  
HETATM   10  C   UNL     1     -10.229   9.452  68.079  1.00  0.00    -0.248 C  
BRANCH   8  11
HETATM   11  C   UNL     1     -10.363  10.838  65.776  1.00  0.00    -0.295 A  
HETATM   12  C   UNL     1     -11.255  11.760  66.352  1.00  0.00    -0.382 A  
HETATM   13  C   UNL     1     -12.043  12.605  65.567  1.00  0.00    -0.515 A  
HETATM   14  C   UNL     1     -10.212  10.878  64.379  1.00  0.00    -0.423 A  
HETATM   15  C   UNL     1     -11.940  12.558  64.181  1.00  0.00    -0.508 A  
HETATM   16  C   UNL     1     -11.008  11.712  63.587  1.00  0.00    -0.507 A  
ENDBRANCH   8  11
BRANCH  10  17
HETATM   17  C   UNL     1      -9.278   8.993  69.147  1.00  0.00    -0.144 C  
HETATM   18  N   UNL     1      -9.426   9.805  70.343  1.00  0.00    -0.356 NA 
HETATM   19  H2  UNL     1     -10.391   9.819  70.674  1.00  0.00     0.000 HD 
HETATM   20  H1  UNL     1      -8.780   9.494  71.068  1.00  0.00     0.000 HD 
ENDBRANCH  10  17
ENDBRANCH   5   8
ENDBRANCH   2   3
TORSDOF 5
ENDMDL
MODEL       94
REMARK 921   NORMALIZED FREE ENERGY PREDICTED BY IDOCK:   -3.76 KCAL/MOL
REMARK 922        TOTAL FREE ENERGY PREDICTED BY IDOCK:   -5.35 KCAL/MOL
REMARK 923 INTER-LIGAND FREE ENERGY PREDICTED BY IDOCK:   -4.80 KCAL/MOL
REMARK 924 INTRA-LIGAND FREE ENERGY PREDICTED BY IDOCK:   -0.55 KCAL/MOL
REMARK 927      BINDING AFFINITY PREDICTED BY RF-SCORE:    0.00 PKD
ROOT
HETATM    1  C   UNL     1     -12.038  13.067  70.298  1.00  0.00    -0.388 C  
HETATM    2  C   UNL     1     -11.933  11.575  70.040  1.00  0.00    -0.357 C  
ENDROOT
BRANCH   2   3
HETATM    3  N   UNL     1     -10.824  11.210  69.157  1.00  0.00    -0.227 N  
HETATM    4  O   UNL     1     -12.130  11.701  67.301  1.00  0.00    -0.595 OA 
HETATM    5  C   UNL     1     -11.069  11.304  67.774  1.00  0.00    -0.271 C  
BRANCH   3   6
HETATM    6  C   UNL     1      -9.691  10.447  69.687  1.00  0.00    -0.124 C  
HETATM    7  C   UNL     1      -9.998   9.216  70.520  1.00  0.00    -0.288 C  
ENDBRANCH   3   6
BRANCH   5   8
HETATM    8  C   UNL     1      -9.944  10.925  66.818  1.00  0.00    -0.245 C  
HETATM    9  C   UNL     1      -9.895  11.694  65.490  1.00  0.00    -0.264 C  
HETATM   10  C   UNL     1      -8.850  11.970  66.530  1.00  0.00    -0.172 C  
BRANCH   8  11
HETATM   11  C   UNL     1      -9.676   9.416  66.723  1.00  0.00    -0.257 A  
HETATM   12  C   UNL     1     -10.747   8.512  66.844  1.00  0.00    -0.156 A  
HETATM   13  C   UNL     1     -10.533   7.142  67.019  1.00  0.00    -0.392 A  
HETATM   14  C   UNL     1      -8.381   8.872  66.672  1.00  0.00    -0.111 A  
HETATM   15  C   UNL     1      -9.236   6.644  67.059  1.00  0.00    -0.147 A  
HETATM   16  C   UNL     1      -8.159   7.504  66.861  1.00  0.00    -0.116 A  
ENDBRANCH   8  11
BRANCH  10  17
HETATM   17  C   UNL     1      -8.819  13.277  67.268  1.00  0.00    -0.216 C  
HETATM   18  N   UNL     1      -9.012  14.385  66.349  1.00  0.00    -0.476 NA 
HETATM   19  H2  UNL     1      -9.867  14.279  65.802  1.00  0.00     0.000 HD 
HETATM   20  H1  UNL     1      -8.990  15.273  66.851  1.00  0.00     0.000 HD 
ENDBRANCH  10  17
ENDBRANCH   5   8
ENDBRANCH   2   3
TORSDOF 5
ENDMDL
MODEL       95
REMARK 921   NORMALIZED FREE ENERGY PREDICTED BY IDOCK:   -3.74 KCAL/MOL
REMARK 922        TOTAL FREE ENERGY PREDICTED BY IDOCK:   -5.33 KCAL/MOL
REMARK 923 INTER-LIGAND FREE ENERGY PREDICTED BY IDOCK:   -5.39 KCAL/MOL
REMARK 924 INTRA-LIGAND FREE ENERGY PREDICTED BY IDOCK:    0.06 KCAL/MOL
REMARK 927      BINDING AFFINITY PREDICTED BY RF-SCORE:    0.00 PKD
ROOT
HETATM    1  C   UNL     1      -6.800  14.670  69.426  1.00  0.00    -0.159 C  
HETATM    2  C   UNL     1      -7.246  14.570  67.979  1.00  0.00    -0.142 C  
ENDROOT
BRANCH   2   3
HETATM    3  N   UNL     1      -8.428  13.728  67.787  1.00  0.00    -0.167 N  
HETATM    4  O   UNL     1      -9.754  15.622  67.582  1.00  0.00    -0.223 OA 
HETATM    5  C   UNL     1      -9.652  14.399  67.613  1.00  0.00    -0.214 C  
BRANCH   3   6
HETATM    6  C   UNL     1      -8.374  12.306  68.135  1.00  0.00    -0.174 C  
HETATM    7  C   UNL     1      -7.720  11.361  67.142  1.00  0.00    -0.152 C  
ENDBRANCH   3   6
BRANCH   5   8
HETATM    8  C   UNL     1     -10.911  13.561  67.418  1.00  0.00    -0.279 C  
HETATM    9  C   UNL     1     -11.161  12.462  68.459  1.00  0.00    -0.321 C  
HETATM   10  C   UNL     1     -12.034  13.681  68.464  1.00  0.00    -0.396 C  
BRANCH   8  11
HETATM   11  C   UNL     1     -11.192  13.172  65.959  1.00  0.00    -0.316 A  
HETATM   12  C   UNL     1     -11.797  14.104  65.096  1.00  0.00    -0.372 A  
HETATM   13  C   UNL     1     -12.302  13.726  63.849  1.00  0.00    -0.346 A  
HETATM   14  C   UNL     1     -11.014  11.866  65.470  1.00  0.00    -0.347 A  
HETATM   15  C   UNL     1     -12.195  12.405  63.430  1.00  0.00    -0.623 A  
HETATM   16  C   UNL     1     -11.529  11.479  64.229  1.00  0.00    -0.271 A  
ENDBRANCH   8  11
BRANCH  10  17
HETATM   17  C   UNL     1     -11.950  14.689  69.573  1.00  0.00    -0.319 C  
HETATM   18  N   UNL     1     -13.192  14.719  70.328  1.00  0.00    -0.568 NA 
HETATM   19  H2  UNL     1     -13.447  13.794  70.674  1.00  0.00     0.000 HD 
HETATM   20  H1  UNL     1     -13.135  15.404  71.081  1.00  0.00     0.000 HD 
ENDBRANCH  10  17
ENDBRANCH   5   8
ENDBRANCH   2   3
TORSDOF 5
ENDMDL
MODEL       96
REMARK 921   NORMALIZED FREE ENERGY PREDICTED BY IDOCK:   -3.73 KCAL/MOL
REMARK 922        TOTAL FREE ENERGY PREDICTED BY IDOCK:   -5.31 KCAL/MOL
REMARK 923 INTER-LIGAND FREE ENERGY PREDICTED BY IDOCK:   -5.09 KCAL/MOL
REMARK 924 INTRA-LIGAND FREE ENERGY PREDICTED BY IDOCK:   -0.22 KCAL/MOL
REMARK 927      BINDING AFFINITY PREDICTED BY RF-SCORE:    0.00 PKD
ROOT
HETATM    1  C   UNL     1      -9.058   9.468  67.537  1.00  0.00    -0.142 C  
HETATM    2  C   UNL     1      -8.331   8.472  68.423  1.00  0.00    -0.124 C  
ENDROOT
BRANCH   2   3
HETATM    3  N   UNL     1      -9.212   7.770  69.358  1.00  0.00    -0.149 N  
HETATM    4  O   UNL     1      -8.670   9.293  71.024  1.00  0.00    -0.221 OA 
HETATM    5  C   UNL     1      -9.276   8.287  70.665  1.00  0.00    -0.152 C  
BRANCH   3   6
HETATM    6  C   UNL     1      -9.678   6.417  69.044  1.00  0.00    -0.134 C  
HETATM    7  C   UNL     1     -10.938   6.282  68.208  1.00  0.00    -0.408 C  
ENDBRANCH   3   6
BRANCH   5   8
HETATM    8  C   UNL     1     -10.174   7.582  71.675  1.00  0.00    -0.209 C  
HETATM    9  C   UNL     1      -9.879   6.096  71.923  1.00  0.00    -0.176 C  
HETATM   10  C   UNL     1      -9.544   7.093  72.992  1.00  0.00    -0.199 C  
BRANCH   8  11
HETATM   11  C   UNL     1     -11.660   7.956  71.570  1.00  0.00    -0.306 A  
HETATM   12  C   UNL     1     -12.058   9.287  71.796  1.00  0.00    -0.457 A  
HETATM   13  C   UNL     1     -13.402   9.630  71.964  1.00  0.00    -0.547 A  
HETATM   14  C   UNL     1     -12.678   7.001  71.407  1.00  0.00    -0.421 A  
HETATM   15  C   UNL     1     -14.382   8.647  71.890  1.00  0.00    -0.492 A  
HETATM   16  C   UNL     1     -14.024   7.336  71.588  1.00  0.00    -0.488 A  
ENDBRANCH   8  11
BRANCH  10  17
HETATM   17  C   UNL     1      -8.118   7.416  73.331  1.00  0.00    -0.112 C  
HETATM   18  N   UNL     1      -8.028   8.719  73.966  1.00  0.00    -0.349 NA 
HETATM   19  H2  UNL     1      -8.636   8.786  74.782  1.00  0.00     0.000 HD 
HETATM   20  H1  UNL     1      -7.059   8.939  74.196  1.00  0.00     0.000 HD 
ENDBRANCH  10  17
ENDBRANCH   5   8
ENDBRANCH   2   3
TORSDOF 5
ENDMDL
MODEL       97
REMARK 921   NORMALIZED FREE ENERGY PREDICTED BY IDOCK:   -3.72 KCAL/MOL
REMARK 922        TOTAL FREE ENERGY PREDICTED BY IDOCK:   -5.30 KCAL/MOL
REMARK 923 INTER-LIGAND FREE ENERGY PREDICTED BY IDOCK:   -4.60 KCAL/MOL
REMARK 924 INTRA-LIGAND FREE ENERGY PREDICTED BY IDOCK:   -0.70 KCAL/MOL
REMARK 927      BINDING AFFINITY PREDICTED BY RF-SCORE:    0.00 PKD
ROOT
HETATM    1  C   UNL     1     -14.197   7.546  71.519  1.00  0.00    -0.580 C  
HETATM    2  C   UNL     1     -12.908   6.745  71.558  1.00  0.00    -0.257 C  
ENDROOT
BRANCH   2   3
HETATM    3  N   UNL     1     -11.705   7.565  71.409  1.00  0.00    -0.274 N  
HETATM    4  O   UNL     1     -11.441   6.799  69.234  1.00  0.00    -0.203 OA 
HETATM    5  C   UNL     1     -11.040   7.483  70.172  1.00  0.00    -0.231 C  
BRANCH   3   6
HETATM    6  C   UNL     1     -11.051   8.122  72.597  1.00  0.00    -0.380 C  
HETATM    7  C   UNL     1     -10.445   7.147  73.590  1.00  0.00    -0.412 C  
ENDBRANCH   3   6
BRANCH   5   8
HETATM    8  C   UNL     1      -9.777   8.313  69.976  1.00  0.00    -0.176 C  
HETATM    9  C   UNL     1      -9.568   8.912  68.579  1.00  0.00    -0.165 C  
HETATM   10  C   UNL     1      -9.932   9.822  69.713  1.00  0.00    -0.265 C  
BRANCH   8  11
HETATM   11  C   UNL     1      -8.524   7.725  70.643  1.00  0.00    -0.126 A  
HETATM   12  C   UNL     1      -8.316   6.334  70.622  1.00  0.00    -0.133 A  
HETATM   13  C   UNL     1      -7.342   5.728  71.420  1.00  0.00    -0.083 A  
HETATM   14  C   UNL     1      -7.638   8.495  71.415  1.00  0.00    -0.124 A  
HETATM   15  C   UNL     1      -6.540   6.508  72.246  1.00  0.00    -0.059 A  
HETATM   16  C   UNL     1      -6.671   7.894  72.227  1.00  0.00    -0.065 A  
ENDBRANCH   8  11
BRANCH  10  17
HETATM   17  C   UNL     1     -11.279  10.482  69.776  1.00  0.00    -0.298 C  
HETATM   18  N   UNL     1     -11.836  10.628  68.441  1.00  0.00    -0.769 NA 
HETATM   19  H2  UNL     1     -11.873   9.737  67.946  1.00  0.00     0.000 HD 
HETATM   20  H1  UNL     1     -12.751  11.077  68.484  1.00  0.00     0.000 HD 
ENDBRANCH  10  17
ENDBRANCH   5   8
ENDBRANCH   2   3
TORSDOF 5
ENDMDL
MODEL       98
REMARK 921   NORMALIZED FREE ENERGY PREDICTED BY IDOCK:   -3.71 KCAL/MOL
REMARK 922        TOTAL FREE ENERGY PREDICTED BY IDOCK:   -5.28 KCAL/MOL
REMARK 923 INTER-LIGAND FREE ENERGY PREDICTED BY IDOCK:   -4.90 KCAL/MOL
REMARK 924 INTRA-LIGAND FREE ENERGY PREDICTED BY IDOCK:   -0.38 KCAL/MOL
REMARK 927      BINDING AFFINITY PREDICTED BY RF-SCORE:    0.00 PKD
ROOT
HETATM    1  C   UNL     1      -7.619   6.884  65.507  1.00  0.00    -0.091 C  
HETATM    2  C   UNL     1      -8.134   7.012  66.929  1.00  0.00    -0.116 C  
ENDROOT
BRANCH   2   3
HETATM    3  N   UNL     1      -9.209   7.995  67.077  1.00  0.00    -0.141 N  
HETATM    4  O   UNL     1      -7.678   9.567  67.834  1.00  0.00    -0.087 OA 
HETATM    5  C   UNL     1      -8.837   9.260  67.568  1.00  0.00    -0.118 C  
BRANCH   3   6
HETATM    6  C   UNL     1     -10.606   7.554  67.071  1.00  0.00    -0.339 C  
HETATM    7  C   UNL     1     -10.886   6.095  67.385  1.00  0.00    -0.431 C  
ENDBRANCH   3   6
BRANCH   5   8
HETATM    8  C   UNL     1      -9.926  10.312  67.746  1.00  0.00    -0.203 C  
HETATM    9  C   UNL     1      -9.530  11.759  67.424  1.00  0.00    -0.174 C  
HETATM   10  C   UNL     1     -10.453  11.032  66.492  1.00  0.00    -0.309 C  
BRANCH   8  11
HETATM   11  C   UNL     1     -10.789  10.121  69.002  1.00  0.00    -0.257 A  
HETATM   12  C   UNL     1     -11.976  10.863  69.148  1.00  0.00    -0.359 A  
HETATM   13  C   UNL     1     -12.658  10.920  70.366  1.00  0.00    -0.376 A  
HETATM   14  C   UNL     1     -10.377   9.348  70.101  1.00  0.00    -0.273 A  
HETATM   15  C   UNL     1     -12.175  10.218  71.464  1.00  0.00    -0.449 A  
HETATM   16  C   UNL     1     -11.048   9.412  71.327  1.00  0.00    -0.446 A  
ENDBRANCH   8  11
BRANCH  10  17
HETATM   17  C   UNL     1     -10.002  10.622  65.120  1.00  0.00    -0.303 C  
HETATM   18  N   UNL     1      -9.341  11.729  64.450  1.00  0.00    -0.431 NA 
HETATM   19  H2  UNL     1      -8.572  12.104  65.005  1.00  0.00     0.000 HD 
HETATM   20  H1  UNL     1      -9.036  11.450  63.517  1.00  0.00     0.000 HD 
ENDBRANCH  10  17
ENDBRANCH   5   8
ENDBRANCH   2   3
TORSDOF 5
ENDMDL
MODEL       99
REMARK 921   NORMALIZED FREE ENERGY PREDICTED BY IDOCK:   -3.70 KCAL/MOL
REMARK 922        TOTAL FREE ENERGY PREDICTED BY IDOCK:   -5.28 KCAL/MOL
REMARK 923 INTER-LIGAND FREE ENERGY PREDICTED BY IDOCK:   -4.82 KCAL/MOL
REMARK 924 INTRA-LIGAND FREE ENERGY PREDICTED BY IDOCK:   -0.46 KCAL/MOL
REMARK 927      BINDING AFFINITY PREDICTED BY RF-SCORE:    0.00 PKD
ROOT
HETATM    1  C   UNL     1     -10.924  13.492  64.998  1.00  0.00    -0.342 C  
HETATM    2  C   UNL     1     -11.629  12.213  65.414  1.00  0.00    -0.330 C  
ENDROOT
BRANCH   2   3
HETATM    3  N   UNL     1     -10.964  11.508  66.511  1.00  0.00    -0.293 N  
HETATM    4  O   UNL     1      -9.659  10.345  64.983  1.00  0.00    -0.231 OA 
HETATM    5  C   UNL     1      -9.986  10.564  66.146  1.00  0.00    -0.229 C  
BRANCH   3   6
HETATM    6  C   UNL     1     -11.555  11.524  67.852  1.00  0.00    -0.282 C  
HETATM    7  C   UNL     1     -11.291  12.738  68.725  1.00  0.00    -0.332 C  
ENDBRANCH   3   6
BRANCH   5   8
HETATM    8  C   UNL     1      -9.274   9.800  67.257  1.00  0.00    -0.153 C  
HETATM    9  C   UNL     1      -7.779   9.529  67.042  1.00  0.00    -0.091 C  
HETATM   10  C   UNL     1      -8.195  10.537  68.071  1.00  0.00    -0.112 C  
BRANCH   8  11
HETATM   11  C   UNL     1     -10.086   8.635  67.843  1.00  0.00    -0.254 A  
HETATM   12  C   UNL     1     -10.227   8.520  69.238  1.00  0.00    -0.211 A  
HETATM   13  C   UNL     1     -10.729   7.358  69.828  1.00  0.00    -0.252 A  
HETATM   14  C   UNL     1     -10.574   7.576  67.059  1.00  0.00    -0.409 A  
HETATM   15  C   UNL     1     -11.119   6.288  69.031  1.00  0.00    -0.446 A  
HETATM   16  C   UNL     1     -11.065   6.404  67.645  1.00  0.00    -0.388 A  
ENDBRANCH   8  11
BRANCH  10  17
HETATM   17  C   UNL     1      -7.941  12.002  67.866  1.00  0.00    -0.147 C  
HETATM   18  N   UNL     1      -7.685  12.657  69.137  1.00  0.00    -0.318 NA 
HETATM   19  H2  UNL     1      -6.925  12.208  69.649  1.00  0.00     0.000 HD 
HETATM   20  H1  UNL     1      -7.512  13.653  68.998  1.00  0.00     0.000 HD 
ENDBRANCH  10  17
ENDBRANCH   5   8
ENDBRANCH   2   3
TORSDOF 5
ENDMDL
MODEL      100
REMARK 921   NORMALIZED FREE ENERGY PREDICTED BY IDOCK:   -3.68 KCAL/MOL
REMARK 922        TOTAL FREE ENERGY PREDICTED BY IDOCK:   -5.25 KCAL/MOL
REMARK 923 INTER-LIGAND FREE ENERGY PREDICTED BY IDOCK:   -5.07 KCAL/MOL
REMARK 924 INTRA-LIGAND FREE ENERGY PREDICTED BY IDOCK:   -0.18 KCAL/MOL
REMARK 927      BINDING AFFINITY PREDICTED BY RF-SCORE:    0.00 PKD
ROOT
HETATM    1  C   UNL     1     -11.029   4.619  72.602  1.00  0.00    -0.187 C  
HETATM    2  C   UNL     1     -10.092   4.801  71.421  1.00  0.00    -0.189 C  
ENDROOT
BRANCH   2   3
HETATM    3  N   UNL     1     -10.228   6.100  70.760  1.00  0.00    -0.192 N  
HETATM    4  O   UNL     1      -8.816   7.058  72.334  1.00  0.00    -0.128 OA 
HETATM    5  C   UNL     1      -9.535   7.175  71.345  1.00  0.00    -0.161 C  
BRANCH   3   6
HETATM    6  C   UNL     1     -11.310   6.317  69.796  1.00  0.00    -0.436 C  
HETATM    7  C   UNL     1     -11.031   5.995  68.339  1.00  0.00    -0.340 C  
ENDBRANCH   3   6
BRANCH   5   8
HETATM    8  C   UNL     1      -9.656   8.548  70.694  1.00  0.00    -0.203 C  
HETATM    9  C   UNL     1      -8.412   9.445  70.766  1.00  0.00    -0.188 C  
HETATM   10  C   UNL     1      -8.799   8.842  69.449  1.00  0.00    -0.143 C  
BRANCH   8  11
HETATM   11  C   UNL     1     -10.999   9.251  70.946  1.00  0.00    -0.368 A  
HETATM   12  C   UNL     1     -11.254  10.497  70.344  1.00  0.00    -0.378 A  
HETATM   13  C   UNL     1     -12.335  11.290  70.734  1.00  0.00    -0.495 A  
HETATM   14  C   UNL     1     -11.941   8.784  71.878  1.00  0.00    -0.435 A  
HETATM   15  C   UNL     1     -13.200  10.843  71.727  1.00  0.00    -0.513 A  
HETATM   16  C   UNL     1     -13.018   9.579  72.283  1.00  0.00    -0.466 A  
ENDBRANCH   8  11
BRANCH  10  17
HETATM   17  C   UNL     1      -7.966   7.766  68.815  1.00  0.00    -0.125 C  
HETATM   18  N   UNL     1      -8.040   7.852  67.366  1.00  0.00    -0.121 NA 
HETATM   19  H2  UNL     1      -7.783   8.779  67.028  1.00  0.00     0.000 HD 
HETATM   20  H1  UNL     1      -7.474   7.121  66.936  1.00  0.00     0.000 HD 
ENDBRANCH  10  17
ENDBRANCH   5   8
ENDBRANCH   2   3
TORSDOF 5
ENDMDL
MODEL      101
REMARK 921   NORMALIZED FREE ENERGY PREDICTED BY IDOCK:   -3.68 KCAL/MOL
REMARK 922        TOTAL FREE ENERGY PREDICTED BY IDOCK:   -5.24 KCAL/MOL
REMARK 923 INTER-LIGAND FREE ENERGY PREDICTED BY IDOCK:   -4.94 KCAL/MOL
REMARK 924 INTRA-LIGAND FREE ENERGY PREDICTED BY IDOCK:   -0.30 KCAL/MOL
REMARK 927      BINDING AFFINITY PREDICTED BY RF-SCORE:    0.00 PKD
ROOT
HETATM    1  C   UNL     1     -11.579  12.261  64.128  1.00  0.00    -0.463 C  
HETATM    2  C   UNL     1     -12.446  12.794  65.254  1.00  0.00    -0.465 C  
ENDROOT
BRANCH   2   3
HETATM    3  N   UNL     1     -11.703  13.573  66.246  1.00  0.00    -0.349 N  
HETATM    4  O   UNL     1     -12.120  11.946  67.848  1.00  0.00    -0.558 OA 
HETATM    5  C   UNL     1     -11.630  13.030  67.542  1.00  0.00    -0.356 C  
BRANCH   3   6
HETATM    6  C   UNL     1     -11.397  14.983  65.986  1.00  0.00    -0.270 C  
HETATM    7  C   UNL     1     -10.087  15.303  65.289  1.00  0.00    -0.362 C  
ENDBRANCH   3   6
BRANCH   5   8
HETATM    8  C   UNL     1     -10.873  13.812  68.609  1.00  0.00    -0.280 C  
HETATM    9  C   UNL     1     -11.476  15.164  69.014  1.00  0.00    -0.325 C  
HETATM   10  C   UNL     1     -11.549  14.017  69.977  1.00  0.00    -0.302 C  
BRANCH   8  11
HETATM   11  C   UNL     1      -9.346  13.786  68.448  1.00  0.00    -0.190 A  
HETATM   12  C   UNL     1      -8.594  14.929  68.773  1.00  0.00    -0.177 A  
HETATM   13  C   UNL     1      -7.250  15.048  68.410  1.00  0.00    -0.111 A  
HETATM   14  C   UNL     1      -8.661  12.718  67.843  1.00  0.00    -0.185 A  
HETATM   15  C   UNL     1      -6.622  14.012  67.728  1.00  0.00    -0.188 A  
HETATM   16  C   UNL     1      -7.320  12.836  67.465  1.00  0.00    -0.153 A  
ENDBRANCH   8  11
BRANCH  10  17
HETATM   17  C   UNL     1     -12.859  13.357  70.297  1.00  0.00     0.109 C  
HETATM   18  N   UNL     1     -12.637  12.051  70.894  1.00  0.00    -0.311 NA 
HETATM   19  H2  UNL     1     -12.031  12.106  71.711  1.00  0.00     0.000 HD 
HETATM   20  H1  UNL     1     -13.527  11.602  71.111  1.00  0.00     0.000 HD 
ENDBRANCH  10  17
ENDBRANCH   5   8
ENDBRANCH   2   3
TORSDOF 5
ENDMDL
MODEL      102
REMARK 921   NORMALIZED FREE ENERGY PREDICTED BY IDOCK:   -3.67 KCAL/MOL
REMARK 922        TOTAL FREE ENERGY PREDICTED BY IDOCK:   -5.23 KCAL/MOL
REMARK 923 INTER-LIGAND FREE ENERGY PREDICTED BY IDOCK:   -4.75 KCAL/MOL
REMARK 924 INTRA-LIGAND FREE ENERGY PREDICTED BY IDOCK:   -0.49 KCAL/MOL
REMARK 927      BINDING AFFINITY PREDICTED BY RF-SCORE:    0.00 PKD
ROOT
HETATM    1  C   UNL     1      -6.463  11.599  67.384  1.00  0.00    -0.103 C  
HETATM    2  C   UNL     1      -6.951  12.632  68.384  1.00  0.00    -0.094 C  
ENDROOT
BRANCH   2   3
HETATM    3  N   UNL     1      -8.161  13.335  67.956  1.00  0.00    -0.150 N  
HETATM    4  O   UNL     1      -9.466  11.581  68.735  1.00  0.00    -0.175 OA 
HETATM    5  C   UNL     1      -9.382  12.673  68.180  1.00  0.00    -0.210 C  
BRANCH   3   6
HETATM    6  C   UNL     1      -8.058  14.463  67.026  1.00  0.00    -0.065 C  
HETATM    7  C   UNL     1      -7.363  15.720  67.516  1.00  0.00    -0.205 C  
ENDBRANCH   3   6
BRANCH   5   8
HETATM    8  C   UNL     1     -10.667  13.365  67.742  1.00  0.00    -0.259 C  
HETATM    9  C   UNL     1     -11.875  13.209  68.676  1.00  0.00    -0.363 C  
HETATM   10  C   UNL     1     -11.187  14.539  68.591  1.00  0.00    -0.281 C  
BRANCH   8  11
HETATM   11  C   UNL     1     -10.968  13.247  66.240  1.00  0.00    -0.296 A  
HETATM   12  C   UNL     1     -11.729  14.245  65.604  1.00  0.00    -0.358 A  
HETATM   13  C   UNL     1     -12.243  14.065  64.317  1.00  0.00    -0.453 A  
HETATM   14  C   UNL     1     -10.649  12.105  65.486  1.00  0.00    -0.314 A  
HETATM   15  C   UNL     1     -11.989  12.884  63.629  1.00  0.00    -0.613 A  
HETATM   16  C   UNL     1     -11.172  11.913  64.203  1.00  0.00    -0.446 A  
ENDBRANCH   8  11
BRANCH  10  17
HETATM   17  C   UNL     1     -10.386  15.072  69.743  1.00  0.00    -0.155 C  
HETATM   18  N   UNL     1     -10.132  16.493  69.572  1.00  0.00    -0.209 NA 
HETATM   19  H2  UNL     1     -10.996  17.018  69.436  1.00  0.00     0.000 HD 
HETATM   20  H1  UNL     1      -9.588  16.855  70.355  1.00  0.00     0.000 HD 
ENDBRANCH  10  17
ENDBRANCH   5   8
ENDBRANCH   2   3
TORSDOF 5
ENDMDL
MODEL      103
REMARK 921   NORMALIZED FREE ENERGY PREDICTED BY IDOCK:   -3.67 KCAL/MOL
REMARK 922        TOTAL FREE ENERGY PREDICTED BY IDOCK:   -5.23 KCAL/MOL
REMARK 923 INTER-LIGAND FREE ENERGY PREDICTED BY IDOCK:   -4.66 KCAL/MOL
REMARK 924 INTRA-LIGAND FREE ENERGY PREDICTED BY IDOCK:   -0.57 KCAL/MOL
REMARK 927      BINDING AFFINITY PREDICTED BY RF-SCORE:    0.00 PKD
ROOT
HETATM    1  C   UNL     1      -9.416   4.266  68.164  1.00  0.00    -0.213 C  
HETATM    2  C   UNL     1      -9.877   4.672  69.552  1.00  0.00    -0.216 C  
ENDROOT
BRANCH   2   3
HETATM    3  N   UNL     1      -9.683   6.094  69.840  1.00  0.00    -0.161 N  
HETATM    4  O   UNL     1     -11.983   6.402  69.905  1.00  0.00    -0.304 OA 
HETATM    5  C   UNL     1     -10.850   6.869  69.979  1.00  0.00    -0.262 C  
BRANCH   3   6
HETATM    6  C   UNL     1      -8.373   6.711  69.616  1.00  0.00    -0.132 C  
HETATM    7  C   UNL     1      -7.291   6.464  70.652  1.00  0.00    -0.079 C  
ENDBRANCH   3   6
BRANCH   5   8
HETATM    8  C   UNL     1     -10.695   8.357  70.271  1.00  0.00    -0.240 C  
HETATM    9  C   UNL     1     -11.774   8.990  71.160  1.00  0.00    -0.366 C  
HETATM   10  C   UNL     1     -10.397   8.787  71.719  1.00  0.00    -0.413 C  
BRANCH   8  11
HETATM   11  C   UNL     1     -10.252   9.195  69.062  1.00  0.00    -0.219 A  
HETATM   12  C   UNL     1      -9.637  10.443  69.271  1.00  0.00    -0.226 A  
HETATM   13  C   UNL     1      -9.448  11.350  68.225  1.00  0.00    -0.187 A  
HETATM   14  C   UNL     1     -10.569   8.850  67.737  1.00  0.00    -0.266 A  
HETATM   15  C   UNL     1      -9.857  11.018  66.939  1.00  0.00    -0.222 A  
HETATM   16  C   UNL     1     -10.395   9.758  66.688  1.00  0.00    -0.276 A  
ENDBRANCH   8  11
BRANCH  10  17
HETATM   17  C   UNL     1     -10.138   7.767  72.789  1.00  0.00    -0.282 C  
HETATM   18  N   UNL     1     -11.382   7.375  73.430  1.00  0.00    -0.600 NA 
HETATM   19  H2  UNL     1     -12.070   7.047  72.753  1.00  0.00     0.000 HD 
HETATM   20  H1  UNL     1     -11.206   6.682  74.157  1.00  0.00     0.000 HD 
ENDBRANCH  10  17
ENDBRANCH   5   8
ENDBRANCH   2   3
TORSDOF 5
ENDMDL
MODEL      104
REMARK 921   NORMALIZED FREE ENERGY PREDICTED BY IDOCK:   -3.66 KCAL/MOL
REMARK 922        TOTAL FREE ENERGY PREDICTED BY IDOCK:   -5.23 KCAL/MOL
REMARK 923 INTER-LIGAND FREE ENERGY PREDICTED BY IDOCK:   -4.99 KCAL/MOL
REMARK 924 INTRA-LIGAND FREE ENERGY PREDICTED BY IDOCK:   -0.24 KCAL/MOL
REMARK 927      BINDING AFFINITY PREDICTED BY RF-SCORE:    0.00 PKD
ROOT
HETATM    1  C   UNL     1     -12.627  12.420  70.842  1.00  0.00    -0.337 C  
HETATM    2  C   UNL     1     -11.847  11.595  69.834  1.00  0.00    -0.358 C  
ENDROOT
BRANCH   2   3
HETATM    3  N   UNL     1     -11.244  12.393  68.766  1.00  0.00    -0.255 N  
HETATM    4  O   UNL     1     -10.685  10.453  67.620  1.00  0.00    -0.243 OA 
HETATM    5  C   UNL     1     -10.668  11.679  67.699  1.00  0.00    -0.207 C  
BRANCH   3   6
HETATM    6  C   UNL     1     -10.937  13.808  68.997  1.00  0.00    -0.243 C  
HETATM    7  C   UNL     1     -11.950  14.835  68.523  1.00  0.00    -0.284 C  
ENDBRANCH   3   6
BRANCH   5   8
HETATM    8  C   UNL     1     -10.022  12.470  66.568  1.00  0.00    -0.252 C  
HETATM    9  C   UNL     1      -9.994  11.790  65.193  1.00  0.00    -0.285 C  
HETATM   10  C   UNL     1     -10.917  12.951  65.412  1.00  0.00    -0.305 C  
BRANCH   8  11
HETATM   11  C   UNL     1      -8.737  13.212  66.970  1.00  0.00    -0.193 A  
HETATM   12  C   UNL     1      -7.729  12.524  67.670  1.00  0.00    -0.151 A  
HETATM   13  C   UNL     1      -6.668  13.201  68.276  1.00  0.00    -0.101 A  
HETATM   14  C   UNL     1      -8.575  14.598  66.808  1.00  0.00    -0.195 A  
HETATM   15  C   UNL     1      -6.583  14.585  68.178  1.00  0.00    -0.140 A  
HETATM   16  C   UNL     1      -7.523  15.283  67.424  1.00  0.00    -0.239 A  
ENDBRANCH   8  11
BRANCH  10  17
HETATM   17  C   UNL     1     -12.405  12.760  65.458  1.00  0.00    -0.434 C  
HETATM   18  N   UNL     1     -13.087  14.025  65.247  1.00  0.00    -0.765 NA 
HETATM   19  H2  UNL     1     -12.789  14.477  64.382  1.00  0.00     0.000 HD 
HETATM   20  H1  UNL     1     -14.098  13.896  65.278  1.00  0.00     0.000 HD 
ENDBRANCH  10  17
ENDBRANCH   5   8
ENDBRANCH   2   3
TORSDOF 5
ENDMDL
MODEL      105
REMARK 921   NORMALIZED FREE ENERGY PREDICTED BY IDOCK:   -3.66 KCAL/MOL
REMARK 922        TOTAL FREE ENERGY PREDICTED BY IDOCK:   -5.23 KCAL/MOL
REMARK 923 INTER-LIGAND FREE ENERGY PREDICTED BY IDOCK:   -4.69 KCAL/MOL
REMARK 924 INTRA-LIGAND FREE ENERGY PREDICTED BY IDOCK:   -0.53 KCAL/MOL
REMARK 927      BINDING AFFINITY PREDICTED BY RF-SCORE:    0.00 PKD
ROOT
HETATM    1  C   UNL     1     -14.328   7.936  71.482  1.00  0.00    -0.563 C  
HETATM    2  C   UNL     1     -13.072   8.557  72.065  1.00  0.00    -0.371 C  
ENDROOT
BRANCH   2   3
HETATM    3  N   UNL     1     -11.838   7.902  71.629  1.00  0.00    -0.276 N  
HETATM    4  O   UNL     1     -10.956   9.958  71.011  1.00  0.00    -0.335 OA 
HETATM    5  C   UNL     1     -10.842   8.737  71.091  1.00  0.00    -0.268 C  
BRANCH   3   6
HETATM    6  C   UNL     1     -11.816   6.451  71.425  1.00  0.00    -0.281 C  
HETATM    7  C   UNL     1     -11.482   5.575  72.620  1.00  0.00    -0.331 C  
ENDBRANCH   3   6
BRANCH   5   8
HETATM    8  C   UNL     1      -9.544   8.096  70.616  1.00  0.00    -0.179 C  
HETATM    9  C   UNL     1      -8.263   8.912  70.837  1.00  0.00    -0.207 C  
HETATM   10  C   UNL     1      -8.502   7.692  71.675  1.00  0.00    -0.120 C  
BRANCH   8  11
HETATM   11  C   UNL     1      -9.651   7.380  69.261  1.00  0.00    -0.154 A  
HETATM   12  C   UNL     1      -8.895   6.216  69.029  1.00  0.00    -0.123 A  
HETATM   13  C   UNL     1      -8.759   5.676  67.749  1.00  0.00    -0.107 A  
HETATM   14  C   UNL     1     -10.358   7.914  68.170  1.00  0.00    -0.249 A  
HETATM   15  C   UNL     1      -9.395   6.280  66.670  1.00  0.00    -0.167 A  
HETATM   16  C   UNL     1     -10.214   7.385  66.883  1.00  0.00    -0.346 A  
ENDBRANCH   8  11
BRANCH  10  17
HETATM   17  C   UNL     1      -8.807   7.807  73.140  1.00  0.00    -0.204 C  
HETATM   18  N   UNL     1      -7.811   8.630  73.805  1.00  0.00    -0.414 NA 
HETATM   19  H2  UNL     1      -7.721   9.546  73.364  1.00  0.00     0.000 HD 
HETATM   20  H1  UNL     1      -8.018   8.708  74.800  1.00  0.00     0.000 HD 
ENDBRANCH  10  17
ENDBRANCH   5   8
ENDBRANCH   2   3
TORSDOF 5
ENDMDL
MODEL      106
REMARK 921   NORMALIZED FREE ENERGY PREDICTED BY IDOCK:   -3.63 KCAL/MOL
REMARK 922        TOTAL FREE ENERGY PREDICTED BY IDOCK:   -5.18 KCAL/MOL
REMARK 923 INTER-LIGAND FREE ENERGY PREDICTED BY IDOCK:   -4.77 KCAL/MOL
REMARK 924 INTRA-LIGAND FREE ENERGY PREDICTED BY IDOCK:   -0.41 KCAL/MOL
REMARK 927      BINDING AFFINITY PREDICTED BY RF-SCORE:    0.00 PKD
ROOT
HETATM    1  C   UNL     1      -6.367  13.065  67.409  1.00  0.00    -0.096 C  
HETATM    2  C   UNL     1      -7.504  12.598  68.300  1.00  0.00    -0.123 C  
ENDROOT
BRANCH   2   3
HETATM    3  N   UNL     1      -8.585  13.577  68.430  1.00  0.00    -0.166 N  
HETATM    4  O   UNL     1      -9.457  12.897  66.389  1.00  0.00    -0.251 OA 
HETATM    5  C   UNL     1      -9.506  13.636  67.368  1.00  0.00    -0.225 C  
BRANCH   3   6
HETATM    6  C   UNL     1      -8.475  14.658  69.413  1.00  0.00     0.103 C  
HETATM    7  C   UNL     1      -7.307  15.619  69.277  1.00  0.00    -0.207 C  
ENDBRANCH   3   6
BRANCH   5   8
HETATM    8  C   UNL     1     -10.644  14.647  67.458  1.00  0.00    -0.257 C  
HETATM    9  C   UNL     1     -11.967  14.241  66.794  1.00  0.00    -0.462 C  
HETATM   10  C   UNL     1     -11.884  14.276  68.291  1.00  0.00    -0.370 C  
BRANCH   8  11
HETATM   11  C   UNL     1     -10.211  16.106  67.243  1.00  0.00    -0.277 A  
HETATM   12  C   UNL     1      -9.208  16.401  66.302  1.00  0.00    -0.350 A  
HETATM   13  C   UNL     1      -8.603  17.659  66.247  1.00  0.00    -0.224 A  
HETATM   14  C   UNL     1     -10.661  17.162  68.053  1.00  0.00    -0.374 A  
HETATM   15  C   UNL     1      -9.004  18.659  67.126  1.00  0.00    -0.288 A  
HETATM   16  C   UNL     1     -10.050  18.420  68.013  1.00  0.00    -0.392 A  
ENDBRANCH   8  11
BRANCH  10  17
HETATM   17  C   UNL     1     -11.920  13.011  69.098  1.00  0.00    -0.271 C  
HETATM   18  N   UNL     1     -11.819  13.309  70.517  1.00  0.00    -0.542 NA 
HETATM   19  H2  UNL     1     -12.535  13.971  70.817  1.00  0.00     0.000 HD 
HETATM   20  H1  UNL     1     -11.843  12.449  71.065  1.00  0.00     0.000 HD 
ENDBRANCH  10  17
ENDBRANCH   5   8
ENDBRANCH   2   3
TORSDOF 5
ENDMDL
MODEL      107
REMARK 921   NORMALIZED FREE ENERGY PREDICTED BY IDOCK:   -3.61 KCAL/MOL
REMARK 922        TOTAL FREE ENERGY PREDICTED BY IDOCK:   -5.16 KCAL/MOL
REMARK 923 INTER-LIGAND FREE ENERGY PREDICTED BY IDOCK:   -4.55 KCAL/MOL
REMARK 924 INTRA-LIGAND FREE ENERGY PREDICTED BY IDOCK:   -0.61 KCAL/MOL
REMARK 927      BINDING AFFINITY PREDICTED BY RF-SCORE:    0.00 PKD
ROOT
HETATM    1  C   UNL     1     -11.836  15.549  68.983  1.00  0.00    -0.373 C  
HETATM    2  C   UNL     1     -10.929  14.527  69.645  1.00  0.00    -0.193 C  
ENDROOT
BRANCH   2   3
HETATM    3  N   UNL     1     -10.596  13.393  68.781  1.00  0.00    -0.237 N  
HETATM    4  O   UNL     1      -8.621  14.440  68.154  1.00  0.00    -0.151 OA 
HETATM    5  C   UNL     1      -9.392  13.488  68.060  1.00  0.00    -0.213 C  
BRANCH   3   6
HETATM    6  C   UNL     1     -11.633  12.423  68.420  1.00  0.00    -0.324 C  
HETATM    7  C   UNL     1     -11.926  11.305  69.404  1.00  0.00    -0.410 C  
ENDBRANCH   3   6
BRANCH   5   8
HETATM    8  C   UNL     1      -9.010  12.333  67.141  1.00  0.00    -0.192 C  
HETATM    9  C   UNL     1      -7.508  12.055  66.989  1.00  0.00    -0.106 C  
HETATM   10  C   UNL     1      -8.351  11.091  67.769  1.00  0.00    -0.118 C  
BRANCH   8  11
HETATM   11  C   UNL     1      -9.836  12.254  65.848  1.00  0.00    -0.266 A  
HETATM   12  C   UNL     1     -10.007  11.013  65.208  1.00  0.00    -0.320 A  
HETATM   13  C   UNL     1     -10.523  10.923  63.914  1.00  0.00    -0.359 A  
HETATM   14  C   UNL     1     -10.311  13.393  65.177  1.00  0.00    -0.349 A  
HETATM   15  C   UNL     1     -10.900  12.077  63.236  1.00  0.00    -0.400 A  
HETATM   16  C   UNL     1     -10.817  13.311  63.875  1.00  0.00    -0.178 A  
ENDBRANCH   8  11
BRANCH  10  17
HETATM   17  C   UNL     1      -8.207  10.965  69.258  1.00  0.00    -0.036 C  
HETATM   18  N   UNL     1      -6.922  11.488  69.690  1.00  0.00    -0.326 NA 
HETATM   19  H2  UNL     1      -6.779  12.448  69.376  1.00  0.00     0.000 HD 
HETATM   20  H1  UNL     1      -6.823  11.401  70.702  1.00  0.00     0.000 HD 
ENDBRANCH  10  17
ENDBRANCH   5   8
ENDBRANCH   2   3
TORSDOF 5
ENDMDL
MODEL      108
REMARK 921   NORMALIZED FREE ENERGY PREDICTED BY IDOCK:   -3.60 KCAL/MOL
REMARK 922        TOTAL FREE ENERGY PREDICTED BY IDOCK:   -5.15 KCAL/MOL
REMARK 923 INTER-LIGAND FREE ENERGY PREDICTED BY IDOCK:   -4.80 KCAL/MOL
REMARK 924 INTRA-LIGAND FREE ENERGY PREDICTED BY IDOCK:   -0.34 KCAL/MOL
REMARK 927      BINDING AFFINITY PREDICTED BY RF-SCORE:    0.00 PKD
ROOT
HETATM    1  C   UNL     1      -9.952   9.463  67.700  1.00  0.00    -0.238 C  
HETATM    2  C   UNL     1      -9.810  10.611  68.683  1.00  0.00    -0.179 C  
ENDROOT
BRANCH   2   3
HETATM    3  N   UNL     1     -10.015  11.928  68.078  1.00  0.00    -0.185 N  
HETATM    4  O   UNL     1     -12.138  12.035  69.012  1.00  0.00    -0.271 OA 
HETATM    5  C   UNL     1     -11.261  12.537  68.313  1.00  0.00    -0.266 C  
BRANCH   3   6
HETATM    6  C   UNL     1      -9.127  12.384  67.005  1.00  0.00    -0.207 C  
HETATM    7  C   UNL     1      -7.631  12.312  67.250  1.00  0.00    -0.152 C  
ENDBRANCH   3   6
BRANCH   5   8
HETATM    8  C   UNL     1     -11.521  13.906  67.695  1.00  0.00    -0.354 C  
HETATM    9  C   UNL     1     -12.276  14.914  68.572  1.00  0.00    -0.084 C  
HETATM   10  C   UNL     1     -10.815  15.128  68.311  1.00  0.00    -0.262 C  
BRANCH   8  11
HETATM   11  C   UNL     1     -11.940  13.864  66.218  1.00  0.00    -0.462 A  
HETATM   12  C   UNL     1     -12.387  12.653  65.658  1.00  0.00    -0.390 A  
HETATM   13  C   UNL     1     -12.536  12.496  64.278  1.00  0.00    -0.485 A  
HETATM   14  C   UNL     1     -11.756  14.947  65.341  1.00  0.00    -0.238 A  
HETATM   15  C   UNL     1     -12.257  13.559  63.426  1.00  0.00    -0.338 A  
HETATM   16  C   UNL     1     -11.890  14.792  63.958  1.00  0.00    -0.095 A  
ENDBRANCH   8  11
BRANCH  10  17
HETATM   17  C   UNL     1      -9.801  14.963  69.405  1.00  0.00    -0.118 C  
HETATM   18  N   UNL     1     -10.430  15.101  70.707  1.00  0.00    -0.481 NA 
HETATM   19  H2  UNL     1     -11.215  14.460  70.819  1.00  0.00     0.000 HD 
HETATM   20  H1  UNL     1      -9.741  14.989  71.451  1.00  0.00     0.000 HD 
ENDBRANCH  10  17
ENDBRANCH   5   8
ENDBRANCH   2   3
TORSDOF 5
ENDMDL
MODEL      109
REMARK 921   NORMALIZED FREE ENERGY PREDICTED BY IDOCK:   -3.60 KCAL/MOL
REMARK 922        TOTAL FREE ENERGY PREDICTED BY IDOCK:   -5.14 KCAL/MOL
REMARK 923 INTER-LIGAND FREE ENERGY PREDICTED BY IDOCK:   -5.47 KCAL/MOL
REMARK 924 INTRA-LIGAND FREE ENERGY PREDICTED BY IDOCK:    0.33 KCAL/MOL
REMARK 927      BINDING AFFINITY PREDICTED BY RF-SCORE:    0.00 PKD
ROOT
HETATM    1  C   UNL     1     -13.423  13.528  71.146  1.00  0.00    -0.064 C  
HETATM    2  C   UNL     1     -13.502  14.914  70.533  1.00  0.00    -0.007 C  
ENDROOT
BRANCH   2   3
HETATM    3  N   UNL     1     -12.198  15.466  70.164  1.00  0.00    -0.361 N  
HETATM    4  O   UNL     1     -12.367  14.485  68.067  1.00  0.00    -0.172 OA 
HETATM    5  C   UNL     1     -11.728  15.152  68.875  1.00  0.00    -0.333 C  
BRANCH   3   6
HETATM    6  C   UNL     1     -11.303  15.981  71.204  1.00  0.00    -0.361 C  
HETATM    7  C   UNL     1     -11.922  16.385  72.530  1.00  0.00    -0.579 C  
ENDBRANCH   3   6
BRANCH   5   8
HETATM    8  C   UNL     1     -10.369  15.699  68.452  1.00  0.00    -0.231 C  
HETATM    9  C   UNL     1      -9.169  15.271  69.306  1.00  0.00    -0.233 C  
HETATM   10  C   UNL     1      -9.317  14.707  67.925  1.00  0.00    -0.198 C  
BRANCH   8  11
HETATM   11  C   UNL     1     -10.388  17.174  68.022  1.00  0.00    -0.353 A  
HETATM   12  C   UNL     1     -10.717  17.507  66.695  1.00  0.00    -0.097 A  
HETATM   13  C   UNL     1     -10.505  18.791  66.189  1.00  0.00    -0.499 A  
HETATM   14  C   UNL     1      -9.941  18.216  68.852  1.00  0.00    -0.352 A  
HETATM   15  C   UNL     1      -9.973  19.780  67.009  1.00  0.00    -0.532 A  
HETATM   16  C   UNL     1      -9.713  19.500  68.348  1.00  0.00    -0.498 A  
ENDBRANCH   8  11
BRANCH  10  17
HETATM   17  C   UNL     1      -9.660  13.261  67.711  1.00  0.00    -0.214 C  
HETATM   18  N   UNL     1      -9.320  12.479  68.888  1.00  0.00    -0.382 NA 
HETATM   19  H2  UNL     1      -9.757  12.851  69.730  1.00  0.00     0.000 HD 
HETATM   20  H1  UNL     1      -9.552  11.496  68.742  1.00  0.00     0.000 HD 
ENDBRANCH  10  17
ENDBRANCH   5   8
ENDBRANCH   2   3
TORSDOF 5
ENDMDL
MODEL      110
REMARK 921   NORMALIZED FREE ENERGY PREDICTED BY IDOCK:   -3.59 KCAL/MOL
REMARK 922        TOTAL FREE ENERGY PREDICTED BY IDOCK:   -5.14 KCAL/MOL
REMARK 923 INTER-LIGAND FREE ENERGY PREDICTED BY IDOCK:   -5.24 KCAL/MOL
REMARK 924 INTRA-LIGAND FREE ENERGY PREDICTED BY IDOCK:    0.10 KCAL/MOL
REMARK 927      BINDING AFFINITY PREDICTED BY RF-SCORE:    0.00 PKD
ROOT
HETATM    1  C   UNL     1     -10.191  13.179  65.447  1.00  0.00    -0.301 C  
HETATM    2  C   UNL     1      -9.661  11.953  66.167  1.00  0.00    -0.232 C  
ENDROOT
BRANCH   2   3
HETATM    3  N   UNL     1      -9.978  11.931  67.597  1.00  0.00    -0.187 N  
HETATM    4  O   UNL     1     -12.209  11.525  67.105  1.00  0.00    -0.266 OA 
HETATM    5  C   UNL     1     -11.327  11.720  67.936  1.00  0.00    -0.292 C  
BRANCH   3   6
HETATM    6  C   UNL     1      -9.017  12.469  68.564  1.00  0.00    -0.052 C  
HETATM    7  C   UNL     1      -7.647  11.820  68.634  1.00  0.00    -0.125 C  
ENDBRANCH   3   6
BRANCH   5   8
HETATM    8  C   UNL     1     -11.702  11.698  69.413  1.00  0.00    -0.405 C  
HETATM    9  C   UNL     1     -12.674  10.593  69.850  1.00  0.00    -0.081 C  
HETATM   10  C   UNL     1     -11.236  10.504  70.265  1.00  0.00    -0.391 C  
BRANCH   8  11
HETATM   11  C   UNL     1     -11.956  13.086  70.021  1.00  0.00    -0.383 A  
HETATM   12  C   UNL     1     -12.657  13.194  71.236  1.00  0.00    -0.382 A  
HETATM   13  C   UNL     1     -13.133  14.423  71.699  1.00  0.00    -0.421 A  
HETATM   14  C   UNL     1     -11.655  14.281  69.345  1.00  0.00    -0.354 A  
HETATM   15  C   UNL     1     -12.900  15.578  70.962  1.00  0.00    -0.543 A  
HETATM   16  C   UNL     1     -12.141  15.512  69.797  1.00  0.00    -0.372 A  
ENDBRANCH   8  11
BRANCH  10  17
HETATM   17  C   UNL     1     -10.327   9.455  69.692  1.00  0.00    -0.216 C  
HETATM   18  N   UNL     1      -9.274   9.124  70.636  1.00  0.00    -0.238 NA 
HETATM   19  H2  UNL     1      -9.650   8.845  71.541  1.00  0.00     0.000 HD 
HETATM   20  H1  UNL     1      -8.656   8.411  70.246  1.00  0.00     0.000 HD 
ENDBRANCH  10  17
ENDBRANCH   5   8
ENDBRANCH   2   3
TORSDOF 5
ENDMDL
MODEL      111
REMARK 921   NORMALIZED FREE ENERGY PREDICTED BY IDOCK:   -3.57 KCAL/MOL
REMARK 922        TOTAL FREE ENERGY PREDICTED BY IDOCK:   -5.11 KCAL/MOL
REMARK 923 INTER-LIGAND FREE ENERGY PREDICTED BY IDOCK:   -5.40 KCAL/MOL
REMARK 924 INTRA-LIGAND FREE ENERGY PREDICTED BY IDOCK:    0.29 KCAL/MOL
REMARK 927      BINDING AFFINITY PREDICTED BY RF-SCORE:    0.00 PKD
ROOT
HETATM    1  C   UNL     1     -12.242  14.239  64.816  1.00  0.00    -0.456 C  
HETATM    2  C   UNL     1     -12.517  12.752  64.952  1.00  0.00    -0.497 C  
ENDROOT
BRANCH   2   3
HETATM    3  N   UNL     1     -11.371  11.988  65.449  1.00  0.00    -0.335 N  
HETATM    4  O   UNL     1     -12.196  12.144  67.613  1.00  0.00    -0.462 OA 
HETATM    5  C   UNL     1     -11.323  11.765  66.837  1.00  0.00    -0.320 C  
BRANCH   3   6
HETATM    6  C   UNL     1     -10.189  11.813  64.601  1.00  0.00    -0.284 C  
HETATM    7  C   UNL     1     -10.372  11.102  63.273  1.00  0.00    -0.368 C  
ENDBRANCH   3   6
BRANCH   5   8
HETATM    8  C   UNL     1     -10.143  10.981  67.400  1.00  0.00    -0.216 C  
HETATM    9  C   UNL     1      -8.780  11.244  66.745  1.00  0.00    -0.166 C  
HETATM   10  C   UNL     1      -9.034  11.760  68.129  1.00  0.00    -0.181 C  
BRANCH   8  11
HETATM   11  C   UNL     1     -10.455   9.511  67.720  1.00  0.00    -0.309 A  
HETATM   12  C   UNL     1     -10.656   9.119  69.056  1.00  0.00    -0.219 A  
HETATM   13  C   UNL     1     -10.690   7.773  69.426  1.00  0.00    -0.177 A  
HETATM   14  C   UNL     1     -10.401   8.492  66.754  1.00  0.00    -0.346 A  
HETATM   15  C   UNL     1     -10.540   6.785  68.460  1.00  0.00    -0.265 A  
HETATM   16  C   UNL     1     -10.419   7.142  67.120  1.00  0.00    -0.389 A  
ENDBRANCH   8  11
BRANCH  10  17
HETATM   17  C   UNL     1      -9.171  13.231  68.395  1.00  0.00    -0.145 C  
HETATM   18  N   UNL     1      -7.889  13.801  68.774  1.00  0.00    -0.265 NA 
HETATM   19  H2  UNL     1      -7.167  13.606  68.080  1.00  0.00     0.000 HD 
HETATM   20  H1  UNL     1      -7.982  14.800  68.955  1.00  0.00     0.000 HD 
ENDBRANCH  10  17
ENDBRANCH   5   8
ENDBRANCH   2   3
TORSDOF 5
ENDMDL
MODEL      112
REMARK 921   NORMALIZED FREE ENERGY PREDICTED BY IDOCK:   -3.55 KCAL/MOL
REMARK 922        TOTAL FREE ENERGY PREDICTED BY IDOCK:   -5.08 KCAL/MOL
REMARK 923 INTER-LIGAND FREE ENERGY PREDICTED BY IDOCK:   -4.89 KCAL/MOL
REMARK 924 INTRA-LIGAND FREE ENERGY PREDICTED BY IDOCK:   -0.19 KCAL/MOL
REMARK 927      BINDING AFFINITY PREDICTED BY RF-SCORE:    0.00 PKD
ROOT
HETATM    1  C   UNL     1      -7.156  13.354  69.001  1.00  0.00    -0.053 C  
HETATM    2  C   UNL     1      -7.352  14.826  69.315  1.00  0.00    -0.168 C  
ENDROOT
BRANCH   2   3
HETATM    3  N   UNL     1      -8.511  15.418  68.645  1.00  0.00    -0.160 N  
HETATM    4  O   UNL     1      -7.461  15.170  66.590  1.00  0.00     0.037 OA 
HETATM    5  C   UNL     1      -8.426  15.551  67.248  1.00  0.00    -0.193 C  
BRANCH   3   6
HETATM    6  C   UNL     1      -9.507  16.154  69.428  1.00  0.00    -0.198 C  
HETATM    7  C   UNL     1     -10.539  15.347  70.195  1.00  0.00    -0.314 C  
ENDBRANCH   3   6
BRANCH   5   8
HETATM    8  C   UNL     1      -9.607  16.171  66.510  1.00  0.00    -0.285 C  
HETATM    9  C   UNL     1      -9.937  15.575  65.135  1.00  0.00    -0.184 C  
HETATM   10  C   UNL     1     -10.860  15.305  66.285  1.00  0.00    -0.312 C  
BRANCH   8  11
HETATM   11  C   UNL     1      -9.680  17.703  66.607  1.00  0.00    -0.304 A  
HETATM   12  C   UNL     1      -8.529  18.470  66.351  1.00  0.00    -0.275 A  
HETATM   13  C   UNL     1      -8.470  19.829  66.669  1.00  0.00    -0.371 A  
HETATM   14  C   UNL     1     -10.810  18.383  67.092  1.00  0.00    -0.271 A  
HETATM   15  C   UNL     1      -9.573  20.456  67.235  1.00  0.00    -0.592 A  
HETATM   16  C   UNL     1     -10.753  19.741  67.424  1.00  0.00    -0.515 A  
ENDBRANCH   8  11
BRANCH  10  17
HETATM   17  C   UNL     1     -10.967  13.934  66.886  1.00  0.00    -0.295 C  
HETATM   18  N   UNL     1     -12.270  13.749  67.503  1.00  0.00    -0.439 NA 
HETATM   19  H2  UNL     1     -13.029  13.937  66.848  1.00  0.00     0.000 HD 
HETATM   20  H1  UNL     1     -12.343  12.818  67.911  1.00  0.00     0.000 HD 
ENDBRANCH  10  17
ENDBRANCH   5   8
ENDBRANCH   2   3
TORSDOF 5
ENDMDL
MODEL      113
REMARK 921   NORMALIZED FREE ENERGY PREDICTED BY IDOCK:   -3.55 KCAL/MOL
REMARK 922        TOTAL FREE ENERGY PREDICTED BY IDOCK:   -5.08 KCAL/MOL
REMARK 923 INTER-LIGAND FREE ENERGY PREDICTED BY IDOCK:   -5.28 KCAL/MOL
REMARK 924 INTRA-LIGAND FREE ENERGY PREDICTED BY IDOCK:    0.21 KCAL/MOL
REMARK 927      BINDING AFFINITY PREDICTED BY RF-SCORE:    0.00 PKD
ROOT
HETATM    1  C   UNL     1      -5.352  14.712  68.203  1.00  0.00    -0.121 C  
HETATM    2  C   UNL     1      -6.102  15.936  68.696  1.00  0.00    -0.101 C  
ENDROOT
BRANCH   2   3
HETATM    3  N   UNL     1      -7.297  16.247  67.909  1.00  0.00    -0.123 N  
HETATM    4  O   UNL     1      -8.613  15.103  69.441  1.00  0.00    -0.215 OA 
HETATM    5  C   UNL     1      -8.516  15.742  68.397  1.00  0.00    -0.170 C  
BRANCH   3   6
HETATM    6  C   UNL     1      -7.158  16.719  66.529  1.00  0.00    -0.219 C  
HETATM    7  C   UNL     1      -6.664  18.139  66.316  1.00  0.00    -0.275 C  
ENDBRANCH   3   6
BRANCH   5   8
HETATM    8  C   UNL     1      -9.784  16.034  67.604  1.00  0.00    -0.224 C  
HETATM    9  C   UNL     1     -10.042  15.141  66.383  1.00  0.00    -0.286 C  
HETATM   10  C   UNL     1     -10.901  14.974  67.601  1.00  0.00    -0.291 C  
BRANCH   8  11
HETATM   11  C   UNL     1     -10.077  17.529  67.409  1.00  0.00    -0.325 A  
HETATM   12  C   UNL     1     -10.294  18.030  66.112  1.00  0.00    -0.368 A  
HETATM   13  C   UNL     1     -10.311  19.403  65.852  1.00  0.00    -0.536 A  
HETATM   14  C   UNL     1      -9.990  18.466  68.452  1.00  0.00    -0.406 A  
HETATM   15  C   UNL     1     -10.129  20.307  66.892  1.00  0.00    -0.565 A  
HETATM   16  C   UNL     1      -9.993  19.841  68.196  1.00  0.00    -0.557 A  
ENDBRANCH   8  11
BRANCH  10  17
HETATM   17  C   UNL     1     -10.800  13.745  68.457  1.00  0.00    -0.263 C  
HETATM   18  N   UNL     1     -12.067  13.034  68.478  1.00  0.00    -0.240 NA 
HETATM   19  H2  UNL     1     -12.395  12.815  67.537  1.00  0.00     0.000 HD 
HETATM   20  H1  UNL     1     -11.999  12.200  69.060  1.00  0.00     0.000 HD 
ENDBRANCH  10  17
ENDBRANCH   5   8
ENDBRANCH   2   3
TORSDOF 5
ENDMDL
MODEL      114
REMARK 921   NORMALIZED FREE ENERGY PREDICTED BY IDOCK:   -3.55 KCAL/MOL
REMARK 922        TOTAL FREE ENERGY PREDICTED BY IDOCK:   -5.07 KCAL/MOL
REMARK 923 INTER-LIGAND FREE ENERGY PREDICTED BY IDOCK:   -4.58 KCAL/MOL
REMARK 924 INTRA-LIGAND FREE ENERGY PREDICTED BY IDOCK:   -0.49 KCAL/MOL
REMARK 927      BINDING AFFINITY PREDICTED BY RF-SCORE:    0.00 PKD
ROOT
HETATM    1  C   UNL     1      -6.362  10.808  65.967  1.00  0.00    -0.126 C  
HETATM    2  C   UNL     1      -7.773  10.456  66.400  1.00  0.00    -0.125 C  
ENDROOT
BRANCH   2   3
HETATM    3  N   UNL     1      -8.403  11.481  67.234  1.00  0.00    -0.147 N  
HETATM    4  O   UNL     1     -10.116  11.701  65.684  1.00  0.00    -0.222 OA 
HETATM    5  C   UNL     1      -9.590  12.049  66.738  1.00  0.00    -0.208 C  
BRANCH   3   6
HETATM    6  C   UNL     1      -7.636  12.119  68.308  1.00  0.00    -0.132 C  
HETATM    7  C   UNL     1      -7.102  11.230  69.417  1.00  0.00    -0.090 C  
ENDBRANCH   3   6
BRANCH   5   8
HETATM    8  C   UNL     1     -10.275  13.127  67.570  1.00  0.00    -0.225 C  
HETATM    9  C   UNL     1     -11.810  13.125  67.552  1.00  0.00    -0.409 C  
HETATM   10  C   UNL     1     -11.096  12.688  68.796  1.00  0.00    -0.307 C  
BRANCH   8  11
HETATM   11  C   UNL     1      -9.610  14.509  67.485  1.00  0.00    -0.210 A  
HETATM   12  C   UNL     1      -9.516  15.307  68.640  1.00  0.00    -0.204 A  
HETATM   13  C   UNL     1      -9.158  16.655  68.570  1.00  0.00    -0.234 A  
HETATM   14  C   UNL     1      -9.220  15.094  66.268  1.00  0.00    -0.336 A  
HETATM   15  C   UNL     1      -8.867  17.232  67.340  1.00  0.00    -0.222 A  
HETATM   16  C   UNL     1      -8.874  16.447  66.190  1.00  0.00    -0.349 A  
ENDBRANCH   8  11
BRANCH  10  17
HETATM   17  C   UNL     1     -11.117  11.253  69.237  1.00  0.00    -0.255 C  
HETATM   18  N   UNL     1     -12.324  10.594  68.769  1.00  0.00    -0.784 NA 
HETATM   19  H2  UNL     1     -12.437  10.682  67.760  1.00  0.00     0.000 HD 
HETATM   20  H1  UNL     1     -12.339   9.620  69.069  1.00  0.00     0.000 HD 
ENDBRANCH  10  17
ENDBRANCH   5   8
ENDBRANCH   2   3
TORSDOF 5
ENDMDL
MODEL      115
REMARK 921   NORMALIZED FREE ENERGY PREDICTED BY IDOCK:   -3.54 KCAL/MOL
REMARK 922        TOTAL FREE ENERGY PREDICTED BY IDOCK:   -5.07 KCAL/MOL
REMARK 923 INTER-LIGAND FREE ENERGY PREDICTED BY IDOCK:   -5.20 KCAL/MOL
REMARK 924 INTRA-LIGAND FREE ENERGY PREDICTED BY IDOCK:    0.13 KCAL/MOL
REMARK 927      BINDING AFFINITY PREDICTED BY RF-SCORE:    0.00 PKD
ROOT
HETATM    1  C   UNL     1      -6.869  13.725  68.687  1.00  0.00    -0.102 C  
HETATM    2  C   UNL     1      -7.252  15.165  68.975  1.00  0.00    -0.149 C  
ENDROOT
BRANCH   2   3
HETATM    3  N   UNL     1      -8.513  15.572  68.351  1.00  0.00    -0.158 N  
HETATM    4  O   UNL     1      -7.344  16.473  66.559  1.00  0.00    -0.240 OA 
HETATM    5  C   UNL     1      -8.412  16.250  67.123  1.00  0.00    -0.187 C  
BRANCH   3   6
HETATM    6  C   UNL     1      -9.743  15.599  69.146  1.00  0.00    -0.249 C  
HETATM    7  C   UNL     1     -10.660  14.391  69.068  1.00  0.00    -0.245 C  
ENDBRANCH   3   6
BRANCH   5   8
HETATM    8  C   UNL     1      -9.700  16.700  66.442  1.00  0.00    -0.306 C  
HETATM    9  C   UNL     1     -10.660  17.541  67.294  1.00  0.00    -0.287 C  
HETATM   10  C   UNL     1      -9.900  18.204  66.185  1.00  0.00    -0.255 C  
BRANCH   8  11
HETATM   11  C   UNL     1     -10.358  15.626  65.562  1.00  0.00    -0.421 A  
HETATM   12  C   UNL     1     -11.497  15.952  64.804  1.00  0.00    -0.235 A  
HETATM   13  C   UNL     1     -12.277  14.966  64.194  1.00  0.00    -0.280 A  
HETATM   14  C   UNL     1      -9.970  14.276  65.588  1.00  0.00    -0.346 A  
HETATM   15  C   UNL     1     -11.921  13.628  64.315  1.00  0.00    -0.488 A  
HETATM   16  C   UNL     1     -10.754  13.283  64.992  1.00  0.00    -0.346 A  
ENDBRANCH   8  11
BRANCH  10  17
HETATM   17  C   UNL     1      -8.806  19.189  66.477  1.00  0.00    -0.334 C  
HETATM   18  N   UNL     1      -9.170  20.512  65.997  1.00  0.00    -0.568 NA 
HETATM   19  H2  UNL     1     -10.066  20.818  66.375  1.00  0.00     0.000 HD 
HETATM   20  H1  UNL     1      -8.426  21.181  66.195  1.00  0.00     0.000 HD 
ENDBRANCH  10  17
ENDBRANCH   5   8
ENDBRANCH   2   3
TORSDOF 5
ENDMDL
MODEL      116
REMARK 921   NORMALIZED FREE ENERGY PREDICTED BY IDOCK:   -3.54 KCAL/MOL
REMARK 922        TOTAL FREE ENERGY PREDICTED BY IDOCK:   -5.06 KCAL/MOL
REMARK 923 INTER-LIGAND FREE ENERGY PREDICTED BY IDOCK:   -4.75 KCAL/MOL
REMARK 924 INTRA-LIGAND FREE ENERGY PREDICTED BY IDOCK:   -0.31 KCAL/MOL
REMARK 927      BINDING AFFINITY PREDICTED BY RF-SCORE:    0.00 PKD
ROOT
HETATM    1  C   UNL     1     -10.778   7.321  66.914  1.00  0.00    -0.346 C  
HETATM    2  C   UNL     1      -9.817   6.693  67.907  1.00  0.00    -0.124 C  
ENDROOT
BRANCH   2   3
HETATM    3  N   UNL     1      -9.967   7.205  69.270  1.00  0.00    -0.165 N  
HETATM    4  O   UNL     1     -10.471   5.068  70.025  1.00  0.00    -0.276 OA 
HETATM    5  C   UNL     1     -10.323   6.265  70.255  1.00  0.00    -0.205 C  
BRANCH   3   6
HETATM    6  C   UNL     1     -10.107   8.646  69.497  1.00  0.00    -0.203 C  
HETATM    7  C   UNL     1      -8.836   9.468  69.614  1.00  0.00    -0.196 C  
ENDBRANCH   3   6
BRANCH   5   8
HETATM    8  C   UNL     1     -10.498   6.756  71.688  1.00  0.00    -0.231 C  
HETATM    9  C   UNL     1     -10.111   5.768  72.796  1.00  0.00    -0.202 C  
HETATM   10  C   UNL     1      -9.237   6.961  72.547  1.00  0.00    -0.149 C  
BRANCH   8  11
HETATM   11  C   UNL     1     -11.789   7.554  71.929  1.00  0.00    -0.331 A  
HETATM   12  C   UNL     1     -13.035   6.948  71.687  1.00  0.00    -0.359 A  
HETATM   13  C   UNL     1     -14.216   7.694  71.644  1.00  0.00    -0.578 A  
HETATM   14  C   UNL     1     -11.791   8.926  72.236  1.00  0.00    -0.365 A  
HETATM   15  C   UNL     1     -14.176   9.067  71.860  1.00  0.00    -0.357 A  
HETATM   16  C   UNL     1     -12.968   9.680  72.180  1.00  0.00    -0.493 A  
ENDBRANCH   8  11
BRANCH  10  17
HETATM   17  C   UNL     1      -7.867   6.806  71.954  1.00  0.00    -0.097 C  
HETATM   18  N   UNL     1      -6.942   6.279  72.943  1.00  0.00    -0.078 NA 
HETATM   19  H2  UNL     1      -7.279   5.407  73.351  1.00  0.00     0.000 HD 
HETATM   20  H1  UNL     1      -6.010   6.175  72.540  1.00  0.00     0.000 HD 
ENDBRANCH  10  17
ENDBRANCH   5   8
ENDBRANCH   2   3
TORSDOF 5
ENDMDL
MODEL      117
REMARK 921   NORMALIZED FREE ENERGY PREDICTED BY IDOCK:   -3.50 KCAL/MOL
REMARK 922        TOTAL FREE ENERGY PREDICTED BY IDOCK:   -5.02 KCAL/MOL
REMARK 923 INTER-LIGAND FREE ENERGY PREDICTED BY IDOCK:   -4.79 KCAL/MOL
REMARK 924 INTRA-LIGAND FREE ENERGY PREDICTED BY IDOCK:   -0.22 KCAL/MOL
REMARK 927      BINDING AFFINITY PREDICTED BY RF-SCORE:    0.00 PKD
ROOT
HETATM    1  C   UNL     1      -6.656   7.034  72.882  1.00  0.00    -0.064 C  
HETATM    2  C   UNL     1      -7.693   8.142  72.854  1.00  0.00    -0.140 C  
ENDROOT
BRANCH   2   3
HETATM    3  N   UNL     1      -8.811   7.876  71.947  1.00  0.00    -0.121 N  
HETATM    4  O   UNL     1      -9.805   6.528  73.554  1.00  0.00    -0.164 OA 
HETATM    5  C   UNL     1      -9.816   7.016  72.427  1.00  0.00    -0.153 C  
BRANCH   3   6
HETATM    6  C   UNL     1      -8.680   8.183  70.520  1.00  0.00    -0.135 C  
HETATM    7  C   UNL     1      -8.929   9.615  70.081  1.00  0.00    -0.273 C  
ENDBRANCH   3   6
BRANCH   5   8
HETATM    8  C   UNL     1     -10.994   6.704  71.512  1.00  0.00    -0.287 C  
HETATM    9  C   UNL     1     -12.312   6.333  72.205  1.00  0.00    -0.193 C  
HETATM   10  C   UNL     1     -12.198   7.664  71.523  1.00  0.00    -0.351 C  
BRANCH   8  11
HETATM   11  C   UNL     1     -10.631   5.864  70.278  1.00  0.00    -0.354 A  
HETATM   12  C   UNL     1      -9.922   4.660  70.443  1.00  0.00    -0.300 A  
HETATM   13  C   UNL     1      -9.350   3.994  69.356  1.00  0.00    -0.243 A  
HETATM   14  C   UNL     1     -10.838   6.312  68.962  1.00  0.00    -0.400 A  
HETATM   15  C   UNL     1      -9.492   4.511  68.074  1.00  0.00    -0.197 A  
HETATM   16  C   UNL     1     -10.256   5.657  67.872  1.00  0.00    -0.234 A  
ENDBRANCH   8  11
BRANCH  10  17
HETATM   17  C   UNL     1     -12.161   8.939  72.314  1.00  0.00    -0.322 C  
HETATM   18  N   UNL     1     -13.340   9.049  73.157  1.00  0.00    -0.861 NA 
HETATM   19  H2  UNL     1     -13.454   8.233  73.758  1.00  0.00     0.000 HD 
HETATM   20  H1  UNL     1     -13.315   9.916  73.694  1.00  0.00     0.000 HD 
ENDBRANCH  10  17
ENDBRANCH   5   8
ENDBRANCH   2   3
TORSDOF 5
ENDMDL
MODEL      118
REMARK 921   NORMALIZED FREE ENERGY PREDICTED BY IDOCK:   -3.50 KCAL/MOL
REMARK 922        TOTAL FREE ENERGY PREDICTED BY IDOCK:   -5.01 KCAL/MOL
REMARK 923 INTER-LIGAND FREE ENERGY PREDICTED BY IDOCK:   -4.40 KCAL/MOL
REMARK 924 INTRA-LIGAND FREE ENERGY PREDICTED BY IDOCK:   -0.62 KCAL/MOL
REMARK 927      BINDING AFFINITY PREDICTED BY RF-SCORE:    0.00 PKD
ROOT
HETATM    1  C   UNL     1     -11.175  11.522  67.719  1.00  0.00    -0.343 C  
HETATM    2  C   UNL     1     -10.578  11.220  69.082  1.00  0.00    -0.187 C  
ENDROOT
BRANCH   2   3
HETATM    3  N   UNL     1     -10.094   9.845  69.217  1.00  0.00    -0.191 N  
HETATM    4  O   UNL     1     -12.022   9.271  70.375  1.00  0.00    -0.146 OA 
HETATM    5  C   UNL     1     -10.927   8.955  69.919  1.00  0.00    -0.182 C  
BRANCH   3   6
HETATM    6  C   UNL     1      -8.682   9.542  68.967  1.00  0.00    -0.142 C  
HETATM    7  C   UNL     1      -7.650  10.196  69.868  1.00  0.00    -0.174 C  
ENDBRANCH   3   6
BRANCH   5   8
HETATM    8  C   UNL     1     -10.457   7.515  70.092  1.00  0.00    -0.226 C  
HETATM    9  C   UNL     1     -11.532   6.429  69.943  1.00  0.00    -0.483 C  
HETATM   10  C   UNL     1     -10.500   6.584  68.866  1.00  0.00    -0.249 C  
BRANCH   8  11
HETATM   11  C   UNL     1      -9.457   7.309  71.239  1.00  0.00    -0.156 A  
HETATM   12  C   UNL     1      -9.543   8.115  72.389  1.00  0.00    -0.335 A  
HETATM   13  C   UNL     1      -8.520   8.147  73.339  1.00  0.00    -0.303 A  
HETATM   14  C   UNL     1      -8.349   6.450  71.140  1.00  0.00    -0.123 A  
HETATM   15  C   UNL     1      -7.391   7.354  73.167  1.00  0.00    -0.085 A  
HETATM   16  C   UNL     1      -7.315   6.487  72.081  1.00  0.00    -0.091 A  
ENDBRANCH   8  11
BRANCH  10  17
HETATM   17  C   UNL     1     -10.870   7.110  67.510  1.00  0.00    -0.241 C  
HETATM   18  N   UNL     1     -11.275   6.023  66.635  1.00  0.00    -0.742 NA 
HETATM   19  H2  UNL     1     -12.027   5.468  67.044  1.00  0.00     0.000 HD 
HETATM   20  H1  UNL     1     -11.526   6.381  65.714  1.00  0.00     0.000 HD 
ENDBRANCH  10  17
ENDBRANCH   5   8
ENDBRANCH   2   3
TORSDOF 5
ENDMDL
MODEL      119
REMARK 921   NORMALIZED FREE ENERGY PREDICTED BY IDOCK:   -3.49 KCAL/MOL
REMARK 922        TOTAL FREE ENERGY PREDICTED BY IDOCK:   -5.01 KCAL/MOL
REMARK 923 INTER-LIGAND FREE ENERGY PREDICTED BY IDOCK:   -5.12 KCAL/MOL
REMARK 924 INTRA-LIGAND FREE ENERGY PREDICTED BY IDOCK:    0.11 KCAL/MOL
REMARK 927      BINDING AFFINITY PREDICTED BY RF-SCORE:    0.00 PKD
ROOT
HETATM    1  C   UNL     1     -10.865   6.410  67.231  1.00  0.00    -0.463 C  
HETATM    2  C   UNL     1      -9.644   6.234  68.115  1.00  0.00    -0.115 C  
ENDROOT
BRANCH   2   3
HETATM    3  N   UNL     1      -9.898   6.518  69.528  1.00  0.00    -0.151 N  
HETATM    4  O   UNL     1      -8.903   8.602  69.296  1.00  0.00    -0.135 OA 
HETATM    5  C   UNL     1      -9.449   7.763  70.006  1.00  0.00    -0.161 C  
BRANCH   3   6
HETATM    6  C   UNL     1     -10.249   5.426  70.440  1.00  0.00    -0.262 C  
HETATM    7  C   UNL     1      -9.557   4.089  70.238  1.00  0.00    -0.271 C  
ENDBRANCH   3   6
BRANCH   5   8
HETATM    8  C   UNL     1      -9.685   8.097  71.475  1.00  0.00    -0.230 C  
HETATM    9  C   UNL     1      -9.325   7.000  72.486  1.00  0.00    -0.157 C  
HETATM   10  C   UNL     1      -8.460   8.222  72.398  1.00  0.00    -0.252 C  
BRANCH   8  11
HETATM   11  C   UNL     1     -10.995   8.851  71.748  1.00  0.00    -0.431 A  
HETATM   12  C   UNL     1     -12.003   8.236  72.513  1.00  0.00    -0.420 A  
HETATM   13  C   UNL     1     -13.296   8.763  72.579  1.00  0.00    -0.403 A  
HETATM   14  C   UNL     1     -11.309  10.079  71.142  1.00  0.00    -0.397 A  
HETATM   15  C   UNL     1     -13.603   9.931  71.892  1.00  0.00    -0.391 A  
HETATM   16  C   UNL     1     -12.605  10.604  71.192  1.00  0.00    -0.526 A  
ENDBRANCH   8  11
BRANCH  10  17
HETATM   17  C   UNL     1      -7.067   8.146  71.846  1.00  0.00    -0.081 C  
HETATM   18  N   UNL     1      -6.615   9.461  71.423  1.00  0.00    -0.271 NA 
HETATM   19  H2  UNL     1      -6.688  10.147  72.174  1.00  0.00     0.000 HD 
HETATM   20  H1  UNL     1      -5.668   9.409  71.047  1.00  0.00     0.000 HD 
ENDBRANCH  10  17
ENDBRANCH   5   8
ENDBRANCH   2   3
TORSDOF 5
ENDMDL
MODEL      120
REMARK 921   NORMALIZED FREE ENERGY PREDICTED BY IDOCK:   -3.49 KCAL/MOL
REMARK 922        TOTAL FREE ENERGY PREDICTED BY IDOCK:   -5.00 KCAL/MOL
REMARK 923 INTER-LIGAND FREE ENERGY PREDICTED BY IDOCK:   -5.08 KCAL/MOL
REMARK 924 INTRA-LIGAND FREE ENERGY PREDICTED BY IDOCK:    0.08 KCAL/MOL
REMARK 927      BINDING AFFINITY PREDICTED BY RF-SCORE:    0.00 PKD
ROOT
HETATM    1  C   UNL     1     -12.522  11.904  63.279  1.00  0.00    -0.506 C  
HETATM    2  C   UNL     1     -12.669  12.778  64.512  1.00  0.00    -0.328 C  
ENDROOT
BRANCH   2   3
HETATM    3  N   UNL     1     -11.397  13.075  65.173  1.00  0.00    -0.286 N  
HETATM    4  O   UNL     1     -12.000  11.721  66.960  1.00  0.00    -0.610 OA 
HETATM    5  C   UNL     1     -11.192  12.481  66.432  1.00  0.00    -0.306 C  
BRANCH   3   6
HETATM    6  C   UNL     1     -10.585  14.206  64.716  1.00  0.00    -0.418 C  
HETATM    7  C   UNL     1     -11.282  15.541  64.521  1.00  0.00    -0.327 C  
ENDBRANCH   3   6
BRANCH   5   8
HETATM    8  C   UNL     1      -9.885  12.771  67.160  1.00  0.00    -0.216 C  
HETATM    9  C   UNL     1      -9.483  14.248  67.272  1.00  0.00    -0.220 C  
HETATM   10  C   UNL     1      -9.950  13.526  68.500  1.00  0.00    -0.202 C  
BRANCH   8  11
HETATM   11  C   UNL     1      -8.746  11.795  66.828  1.00  0.00    -0.192 A  
HETATM   12  C   UNL     1      -7.511  11.916  67.491  1.00  0.00    -0.136 A  
HETATM   13  C   UNL     1      -6.375  11.231  67.053  1.00  0.00    -0.111 A  
HETATM   14  C   UNL     1      -8.820  10.868  65.773  1.00  0.00    -0.202 A  
HETATM   15  C   UNL     1      -6.456  10.392  65.948  1.00  0.00    -0.123 A  
HETATM   16  C   UNL     1      -7.683  10.190  65.322  1.00  0.00    -0.144 A  
ENDBRANCH   8  11
BRANCH  10  17
HETATM   17  C   UNL     1     -11.269  13.854  69.137  1.00  0.00    -0.269 C  
HETATM   18  N   UNL     1     -11.742  12.734  69.934  1.00  0.00    -0.484 NA 
HETATM   19  H2  UNL     1     -11.051  12.441  70.624  1.00  0.00     0.000 HD 
HETATM   20  H1  UNL     1     -12.639  12.957  70.366  1.00  0.00     0.000 HD 
ENDBRANCH  10  17
ENDBRANCH   5   8
ENDBRANCH   2   3
TORSDOF 5
ENDMDL
MODEL      121
REMARK 921   NORMALIZED FREE ENERGY PREDICTED BY IDOCK:   -3.48 KCAL/MOL
REMARK 922        TOTAL FREE ENERGY PREDICTED BY IDOCK:   -4.99 KCAL/MOL
REMARK 923 INTER-LIGAND FREE ENERGY PREDICTED BY IDOCK:   -4.73 KCAL/MOL
REMARK 924 INTRA-LIGAND FREE ENERGY PREDICTED BY IDOCK:   -0.26 KCAL/MOL
REMARK 927      BINDING AFFINITY PREDICTED BY RF-SCORE:    0.00 PKD
ROOT
HETATM    1  C   UNL     1      -6.631  12.972  67.390  1.00  0.00    -0.115 C  
HETATM    2  C   UNL     1      -7.804  13.092  68.347  1.00  0.00    -0.134 C  
ENDROOT
BRANCH   2   3
HETATM    3  N   UNL     1      -8.154  14.475  68.674  1.00  0.00    -0.147 N  
HETATM    4  O   UNL     1      -9.558  14.565  66.828  1.00  0.00    -0.241 OA 
HETATM    5  C   UNL     1      -9.050  15.117  67.800  1.00  0.00    -0.179 C  
BRANCH   3   6
HETATM    6  C   UNL     1      -7.329  15.231  69.620  1.00  0.00    -0.188 C  
HETATM    7  C   UNL     1      -5.869  15.449  69.266  1.00  0.00    -0.104 C  
ENDBRANCH   3   6
BRANCH   5   8
HETATM    8  C   UNL     1      -9.436  16.562  68.098  1.00  0.00    -0.222 C  
HETATM    9  C   UNL     1     -10.899  16.942  67.832  1.00  0.00    -0.310 C  
HETATM   10  C   UNL     1     -10.422  16.829  69.249  1.00  0.00    -0.331 C  
BRANCH   8  11
HETATM   11  C   UNL     1      -8.389  17.598  67.662  1.00  0.00    -0.226 A  
HETATM   12  C   UNL     1      -8.162  18.734  68.460  1.00  0.00    -0.379 A  
HETATM   13  C   UNL     1      -7.419  19.820  67.992  1.00  0.00    -0.329 A  
HETATM   14  C   UNL     1      -7.742  17.551  66.415  1.00  0.00    -0.332 A  
HETATM   15  C   UNL     1      -6.868  19.784  66.716  1.00  0.00    -0.216 A  
HETATM   16  C   UNL     1      -7.008  18.640  65.935  1.00  0.00    -0.305 A  
ENDBRANCH   8  11
BRANCH  10  17
HETATM   17  C   UNL     1     -10.891  15.714  70.138  1.00  0.00    -0.343 C  
HETATM   18  N   UNL     1     -11.720  16.234  71.212  1.00  0.00    -0.624 NA 
HETATM   19  H2  UNL     1     -12.498  16.788  70.856  1.00  0.00     0.000 HD 
HETATM   20  H1  UNL     1     -12.038  15.476  71.816  1.00  0.00     0.000 HD 
ENDBRANCH  10  17
ENDBRANCH   5   8
ENDBRANCH   2   3
TORSDOF 5
ENDMDL
MODEL      122
REMARK 921   NORMALIZED FREE ENERGY PREDICTED BY IDOCK:   -3.47 KCAL/MOL
REMARK 922        TOTAL FREE ENERGY PREDICTED BY IDOCK:   -4.97 KCAL/MOL
REMARK 923 INTER-LIGAND FREE ENERGY PREDICTED BY IDOCK:   -4.72 KCAL/MOL
REMARK 924 INTRA-LIGAND FREE ENERGY PREDICTED BY IDOCK:   -0.25 KCAL/MOL
REMARK 927      BINDING AFFINITY PREDICTED BY RF-SCORE:    0.00 PKD
ROOT
HETATM    1  C   UNL     1      -7.837   9.933  68.796  1.00  0.00    -0.091 C  
HETATM    2  C   UNL     1      -9.263  10.134  69.274  1.00  0.00    -0.208 C  
ENDROOT
BRANCH   2   3
HETATM    3  N   UNL     1      -9.890   8.910  69.776  1.00  0.00    -0.176 N  
HETATM    4  O   UNL     1      -9.018   9.317  71.887  1.00  0.00    -0.279 OA 
HETATM    5  C   UNL     1      -9.667   8.602  71.130  1.00  0.00    -0.224 C  
BRANCH   3   6
HETATM    6  C   UNL     1     -10.386   7.905  68.831  1.00  0.00    -0.213 C  
HETATM    7  C   UNL     1     -10.626   8.343  67.397  1.00  0.00    -0.313 C  
ENDBRANCH   3   6
BRANCH   5   8
HETATM    8  C   UNL     1     -10.295   7.331  71.692  1.00  0.00    -0.214 C  
HETATM    9  C   UNL     1     -10.705   7.373  73.170  1.00  0.00    -0.436 C  
HETATM   10  C   UNL     1     -11.773   7.376  72.118  1.00  0.00    -0.328 C  
BRANCH   8  11
HETATM   11  C   UNL     1      -9.618   6.033  71.226  1.00  0.00    -0.189 A  
HETATM   12  C   UNL     1      -8.216   5.978  71.127  1.00  0.00    -0.123 A  
HETATM   13  C   UNL     1      -7.569   4.925  70.475  1.00  0.00    -0.062 A  
HETATM   14  C   UNL     1     -10.339   4.929  70.740  1.00  0.00    -0.228 A  
HETATM   15  C   UNL     1      -8.315   3.890  69.922  1.00  0.00    -0.079 A  
HETATM   16  C   UNL     1      -9.699   3.879  70.075  1.00  0.00    -0.242 A  
ENDBRANCH   8  11
BRANCH  10  17
HETATM   17  C   UNL     1     -12.611   8.597  71.868  1.00  0.00    -0.359 C  
HETATM   18  N   UNL     1     -13.543   8.807  72.963  1.00  0.00    -0.959 NA 
HETATM   19  H2  UNL     1     -13.065   8.853  73.863  1.00  0.00     0.000 HD 
HETATM   20  H1  UNL     1     -14.112   9.636  72.793  1.00  0.00     0.000 HD 
ENDBRANCH  10  17
ENDBRANCH   5   8
ENDBRANCH   2   3
TORSDOF 5
ENDMDL
MODEL      123
REMARK 921   NORMALIZED FREE ENERGY PREDICTED BY IDOCK:   -3.46 KCAL/MOL
REMARK 922        TOTAL FREE ENERGY PREDICTED BY IDOCK:   -4.96 KCAL/MOL
REMARK 923 INTER-LIGAND FREE ENERGY PREDICTED BY IDOCK:   -4.45 KCAL/MOL
REMARK 924 INTRA-LIGAND FREE ENERGY PREDICTED BY IDOCK:   -0.51 KCAL/MOL
REMARK 927      BINDING AFFINITY PREDICTED BY RF-SCORE:    0.00 PKD
ROOT
HETATM    1  C   UNL     1      -6.552   9.300  69.892  1.00  0.00    -0.049 C  
HETATM    2  C   UNL     1      -7.758   9.164  70.804  1.00  0.00    -0.141 C  
ENDROOT
BRANCH   2   3
HETATM    3  N   UNL     1      -8.473   7.897  70.642  1.00  0.00    -0.123 N  
HETATM    4  O   UNL     1     -10.433   8.901  71.376  1.00  0.00    -0.250 OA 
HETATM    5  C   UNL     1      -9.836   7.899  70.990  1.00  0.00    -0.170 C  
BRANCH   3   6
HETATM    6  C   UNL     1      -7.720   6.648  70.495  1.00  0.00    -0.104 C  
HETATM    7  C   UNL     1      -6.897   6.177  71.681  1.00  0.00    -0.068 C  
ENDBRANCH   3   6
BRANCH   5   8
HETATM    8  C   UNL     1     -10.618   6.599  70.846  1.00  0.00    -0.263 C  
HETATM    9  C   UNL     1     -12.080   6.732  70.398  1.00  0.00    -0.270 C  
HETATM   10  C   UNL     1     -11.072   6.175  69.438  1.00  0.00    -0.479 C  
BRANCH   8  11
HETATM   11  C   UNL     1     -10.354   5.576  71.962  1.00  0.00    -0.265 A  
HETATM   12  C   UNL     1     -10.123   4.229  71.628  1.00  0.00    -0.216 A  
HETATM   13  C   UNL     1     -10.132   3.223  72.597  1.00  0.00    -0.232 A  
HETATM   14  C   UNL     1     -10.482   5.886  73.326  1.00  0.00    -0.255 A  
HETATM   15  C   UNL     1     -10.354   3.548  73.930  1.00  0.00    -0.236 A  
HETATM   16  C   UNL     1     -10.505   4.882  74.300  1.00  0.00    -0.336 A  
ENDBRANCH   8  11
BRANCH  10  17
HETATM   17  C   UNL     1     -10.648   6.950  68.225  1.00  0.00    -0.215 C  
HETATM   18  N   UNL     1     -11.384   6.505  67.053  1.00  0.00    -0.780 NA 
HETATM   19  H2  UNL     1     -12.392   6.552  67.199  1.00  0.00     0.000 HD 
HETATM   20  H1  UNL     1     -11.095   7.032  66.229  1.00  0.00     0.000 HD 
ENDBRANCH  10  17
ENDBRANCH   5   8
ENDBRANCH   2   3
TORSDOF 5
ENDMDL
MODEL      124
REMARK 921   NORMALIZED FREE ENERGY PREDICTED BY IDOCK:   -3.45 KCAL/MOL
REMARK 922        TOTAL FREE ENERGY PREDICTED BY IDOCK:   -4.95 KCAL/MOL
REMARK 923 INTER-LIGAND FREE ENERGY PREDICTED BY IDOCK:   -4.89 KCAL/MOL
REMARK 924 INTRA-LIGAND FREE ENERGY PREDICTED BY IDOCK:   -0.07 KCAL/MOL
REMARK 927      BINDING AFFINITY PREDICTED BY RF-SCORE:    0.00 PKD
ROOT
HETATM    1  C   UNL     1     -10.065  10.725  63.860  1.00  0.00    -0.397 C  
HETATM    2  C   UNL     1      -9.370  11.223  65.113  1.00  0.00    -0.189 C  
ENDROOT
BRANCH   2   3
HETATM    3  N   UNL     1     -10.294  11.674  66.155  1.00  0.00    -0.233 N  
HETATM    4  O   UNL     1      -8.714  11.180  67.782  1.00  0.00    -0.128 OA 
HETATM    5  C   UNL     1      -9.835  11.580  67.482  1.00  0.00    -0.190 C  
BRANCH   3   6
HETATM    6  C   UNL     1     -11.715  11.845  65.844  1.00  0.00    -0.136 C  
HETATM    7  C   UNL     1     -12.165  13.197  65.319  1.00  0.00    -0.502 C  
ENDBRANCH   3   6
BRANCH   5   8
HETATM    8  C   UNL     1     -10.769  12.030  68.600  1.00  0.00    -0.266 C  
HETATM    9  C   UNL     1     -12.099  11.274  68.719  1.00  0.00    -0.258 C  
HETATM   10  C   UNL     1     -11.040  11.054  69.759  1.00  0.00    -0.303 C  
BRANCH   8  11
HETATM   11  C   UNL     1     -10.851  13.554  68.779  1.00  0.00    -0.279 A  
HETATM   12  C   UNL     1      -9.667  14.312  68.829  1.00  0.00    -0.173 A  
HETATM   13  C   UNL     1      -9.670  15.647  69.240  1.00  0.00    -0.271 A  
HETATM   14  C   UNL     1     -12.055  14.226  69.051  1.00  0.00    -0.320 A  
HETATM   15  C   UNL     1     -10.867  16.260  69.593  1.00  0.00    -0.345 A  
HETATM   16  C   UNL     1     -12.063  15.558  69.476  1.00  0.00    -0.326 A  
ENDBRANCH   8  11
BRANCH  10  17
HETATM   17  C   UNL     1     -10.308   9.748  69.854  1.00  0.00    -0.254 C  
HETATM   18  N   UNL     1      -9.207   9.849  70.797  1.00  0.00    -0.318 NA 
HETATM   19  H2  UNL     1      -9.519  10.177  71.711  1.00  0.00     0.000 HD 
HETATM   20  H1  UNL     1      -8.709   8.961  70.861  1.00  0.00     0.000 HD 
ENDBRANCH  10  17
ENDBRANCH   5   8
ENDBRANCH   2   3
TORSDOF 5
ENDMDL
MODEL      125
REMARK 921   NORMALIZED FREE ENERGY PREDICTED BY IDOCK:   -3.44 KCAL/MOL
REMARK 922        TOTAL FREE ENERGY PREDICTED BY IDOCK:   -4.94 KCAL/MOL
REMARK 923 INTER-LIGAND FREE ENERGY PREDICTED BY IDOCK:   -4.63 KCAL/MOL
REMARK 924 INTRA-LIGAND FREE ENERGY PREDICTED BY IDOCK:   -0.31 KCAL/MOL
REMARK 927      BINDING AFFINITY PREDICTED BY RF-SCORE:    0.00 PKD
ROOT
HETATM    1  C   UNL     1     -11.211   6.403  69.367  1.00  0.00    -0.459 C  
HETATM    2  C   UNL     1     -10.672   7.803  69.597  1.00  0.00    -0.223 C  
ENDROOT
BRANCH   2   3
HETATM    3  N   UNL     1     -10.135   8.429  68.387  1.00  0.00    -0.192 N  
HETATM    4  O   UNL     1      -9.551  10.312  69.612  1.00  0.00    -0.215 OA 
HETATM    5  C   UNL     1      -9.607   9.725  68.535  1.00  0.00    -0.149 C  
BRANCH   3   6
HETATM    6  C   UNL     1     -10.480   7.886  67.071  1.00  0.00    -0.349 C  
HETATM    7  C   UNL     1      -9.566   6.825  66.484  1.00  0.00    -0.191 C  
ENDBRANCH   3   6
BRANCH   5   8
HETATM    8  C   UNL     1      -9.045  10.418  67.300  1.00  0.00    -0.146 C  
HETATM    9  C   UNL     1      -7.859  11.363  67.533  1.00  0.00    -0.126 C  
HETATM   10  C   UNL     1      -7.621  10.053  66.845  1.00  0.00    -0.096 C  
BRANCH   8  11
HETATM   11  C   UNL     1     -10.113  10.921  66.316  1.00  0.00    -0.284 A  
HETATM   12  C   UNL     1      -9.941  10.707  64.936  1.00  0.00    -0.382 A  
HETATM   13  C   UNL     1     -10.739  11.355  63.991  1.00  0.00    -0.450 A  
HETATM   14  C   UNL     1     -11.194  11.727  66.711  1.00  0.00    -0.388 A  
HETATM   15  C   UNL     1     -11.743  12.221  64.408  1.00  0.00    -0.437 A  
HETATM   16  C   UNL     1     -11.988  12.390  65.769  1.00  0.00    -0.437 A  
ENDBRANCH   8  11
BRANCH  10  17
HETATM   17  C   UNL     1      -6.854   8.952  67.519  1.00  0.00    -0.071 C  
HETATM   18  N   UNL     1      -5.426   9.212  67.453  1.00  0.00    -0.041 NA 
HETATM   19  H2  UNL     1      -5.190  10.128  67.835  1.00  0.00     0.000 HD 
HETATM   20  H1  UNL     1      -4.905   8.464  67.911  1.00  0.00     0.000 HD 
ENDBRANCH  10  17
ENDBRANCH   5   8
ENDBRANCH   2   3
TORSDOF 5
ENDMDL
MODEL      126
REMARK 921   NORMALIZED FREE ENERGY PREDICTED BY IDOCK:   -3.44 KCAL/MOL
REMARK 922        TOTAL FREE ENERGY PREDICTED BY IDOCK:   -4.94 KCAL/MOL
REMARK 923 INTER-LIGAND FREE ENERGY PREDICTED BY IDOCK:   -4.37 KCAL/MOL
REMARK 924 INTRA-LIGAND FREE ENERGY PREDICTED BY IDOCK:   -0.57 KCAL/MOL
REMARK 927      BINDING AFFINITY PREDICTED BY RF-SCORE:    0.00 PKD
ROOT
HETATM    1  C   UNL     1     -11.177   5.252  72.891  1.00  0.00    -0.375 C  
HETATM    2  C   UNL     1     -11.847   6.474  72.290  1.00  0.00    -0.258 C  
ENDROOT
BRANCH   2   3
HETATM    3  N   UNL     1     -11.102   7.061  71.175  1.00  0.00    -0.250 N  
HETATM    4  O   UNL     1     -10.108   8.576  72.625  1.00  0.00    -0.282 OA 
HETATM    5  C   UNL     1     -10.260   8.144  71.486  1.00  0.00    -0.206 C  
BRANCH   3   6
HETATM    6  C   UNL     1     -11.508   6.775  69.796  1.00  0.00    -0.263 C  
HETATM    7  C   UNL     1     -10.835   5.611  69.090  1.00  0.00    -0.281 C  
ENDBRANCH   3   6
BRANCH   5   8
HETATM    8  C   UNL     1      -9.472   8.792  70.353  1.00  0.00    -0.206 C  
HETATM    9  C   UNL     1      -8.096   9.361  70.723  1.00  0.00    -0.157 C  
HETATM   10  C   UNL     1      -8.168   8.114  69.894  1.00  0.00    -0.118 C  
BRANCH   8  11
HETATM   11  C   UNL     1     -10.319   9.658  69.409  1.00  0.00    -0.226 A  
HETATM   12  C   UNL     1      -9.942   9.787  68.059  1.00  0.00    -0.185 A  
HETATM   13  C   UNL     1     -10.518  10.750  67.227  1.00  0.00    -0.282 A  
HETATM   14  C   UNL     1     -11.379  10.464  69.858  1.00  0.00    -0.370 A  
HETATM   15  C   UNL     1     -11.501  11.598  67.726  1.00  0.00    -0.373 A  
HETATM   16  C   UNL     1     -11.950  11.440  69.034  1.00  0.00    -0.387 A  
ENDBRANCH   8  11
BRANCH  10  17
HETATM   17  C   UNL     1      -7.751   6.786  70.454  1.00  0.00    -0.100 C  
HETATM   18  N   UNL     1      -6.589   6.939  71.313  1.00  0.00    -0.048 NA 
HETATM   19  H2  UNL     1      -6.750   7.627  72.049  1.00  0.00     0.000 HD 
HETATM   20  H1  UNL     1      -6.305   6.036  71.694  1.00  0.00     0.000 HD 
ENDBRANCH  10  17
ENDBRANCH   5   8
ENDBRANCH   2   3
TORSDOF 5
ENDMDL
MODEL      127
REMARK 921   NORMALIZED FREE ENERGY PREDICTED BY IDOCK:   -3.44 KCAL/MOL
REMARK 922        TOTAL FREE ENERGY PREDICTED BY IDOCK:   -4.94 KCAL/MOL
REMARK 923 INTER-LIGAND FREE ENERGY PREDICTED BY IDOCK:   -4.75 KCAL/MOL
REMARK 924 INTRA-LIGAND FREE ENERGY PREDICTED BY IDOCK:   -0.18 KCAL/MOL
REMARK 927      BINDING AFFINITY PREDICTED BY RF-SCORE:    0.00 PKD
ROOT
HETATM    1  C   UNL     1      -9.915  11.841  63.249  1.00  0.00    -0.435 C  
HETATM    2  C   UNL     1     -10.824  11.257  64.314  1.00  0.00    -0.328 C  
ENDROOT
BRANCH   2   3
HETATM    3  N   UNL     1     -10.361  11.505  65.680  1.00  0.00    -0.251 N  
HETATM    4  O   UNL     1     -12.391  12.505  66.196  1.00  0.00    -0.596 OA 
HETATM    5  C   UNL     1     -11.260  12.169  66.534  1.00  0.00    -0.328 C  
BRANCH   3   6
HETATM    6  C   UNL     1      -8.934  11.403  65.995  1.00  0.00    -0.197 C  
HETATM    7  C   UNL     1      -8.309  10.019  65.998  1.00  0.00    -0.126 C  
ENDBRANCH   3   6
BRANCH   5   8
HETATM    8  C   UNL     1     -10.815  12.456  67.964  1.00  0.00    -0.251 C  
HETATM    9  C   UNL     1     -11.861  12.215  69.061  1.00  0.00    -0.361 C  
HETATM   10  C   UNL     1     -10.701  11.272  68.942  1.00  0.00    -0.246 C  
BRANCH   8  11
HETATM   11  C   UNL     1      -9.969  13.728  68.120  1.00  0.00    -0.242 A  
HETATM   12  C   UNL     1      -8.596  13.618  68.409  1.00  0.00    -0.151 A  
HETATM   13  C   UNL     1      -7.842  14.724  68.808  1.00  0.00    -0.146 A  
HETATM   14  C   UNL     1     -10.527  15.018  68.139  1.00  0.00    -0.245 A  
HETATM   15  C   UNL     1      -8.443  15.973  68.909  1.00  0.00    -0.232 A  
HETATM   16  C   UNL     1      -9.780  16.126  68.552  1.00  0.00    -0.217 A  
ENDBRANCH   8  11
BRANCH  10  17
HETATM   17  C   UNL     1     -10.895   9.861  68.470  1.00  0.00    -0.217 C  
HETATM   18  N   UNL     1     -10.020   8.956  69.196  1.00  0.00    -0.184 NA 
HETATM   19  H2  UNL     1     -10.143   9.039  70.205  1.00  0.00     0.000 HD 
HETATM   20  H1  UNL     1     -10.152   7.997  68.875  1.00  0.00     0.000 HD 
ENDBRANCH  10  17
ENDBRANCH   5   8
ENDBRANCH   2   3
TORSDOF 5
ENDMDL
MODEL      128
REMARK 921   NORMALIZED FREE ENERGY PREDICTED BY IDOCK:   -3.44 KCAL/MOL
REMARK 922        TOTAL FREE ENERGY PREDICTED BY IDOCK:   -4.93 KCAL/MOL
REMARK 923 INTER-LIGAND FREE ENERGY PREDICTED BY IDOCK:   -4.84 KCAL/MOL
REMARK 924 INTRA-LIGAND FREE ENERGY PREDICTED BY IDOCK:   -0.09 KCAL/MOL
REMARK 927      BINDING AFFINITY PREDICTED BY RF-SCORE:    0.00 PKD
ROOT
HETATM    1  C   UNL     1      -7.008   8.173  67.535  1.00  0.00    -0.075 C  
HETATM    2  C   UNL     1      -7.748   7.944  68.840  1.00  0.00    -0.105 C  
ENDROOT
BRANCH   2   3
HETATM    3  N   UNL     1      -9.095   8.518  68.859  1.00  0.00    -0.146 N  
HETATM    4  O   UNL     1      -8.279  10.416  69.917  1.00  0.00    -0.110 OA 
HETATM    5  C   UNL     1      -9.226   9.784  69.458  1.00  0.00    -0.213 C  
BRANCH   3   6
HETATM    6  C   UNL     1     -10.256   7.660  68.613  1.00  0.00    -0.199 C  
HETATM    7  C   UNL     1     -10.383   7.021  67.241  1.00  0.00    -0.331 C  
ENDBRANCH   3   6
BRANCH   5   8
HETATM    8  C   UNL     1     -10.613  10.417  69.507  1.00  0.00    -0.274 C  
HETATM    9  C   UNL     1     -10.686  11.916  69.188  1.00  0.00    -0.143 C  
HETATM   10  C   UNL     1     -11.224  10.933  68.192  1.00  0.00    -0.363 C  
BRANCH   8  11
HETATM   11  C   UNL     1     -11.482   9.942  70.681  1.00  0.00    -0.411 A  
HETATM   12  C   UNL     1     -10.950   9.040  71.620  1.00  0.00    -0.435 A  
HETATM   13  C   UNL     1     -11.762   8.386  72.549  1.00  0.00    -0.429 A  
HETATM   14  C   UNL     1     -12.850  10.246  70.788  1.00  0.00    -0.427 A  
HETATM   15  C   UNL     1     -13.130   8.636  72.570  1.00  0.00    -0.339 A  
HETATM   16  C   UNL     1     -13.672   9.584  71.707  1.00  0.00    -0.385 A  
ENDBRANCH   8  11
BRANCH  10  17
HETATM   17  C   UNL     1     -10.533  10.705  66.879  1.00  0.00    -0.249 C  
HETATM   18  N   UNL     1      -9.938  11.939  66.396  1.00  0.00    -0.209 NA 
HETATM   19  H2  UNL     1      -9.312  12.353  67.086  1.00  0.00     0.000 HD 
HETATM   20  H1  UNL     1      -9.469  11.784  65.503  1.00  0.00     0.000 HD 
ENDBRANCH  10  17
ENDBRANCH   5   8
ENDBRANCH   2   3
TORSDOF 5
ENDMDL
MODEL      129
REMARK 921   NORMALIZED FREE ENERGY PREDICTED BY IDOCK:   -3.43 KCAL/MOL
REMARK 922        TOTAL FREE ENERGY PREDICTED BY IDOCK:   -4.93 KCAL/MOL
REMARK 923 INTER-LIGAND FREE ENERGY PREDICTED BY IDOCK:   -4.28 KCAL/MOL
REMARK 924 INTRA-LIGAND FREE ENERGY PREDICTED BY IDOCK:   -0.65 KCAL/MOL
REMARK 927      BINDING AFFINITY PREDICTED BY RF-SCORE:    0.00 PKD
ROOT
HETATM    1  C   UNL     1     -13.181   9.819  71.991  1.00  0.00    -0.557 C  
HETATM    2  C   UNL     1     -12.577   8.496  72.424  1.00  0.00    -0.348 C  
ENDROOT
BRANCH   2   3
HETATM    3  N   UNL     1     -11.382   8.122  71.665  1.00  0.00    -0.253 N  
HETATM    4  O   UNL     1     -12.654   6.688  70.356  1.00  0.00    -0.104 OA 
HETATM    5  C   UNL     1     -11.562   7.170  70.645  1.00  0.00    -0.314 C  
BRANCH   3   6
HETATM    6  C   UNL     1     -10.053   8.438  72.195  1.00  0.00    -0.306 C  
HETATM    7  C   UNL     1      -9.643   7.786  73.504  1.00  0.00    -0.332 C  
ENDBRANCH   3   6
BRANCH   5   8
HETATM    8  C   UNL     1     -10.343   6.745  69.834  1.00  0.00    -0.229 C  
HETATM    9  C   UNL     1     -10.571   6.521  68.333  1.00  0.00    -0.296 C  
HETATM   10  C   UNL     1      -9.793   7.722  68.780  1.00  0.00    -0.171 C  
BRANCH   8  11
HETATM   11  C   UNL     1      -9.450   5.709  70.534  1.00  0.00    -0.203 A  
HETATM   12  C   UNL     1     -10.041   4.680  71.289  1.00  0.00    -0.245 A  
HETATM   13  C   UNL     1      -9.285   3.874  72.144  1.00  0.00    -0.167 A  
HETATM   14  C   UNL     1      -8.050   5.821  70.587  1.00  0.00    -0.117 A  
HETATM   15  C   UNL     1      -7.912   4.069  72.247  1.00  0.00    -0.081 A  
HETATM   16  C   UNL     1      -7.290   5.026  71.450  1.00  0.00    -0.077 A  
ENDBRANCH   8  11
BRANCH  10  17
HETATM   17  C   UNL     1     -10.357   9.106  68.643  1.00  0.00    -0.209 C  
HETATM   18  N   UNL     1     -10.658   9.397  67.251  1.00  0.00    -0.265 NA 
HETATM   19  H2  UNL     1     -11.273   8.694  66.841  1.00  0.00     0.000 HD 
HETATM   20  H1  UNL     1     -11.041  10.338  67.157  1.00  0.00     0.000 HD 
ENDBRANCH  10  17
ENDBRANCH   5   8
ENDBRANCH   2   3
TORSDOF 5
ENDMDL
MODEL      130
REMARK 921   NORMALIZED FREE ENERGY PREDICTED BY IDOCK:   -3.43 KCAL/MOL
REMARK 922        TOTAL FREE ENERGY PREDICTED BY IDOCK:   -4.92 KCAL/MOL
REMARK 923 INTER-LIGAND FREE ENERGY PREDICTED BY IDOCK:   -5.04 KCAL/MOL
REMARK 924 INTRA-LIGAND FREE ENERGY PREDICTED BY IDOCK:    0.12 KCAL/MOL
REMARK 927      BINDING AFFINITY PREDICTED BY RF-SCORE:    0.00 PKD
ROOT
HETATM    1  C   UNL     1     -12.591  12.780  64.982  1.00  0.00    -0.538 C  
HETATM    2  C   UNL     1     -12.774  13.957  65.922  1.00  0.00    -0.421 C  
ENDROOT
BRANCH   2   3
HETATM    3  N   UNL     1     -11.602  14.228  66.756  1.00  0.00    -0.374 N  
HETATM    4  O   UNL     1     -10.474  15.070  64.910  1.00  0.00    -0.405 OA 
HETATM    5  C   UNL     1     -10.485  14.783  66.103  1.00  0.00    -0.304 C  
BRANCH   3   6
HETATM    6  C   UNL     1     -11.489  13.609  68.079  1.00  0.00    -0.310 C  
HETATM    7  C   UNL     1     -11.643  12.101  68.167  1.00  0.00    -0.397 C  
ENDBRANCH   3   6
BRANCH   5   8
HETATM    8  C   UNL     1      -9.239  15.074  66.932  1.00  0.00    -0.265 C  
HETATM    9  C   UNL     1      -8.522  16.398  66.636  1.00  0.00    -0.306 C  
HETATM   10  C   UNL     1      -9.282  16.254  67.920  1.00  0.00    -0.201 C  
BRANCH   8  11
HETATM   11  C   UNL     1      -8.328  13.857  67.151  1.00  0.00    -0.171 A  
HETATM   12  C   UNL     1      -7.079  14.029  67.775  1.00  0.00    -0.183 A  
HETATM   13  C   UNL     1      -6.113  13.019  67.771  1.00  0.00    -0.151 A  
HETATM   14  C   UNL     1      -8.609  12.588  66.618  1.00  0.00    -0.057 A  
HETATM   15  C   UNL     1      -6.386  11.803  67.154  1.00  0.00    -0.145 A  
HETATM   16  C   UNL     1      -7.642  11.577  66.599  1.00  0.00    -0.088 A  
ENDBRANCH   8  11
BRANCH  10  17
HETATM   17  C   UNL     1     -10.553  17.016  68.158  1.00  0.00    -0.369 C  
HETATM   18  N   UNL     1     -11.016  16.820  69.521  1.00  0.00    -0.358 NA 
HETATM   19  H2  UNL     1     -10.298  17.059  70.204  1.00  0.00     0.000 HD 
HETATM   20  H1  UNL     1     -11.880  17.337  69.682  1.00  0.00     0.000 HD 
ENDBRANCH  10  17
ENDBRANCH   5   8
ENDBRANCH   2   3
TORSDOF 5
ENDMDL
MODEL      131
REMARK 921   NORMALIZED FREE ENERGY PREDICTED BY IDOCK:   -3.42 KCAL/MOL
REMARK 922        TOTAL FREE ENERGY PREDICTED BY IDOCK:   -4.91 KCAL/MOL
REMARK 923 INTER-LIGAND FREE ENERGY PREDICTED BY IDOCK:   -4.60 KCAL/MOL
REMARK 924 INTRA-LIGAND FREE ENERGY PREDICTED BY IDOCK:   -0.32 KCAL/MOL
REMARK 927      BINDING AFFINITY PREDICTED BY RF-SCORE:    0.00 PKD
ROOT
HETATM    1  C   UNL     1      -6.445  12.695  68.895  1.00  0.00    -0.091 C  
HETATM    2  C   UNL     1      -6.891  12.857  67.453  1.00  0.00    -0.128 C  
ENDROOT
BRANCH   2   3
HETATM    3  N   UNL     1      -7.969  11.944  67.068  1.00  0.00    -0.164 N  
HETATM    4  O   UNL     1      -9.542  13.571  67.584  1.00  0.00    -0.210 OA 
HETATM    5  C   UNL     1      -9.281  12.433  67.202  1.00  0.00    -0.199 C  
BRANCH   3   6
HETATM    6  C   UNL     1      -7.694  10.512  66.923  1.00  0.00    -0.114 C  
HETATM    7  C   UNL     1      -7.240  10.016  65.562  1.00  0.00    -0.133 C  
ENDBRANCH   3   6
BRANCH   5   8
HETATM    8  C   UNL     1     -10.435  11.513  66.821  1.00  0.00    -0.275 C  
HETATM    9  C   UNL     1     -11.748  12.200  66.421  1.00  0.00    -0.394 C  
HETATM   10  C   UNL     1     -10.926  11.528  65.362  1.00  0.00    -0.288 C  
BRANCH   8  11
HETATM   11  C   UNL     1     -10.578  10.274  67.718  1.00  0.00    -0.296 A  
HETATM   12  C   UNL     1     -10.506  10.417  69.116  1.00  0.00    -0.248 A  
HETATM   13  C   UNL     1     -10.375   9.310  69.958  1.00  0.00    -0.245 A  
HETATM   14  C   UNL     1     -10.625   8.965  67.208  1.00  0.00    -0.304 A  
HETATM   15  C   UNL     1     -10.331   8.030  69.419  1.00  0.00    -0.217 A  
HETATM   16  C   UNL     1     -10.481   7.854  68.046  1.00  0.00    -0.245 A  
ENDBRANCH   8  11
BRANCH  10  17
HETATM   17  C   UNL     1     -10.208  12.329  64.315  1.00  0.00    -0.330 C  
HETATM   18  N   UNL     1     -11.043  12.489  63.136  1.00  0.00    -0.715 NA 
HETATM   19  H2  UNL     1     -11.951  12.893  63.366  1.00  0.00     0.000 HD 
HETATM   20  H1  UNL     1     -10.555  13.033  62.424  1.00  0.00     0.000 HD 
ENDBRANCH  10  17
ENDBRANCH   5   8
ENDBRANCH   2   3
TORSDOF 5
ENDMDL
MODEL      132
REMARK 921   NORMALIZED FREE ENERGY PREDICTED BY IDOCK:   -3.42 KCAL/MOL
REMARK 922        TOTAL FREE ENERGY PREDICTED BY IDOCK:   -4.91 KCAL/MOL
REMARK 923 INTER-LIGAND FREE ENERGY PREDICTED BY IDOCK:   -4.22 KCAL/MOL
REMARK 924 INTRA-LIGAND FREE ENERGY PREDICTED BY IDOCK:   -0.69 KCAL/MOL
REMARK 927      BINDING AFFINITY PREDICTED BY RF-SCORE:    0.00 PKD
ROOT
HETATM    1  C   UNL     1     -11.066  13.378  65.751  1.00  0.00    -0.295 C  
HETATM    2  C   UNL     1     -11.295  11.965  66.254  1.00  0.00    -0.334 C  
ENDROOT
BRANCH   2   3
HETATM    3  N   UNL     1     -10.297  11.521  67.228  1.00  0.00    -0.201 N  
HETATM    4  O   UNL     1      -9.688   9.777  65.822  1.00  0.00    -0.234 OA 
HETATM    5  C   UNL     1      -9.556  10.375  66.886  1.00  0.00    -0.172 C  
BRANCH   3   6
HETATM    6  C   UNL     1     -10.352  12.018  68.605  1.00  0.00    -0.196 C  
HETATM    7  C   UNL     1     -11.577  11.671  69.433  1.00  0.00    -0.392 C  
ENDBRANCH   3   6
BRANCH   5   8
HETATM    8  C   UNL     1      -8.511   9.872  67.876  1.00  0.00    -0.121 C  
HETATM    9  C   UNL     1      -7.245   9.251  67.270  1.00  0.00    -0.087 C  
HETATM   10  C   UNL     1      -7.153  10.595  67.930  1.00  0.00    -0.086 C  
BRANCH   8  11
HETATM   11  C   UNL     1      -9.095   9.139  69.093  1.00  0.00    -0.144 A  
HETATM   12  C   UNL     1     -10.168   8.246  68.917  1.00  0.00    -0.222 A  
HETATM   13  C   UNL     1     -10.895   7.753  70.003  1.00  0.00    -0.243 A  
HETATM   14  C   UNL     1      -8.712   9.428  70.414  1.00  0.00    -0.278 A  
HETATM   15  C   UNL     1     -10.551   8.130  71.296  1.00  0.00    -0.258 A  
HETATM   16  C   UNL     1      -9.444   8.948  71.505  1.00  0.00    -0.347 A  
ENDBRANCH   8  11
BRANCH  10  17
HETATM   17  C   UNL     1      -6.908  11.838  67.125  1.00  0.00    -0.148 C  
HETATM   18  N   UNL     1      -6.155  11.525  65.923  1.00  0.00    -0.461 NA 
HETATM   19  H2  UNL     1      -6.609  10.799  65.369  1.00  0.00     0.000 HD 
HETATM   20  H1  UNL     1      -5.988  12.370  65.376  1.00  0.00     0.000 HD 
ENDBRANCH  10  17
ENDBRANCH   5   8
ENDBRANCH   2   3
TORSDOF 5
ENDMDL
MODEL      133
REMARK 921   NORMALIZED FREE ENERGY PREDICTED BY IDOCK:   -3.41 KCAL/MOL
REMARK 922        TOTAL FREE ENERGY PREDICTED BY IDOCK:   -4.90 KCAL/MOL
REMARK 923 INTER-LIGAND FREE ENERGY PREDICTED BY IDOCK:   -5.32 KCAL/MOL
REMARK 924 INTRA-LIGAND FREE ENERGY PREDICTED BY IDOCK:    0.42 KCAL/MOL
REMARK 927      BINDING AFFINITY PREDICTED BY RF-SCORE:    0.00 PKD
ROOT
HETATM    1  C   UNL     1      -8.738  17.065  66.984  1.00  0.00    -0.240 C  
HETATM    2  C   UNL     1      -8.896  15.850  66.089  1.00  0.00    -0.328 C  
ENDROOT
BRANCH   2   3
HETATM    3  N   UNL     1     -10.084  15.050  66.393  1.00  0.00    -0.265 N  
HETATM    4  O   UNL     1      -8.931  13.966  68.090  1.00  0.00    -0.173 OA 
HETATM    5  C   UNL     1      -9.956  14.109  67.431  1.00  0.00    -0.240 C  
BRANCH   3   6
HETATM    6  C   UNL     1     -11.185  14.984  65.427  1.00  0.00    -0.356 C  
HETATM    7  C   UNL     1     -11.303  16.109  64.415  1.00  0.00    -0.210 C  
ENDBRANCH   3   6
BRANCH   5   8
HETATM    8  C   UNL     1     -11.166  13.248  67.775  1.00  0.00    -0.308 C  
HETATM    9  C   UNL     1     -12.035  12.795  66.593  1.00  0.00    -0.411 C  
HETATM   10  C   UNL     1     -11.178  11.785  67.297  1.00  0.00    -0.364 C  
BRANCH   8  11
HETATM   11  C   UNL     1     -11.932  13.705  69.026  1.00  0.00    -0.392 A  
HETATM   12  C   UNL     1     -12.349  15.044  69.135  1.00  0.00    -0.094 A  
HETATM   13  C   UNL     1     -12.815  15.569  70.342  1.00  0.00    -0.327 A  
HETATM   14  C   UNL     1     -12.109  12.884  70.153  1.00  0.00    -0.373 A  
HETATM   15  C   UNL     1     -12.893  14.756  71.467  1.00  0.00    -0.406 A  
HETATM   16  C   UNL     1     -12.563  13.407  71.369  1.00  0.00    -0.374 A  
ENDBRANCH   8  11
BRANCH  10  17
HETATM   17  C   UNL     1      -9.979  11.184  66.624  1.00  0.00    -0.207 C  
HETATM   18  N   UNL     1      -9.997  11.471  65.200  1.00  0.00    -0.252 NA 
HETATM   19  H2  UNL     1     -10.073  12.472  65.016  1.00  0.00     0.000 HD 
HETATM   20  H1  UNL     1      -9.182  11.062  64.742  1.00  0.00     0.000 HD 
ENDBRANCH  10  17
ENDBRANCH   5   8
ENDBRANCH   2   3
TORSDOF 5
ENDMDL
MODEL      134
REMARK 921   NORMALIZED FREE ENERGY PREDICTED BY IDOCK:   -3.41 KCAL/MOL
REMARK 922        TOTAL FREE ENERGY PREDICTED BY IDOCK:   -4.90 KCAL/MOL
REMARK 923 INTER-LIGAND FREE ENERGY PREDICTED BY IDOCK:   -5.14 KCAL/MOL
REMARK 924 INTRA-LIGAND FREE ENERGY PREDICTED BY IDOCK:    0.23 KCAL/MOL
REMARK 927      BINDING AFFINITY PREDICTED BY RF-SCORE:    0.00 PKD
ROOT
HETATM    1  C   UNL     1     -10.354  11.444  65.220  1.00  0.00    -0.336 C  
HETATM    2  C   UNL     1     -11.398  11.924  66.212  1.00  0.00    -0.334 C  
ENDROOT
BRANCH   2   3
HETATM    3  N   UNL     1     -11.173  13.293  66.681  1.00  0.00    -0.299 N  
HETATM    4  O   UNL     1     -10.568  12.487  68.772  1.00  0.00    -0.224 OA 
HETATM    5  C   UNL     1     -10.768  13.437  68.020  1.00  0.00    -0.248 C  
BRANCH   3   6
HETATM    6  C   UNL     1     -11.705  14.423  65.913  1.00  0.00    -0.369 C  
HETATM    7  C   UNL     1     -12.733  14.122  64.837  1.00  0.00    -0.284 C  
ENDBRANCH   3   6
BRANCH   5   8
HETATM    8  C   UNL     1     -10.531  14.846  68.553  1.00  0.00    -0.242 C  
HETATM    9  C   UNL     1     -11.720  15.813  68.466  1.00  0.00    -0.328 C  
HETATM   10  C   UNL     1     -11.304  15.288  69.808  1.00  0.00    -0.306 C  
BRANCH   8  11
HETATM   11  C   UNL     1      -9.162  15.439  68.185  1.00  0.00    -0.186 A  
HETATM   12  C   UNL     1      -9.089  16.742  67.660  1.00  0.00    -0.218 A  
HETATM   13  C   UNL     1      -7.917  17.231  67.078  1.00  0.00    -0.242 A  
HETATM   14  C   UNL     1      -7.976  14.686  68.202  1.00  0.00    -0.136 A  
HETATM   15  C   UNL     1      -6.783  16.429  67.024  1.00  0.00    -0.239 A  
HETATM   16  C   UNL     1      -6.803  15.165  67.608  1.00  0.00    -0.204 A  
ENDBRANCH   8  11
BRANCH  10  17
HETATM   17  C   UNL     1     -12.168  14.321  70.563  1.00  0.00    -0.356 C  
HETATM   18  N   UNL     1     -13.530  14.819  70.655  1.00  0.00    -0.587 NA 
HETATM   19  H2  UNL     1     -13.917  15.036  69.737  1.00  0.00     0.000 HD 
HETATM   20  H1  UNL     1     -14.117  14.162  71.169  1.00  0.00     0.000 HD 
ENDBRANCH  10  17
ENDBRANCH   5   8
ENDBRANCH   2   3
TORSDOF 5
ENDMDL
MODEL      135
REMARK 921   NORMALIZED FREE ENERGY PREDICTED BY IDOCK:   -3.40 KCAL/MOL
REMARK 922        TOTAL FREE ENERGY PREDICTED BY IDOCK:   -4.89 KCAL/MOL
REMARK 923 INTER-LIGAND FREE ENERGY PREDICTED BY IDOCK:   -5.29 KCAL/MOL
REMARK 924 INTRA-LIGAND FREE ENERGY PREDICTED BY IDOCK:    0.40 KCAL/MOL
REMARK 927      BINDING AFFINITY PREDICTED BY RF-SCORE:    0.00 PKD
ROOT
HETATM    1  C   UNL     1      -9.651   6.475  67.198  1.00  0.00    -0.162 C  
HETATM    2  C   UNL     1     -10.534   7.359  68.060  1.00  0.00    -0.199 C  
ENDROOT
BRANCH   2   3
HETATM    3  N   UNL     1     -10.224   7.281  69.489  1.00  0.00    -0.192 N  
HETATM    4  O   UNL     1     -12.435   6.738  69.946  1.00  0.00     0.154 OA 
HETATM    5  C   UNL     1     -11.297   6.971  70.345  1.00  0.00    -0.310 C  
BRANCH   3   6
HETATM    6  C   UNL     1      -8.977   7.858  69.997  1.00  0.00    -0.145 C  
HETATM    7  C   UNL     1      -8.606   9.255  69.534  1.00  0.00    -0.147 C  
ENDBRANCH   3   6
BRANCH   5   8
HETATM    8  C   UNL     1     -11.021   6.888  71.842  1.00  0.00    -0.266 C  
HETATM    9  C   UNL     1     -10.266   8.072  72.460  1.00  0.00    -0.361 C  
HETATM   10  C   UNL     1     -11.723   7.898  72.768  1.00  0.00    -0.338 C  
BRANCH   8  11
HETATM   11  C   UNL     1     -10.590   5.496  72.329  1.00  0.00    -0.276 A  
HETATM   12  C   UNL     1      -9.838   4.665  71.478  1.00  0.00    -0.259 A  
HETATM   13  C   UNL     1      -9.639   3.313  71.764  1.00  0.00    -0.226 A  
HETATM   14  C   UNL     1     -11.039   4.937  73.537  1.00  0.00    -0.405 A  
HETATM   15  C   UNL     1     -10.175   2.764  72.924  1.00  0.00    -0.230 A  
HETATM   16  C   UNL     1     -10.855   3.581  73.823  1.00  0.00    -0.317 A  
ENDBRANCH   8  11
BRANCH  10  17
HETATM   17  C   UNL     1     -12.748   8.854  72.232  1.00  0.00    -0.397 C  
HETATM   18  N   UNL     1     -13.926   8.866  73.082  1.00  0.00    -1.215 NA 
HETATM   19  H2  UNL     1     -13.691   9.069  74.053  1.00  0.00     0.000 HD 
HETATM   20  H1  UNL     1     -14.623   9.515  72.717  1.00  0.00     0.000 HD 
ENDBRANCH  10  17
ENDBRANCH   5   8
ENDBRANCH   2   3
TORSDOF 5
ENDMDL
MODEL      136
REMARK 921   NORMALIZED FREE ENERGY PREDICTED BY IDOCK:   -3.40 KCAL/MOL
REMARK 922        TOTAL FREE ENERGY PREDICTED BY IDOCK:   -4.88 KCAL/MOL
REMARK 923 INTER-LIGAND FREE ENERGY PREDICTED BY IDOCK:   -4.99 KCAL/MOL
REMARK 924 INTRA-LIGAND FREE ENERGY PREDICTED BY IDOCK:    0.11 KCAL/MOL
REMARK 927      BINDING AFFINITY PREDICTED BY RF-SCORE:    0.00 PKD
ROOT
HETATM    1  C   UNL     1      -6.543   9.292  70.866  1.00  0.00    -0.089 C  
HETATM    2  C   UNL     1      -6.969   7.874  71.197  1.00  0.00    -0.049 C  
ENDROOT
BRANCH   2   3
HETATM    3  N   UNL     1      -8.364   7.587  70.856  1.00  0.00    -0.113 N  
HETATM    4  O   UNL     1      -9.004   8.073  73.034  1.00  0.00    -0.195 OA 
HETATM    5  C   UNL     1      -9.301   7.711  71.899  1.00  0.00    -0.145 C  
BRANCH   3   6
HETATM    6  C   UNL     1      -8.679   6.862  69.623  1.00  0.00    -0.141 C  
HETATM    7  C   UNL     1      -8.435   7.574  68.304  1.00  0.00    -0.125 C  
ENDBRANCH   3   6
BRANCH   5   8
HETATM    8  C   UNL     1     -10.764   7.414  71.591  1.00  0.00    -0.239 C  
HETATM    9  C   UNL     1     -11.033   6.215  70.670  1.00  0.00    -0.376 C  
HETATM   10  C   UNL     1     -11.368   6.104  72.128  1.00  0.00    -0.347 C  
BRANCH   8  11
HETATM   11  C   UNL     1     -11.620   8.661  71.327  1.00  0.00    -0.340 A  
HETATM   12  C   UNL     1     -11.189   9.613  70.385  1.00  0.00    -0.342 A  
HETATM   13  C   UNL     1     -11.787  10.872  70.291  1.00  0.00    -0.450 A  
HETATM   14  C   UNL     1     -12.752   8.985  72.095  1.00  0.00    -0.470 A  
HETATM   15  C   UNL     1     -12.847  11.200  71.129  1.00  0.00    -0.473 A  
HETATM   16  C   UNL     1     -13.347  10.249  72.015  1.00  0.00    -0.466 A  
ENDBRANCH   8  11
BRANCH  10  17
HETATM   17  C   UNL     1     -10.581   5.206  73.037  1.00  0.00    -0.230 C  
HETATM   18  N   UNL     1     -10.763   5.601  74.424  1.00  0.00    -0.398 NA 
HETATM   19  H2  UNL     1     -11.749   5.632  74.682  1.00  0.00     0.000 HD 
HETATM   20  H1  UNL     1     -10.227   4.991  75.042  1.00  0.00     0.000 HD 
ENDBRANCH  10  17
ENDBRANCH   5   8
ENDBRANCH   2   3
TORSDOF 5
ENDMDL
MODEL      137
REMARK 921   NORMALIZED FREE ENERGY PREDICTED BY IDOCK:   -3.39 KCAL/MOL
REMARK 922        TOTAL FREE ENERGY PREDICTED BY IDOCK:   -4.87 KCAL/MOL
REMARK 923 INTER-LIGAND FREE ENERGY PREDICTED BY IDOCK:   -4.54 KCAL/MOL
REMARK 924 INTRA-LIGAND FREE ENERGY PREDICTED BY IDOCK:   -0.33 KCAL/MOL
REMARK 927      BINDING AFFINITY PREDICTED BY RF-SCORE:    0.00 PKD
ROOT
HETATM    1  C   UNL     1      -6.844   9.275  71.059  1.00  0.00    -0.091 C  
HETATM    2  C   UNL     1      -6.868   7.759  71.118  1.00  0.00    -0.049 C  
ENDROOT
BRANCH   2   3
HETATM    3  N   UNL     1      -8.215   7.191  71.041  1.00  0.00    -0.108 N  
HETATM    4  O   UNL     1      -8.481   8.091  68.918  1.00  0.00    -0.128 OA 
HETATM    5  C   UNL     1      -8.938   7.454  69.863  1.00  0.00    -0.141 C  
BRANCH   3   6
HETATM    6  C   UNL     1      -8.876   6.716  72.259  1.00  0.00    -0.133 C  
HETATM    7  C   UNL     1      -9.096   7.718  73.379  1.00  0.00    -0.336 C  
ENDBRANCH   3   6
BRANCH   5   8
HETATM    8  C   UNL     1     -10.349   6.890  69.744  1.00  0.00    -0.224 C  
HETATM    9  C   UNL     1     -10.798   6.479  68.335  1.00  0.00    -0.357 C  
HETATM   10  C   UNL     1     -10.510   5.411  69.347  1.00  0.00    -0.331 C  
BRANCH   8  11
HETATM   11  C   UNL     1     -11.399   7.627  70.589  1.00  0.00    -0.288 A  
HETATM   12  C   UNL     1     -12.497   6.917  71.107  1.00  0.00    -0.398 A  
HETATM   13  C   UNL     1     -13.599   7.574  71.658  1.00  0.00    -0.442 A  
HETATM   14  C   UNL     1     -11.404   9.024  70.749  1.00  0.00    -0.329 A  
HETATM   15  C   UNL     1     -13.618   8.963  71.719  1.00  0.00    -0.461 A  
HETATM   16  C   UNL     1     -12.511   9.688  71.287  1.00  0.00    -0.445 A  
ENDBRANCH   8  11
BRANCH  10  17
HETATM   17  C   UNL     1      -9.313   4.515  69.208  1.00  0.00    -0.149 C  
HETATM   18  N   UNL     1      -9.166   3.676  70.385  1.00  0.00    -0.130 NA 
HETATM   19  H2  UNL     1     -10.015   3.147  70.581  1.00  0.00     0.000 HD 
HETATM   20  H1  UNL     1      -8.353   3.068  70.291  1.00  0.00     0.000 HD 
ENDBRANCH  10  17
ENDBRANCH   5   8
ENDBRANCH   2   3
TORSDOF 5
ENDMDL
MODEL      138
REMARK 921   NORMALIZED FREE ENERGY PREDICTED BY IDOCK:   -3.37 KCAL/MOL
REMARK 922        TOTAL FREE ENERGY PREDICTED BY IDOCK:   -4.85 KCAL/MOL
REMARK 923 INTER-LIGAND FREE ENERGY PREDICTED BY IDOCK:   -5.23 KCAL/MOL
REMARK 924 INTRA-LIGAND FREE ENERGY PREDICTED BY IDOCK:    0.38 KCAL/MOL
REMARK 927      BINDING AFFINITY PREDICTED BY RF-SCORE:    0.00 PKD
ROOT
HETATM    1  C   UNL     1     -12.673  14.049  70.269  1.00  0.00    -0.270 C  
HETATM    2  C   UNL     1     -11.563  13.279  69.577  1.00  0.00    -0.286 C  
ENDROOT
BRANCH   2   3
HETATM    3  N   UNL     1     -10.676  14.124  68.776  1.00  0.00    -0.251 N  
HETATM    4  O   UNL     1     -10.095  15.328  70.673  1.00  0.00     0.009 OA 
HETATM    5  C   UNL     1      -9.999  15.149  69.462  1.00  0.00    -0.201 C  
BRANCH   3   6
HETATM    6  C   UNL     1     -10.796  14.128  67.315  1.00  0.00    -0.285 C  
HETATM    7  C   UNL     1     -11.906  13.296  66.697  1.00  0.00    -0.447 C  
ENDBRANCH   3   6
BRANCH   5   8
HETATM    8  C   UNL     1      -9.072  16.058  68.665  1.00  0.00    -0.213 C  
HETATM    9  C   UNL     1      -7.708  16.362  69.300  1.00  0.00    -0.171 C  
HETATM   10  C   UNL     1      -7.769  15.459  68.105  1.00  0.00    -0.126 C  
BRANCH   8  11
HETATM   11  C   UNL     1      -9.775  17.250  67.998  1.00  0.00    -0.277 A  
HETATM   12  C   UNL     1      -9.979  17.246  66.606  1.00  0.00    -0.296 A  
HETATM   13  C   UNL     1     -10.376  18.397  65.922  1.00  0.00    -0.322 A  
HETATM   14  C   UNL     1     -10.097  18.430  68.690  1.00  0.00    -0.407 A  
HETATM   15  C   UNL     1     -10.598  19.578  66.622  1.00  0.00    -0.583 A  
HETATM   16  C   UNL     1     -10.482  19.590  68.009  1.00  0.00    -0.528 A  
ENDBRANCH   8  11
BRANCH  10  17
HETATM   17  C   UNL     1      -7.481  13.991  68.227  1.00  0.00    -0.123 C  
HETATM   18  N   UNL     1      -6.447  13.595  67.285  1.00  0.00    -0.447 NA 
HETATM   19  H2  UNL     1      -5.603  14.158  67.390  1.00  0.00     0.000 HD 
HETATM   20  H1  UNL     1      -6.252  12.598  67.368  1.00  0.00     0.000 HD 
ENDBRANCH  10  17
ENDBRANCH   5   8
ENDBRANCH   2   3
TORSDOF 5
ENDMDL
MODEL      139
REMARK 921   NORMALIZED FREE ENERGY PREDICTED BY IDOCK:   -3.35 KCAL/MOL
REMARK 922        TOTAL FREE ENERGY PREDICTED BY IDOCK:   -4.82 KCAL/MOL
REMARK 923 INTER-LIGAND FREE ENERGY PREDICTED BY IDOCK:   -4.81 KCAL/MOL
REMARK 924 INTRA-LIGAND FREE ENERGY PREDICTED BY IDOCK:   -0.01 KCAL/MOL
REMARK 927      BINDING AFFINITY PREDICTED BY RF-SCORE:    0.00 PKD
ROOT
HETATM    1  C   UNL     1      -5.819   6.684  71.257  1.00  0.00    -0.032 C  
HETATM    2  C   UNL     1      -6.761   7.748  71.790  1.00  0.00    -0.050 C  
ENDROOT
BRANCH   2   3
HETATM    3  N   UNL     1      -8.145   7.581  71.343  1.00  0.00    -0.095 N  
HETATM    4  O   UNL     1      -8.823   7.245  73.538  1.00  0.00    -0.140 OA 
HETATM    5  C   UNL     1      -9.097   7.309  72.343  1.00  0.00    -0.131 C  
BRANCH   3   6
HETATM    6  C   UNL     1      -8.429   7.340  69.926  1.00  0.00    -0.140 C  
HETATM    7  C   UNL     1      -8.172   8.476  68.952  1.00  0.00    -0.117 C  
ENDBRANCH   3   6
BRANCH   5   8
HETATM    8  C   UNL     1     -10.550   7.119  71.920  1.00  0.00    -0.238 C  
HETATM    9  C   UNL     1     -10.800   6.125  70.778  1.00  0.00    -0.350 C  
HETATM   10  C   UNL     1     -11.208   5.750  72.172  1.00  0.00    -0.327 C  
BRANCH   8  11
HETATM   11  C   UNL     1     -11.366   8.419  71.861  1.00  0.00    -0.382 A  
HETATM   12  C   UNL     1     -12.629   8.474  72.478  1.00  0.00    -0.346 A  
HETATM   13  C   UNL     1     -13.513   9.530  72.242  1.00  0.00    -0.521 A  
HETATM   14  C   UNL     1     -10.982   9.526  71.085  1.00  0.00    -0.438 A  
HETATM   15  C   UNL     1     -13.142  10.567  71.394  1.00  0.00    -0.509 A  
HETATM   16  C   UNL     1     -11.868  10.579  70.834  1.00  0.00    -0.455 A  
ENDBRANCH   8  11
BRANCH  10  17
HETATM   17  C   UNL     1     -10.484   4.674  72.928  1.00  0.00    -0.194 C  
HETATM   18  N   UNL     1     -10.700   4.823  74.357  1.00  0.00    -0.349 NA 
HETATM   19  H2  UNL     1     -11.693   4.848  74.590  1.00  0.00     0.000 HD 
HETATM   20  H1  UNL     1     -10.208   4.092  74.871  1.00  0.00     0.000 HD 
ENDBRANCH  10  17
ENDBRANCH   5   8
ENDBRANCH   2   3
TORSDOF 5
ENDMDL
MODEL      140
REMARK 921   NORMALIZED FREE ENERGY PREDICTED BY IDOCK:   -3.34 KCAL/MOL
REMARK 922        TOTAL FREE ENERGY PREDICTED BY IDOCK:   -4.81 KCAL/MOL
REMARK 923 INTER-LIGAND FREE ENERGY PREDICTED BY IDOCK:   -4.75 KCAL/MOL
REMARK 924 INTRA-LIGAND FREE ENERGY PREDICTED BY IDOCK:   -0.06 KCAL/MOL
REMARK 927      BINDING AFFINITY PREDICTED BY RF-SCORE:    0.00 PKD
ROOT
HETATM    1  C   UNL     1      -7.632  15.557  67.163  1.00  0.00    -0.253 C  
HETATM    2  C   UNL     1      -7.704  14.539  68.287  1.00  0.00    -0.126 C  
ENDROOT
BRANCH   2   3
HETATM    3  N   UNL     1      -8.545  13.382  67.975  1.00  0.00    -0.165 N  
HETATM    4  O   UNL     1     -10.448  14.636  68.420  1.00  0.00    -0.232 OA 
HETATM    5  C   UNL     1      -9.934  13.567  68.102  1.00  0.00    -0.240 C  
BRANCH   3   6
HETATM    6  C   UNL     1      -7.951  12.045  67.911  1.00  0.00    -0.147 C  
HETATM    7  C   UNL     1      -6.836  11.721  68.890  1.00  0.00    -0.102 C  
ENDBRANCH   3   6
BRANCH   5   8
HETATM    8  C   UNL     1     -10.848  12.385  67.796  1.00  0.00    -0.257 C  
HETATM    9  C   UNL     1     -12.090  12.690  66.948  1.00  0.00    -0.213 C  
HETATM   10  C   UNL     1     -10.963  11.914  66.336  1.00  0.00    -0.337 C  
BRANCH   8  11
HETATM   11  C   UNL     1     -11.069  11.433  68.982  1.00  0.00    -0.300 A  
HETATM   12  C   UNL     1     -10.616  10.104  68.898  1.00  0.00    -0.237 A  
HETATM   13  C   UNL     1     -11.009   9.138  69.827  1.00  0.00    -0.195 A  
HETATM   14  C   UNL     1     -11.843  11.778  70.103  1.00  0.00    -0.408 A  
HETATM   15  C   UNL     1     -11.853   9.487  70.875  1.00  0.00    -0.385 A  
HETATM   16  C   UNL     1     -12.252  10.812  71.028  1.00  0.00    -0.485 A  
ENDBRANCH   8  11
BRANCH  10  17
HETATM   17  C   UNL     1     -10.103  12.514  65.261  1.00  0.00    -0.257 C  
HETATM   18  N   UNL     1      -9.138  11.540  64.780  1.00  0.00    -0.409 NA 
HETATM   19  H2  UNL     1      -9.590  10.681  64.467  1.00  0.00     0.000 HD 
HETATM   20  H1  UNL     1      -8.553  11.948  64.050  1.00  0.00     0.000 HD 
ENDBRANCH  10  17
ENDBRANCH   5   8
ENDBRANCH   2   3
TORSDOF 5
ENDMDL
MODEL      141
REMARK 921   NORMALIZED FREE ENERGY PREDICTED BY IDOCK:   -3.32 KCAL/MOL
REMARK 922        TOTAL FREE ENERGY PREDICTED BY IDOCK:   -4.78 KCAL/MOL
REMARK 923 INTER-LIGAND FREE ENERGY PREDICTED BY IDOCK:   -4.47 KCAL/MOL
REMARK 924 INTRA-LIGAND FREE ENERGY PREDICTED BY IDOCK:   -0.31 KCAL/MOL
REMARK 927      BINDING AFFINITY PREDICTED BY RF-SCORE:    0.00 PKD
ROOT
HETATM    1  C   UNL     1      -7.773  15.517  66.982  1.00  0.00    -0.246 C  
HETATM    2  C   UNL     1      -7.471  14.173  67.618  1.00  0.00    -0.178 C  
ENDROOT
BRANCH   2   3
HETATM    3  N   UNL     1      -8.454  13.138  67.293  1.00  0.00    -0.197 N  
HETATM    4  O   UNL     1      -9.913  14.018  68.869  1.00  0.00    -0.196 OA 
HETATM    5  C   UNL     1      -9.655  13.165  68.024  1.00  0.00    -0.220 C  
BRANCH   3   6
HETATM    6  C   UNL     1      -8.041  11.952  66.538  1.00  0.00     0.006 C  
HETATM    7  C   UNL     1      -6.822  11.191  67.030  1.00  0.00    -0.119 C  
ENDBRANCH   3   6
BRANCH   5   8
HETATM    8  C   UNL     1     -10.704  12.100  67.725  1.00  0.00    -0.241 C  
HETATM    9  C   UNL     1     -12.158  12.469  68.048  1.00  0.00    -0.123 C  
HETATM   10  C   UNL     1     -11.731  12.382  66.613  1.00  0.00    -0.438 C  
BRANCH   8  11
HETATM   11  C   UNL     1     -10.280  10.672  68.103  1.00  0.00    -0.192 A  
HETATM   12  C   UNL     1     -10.520   9.616  67.204  1.00  0.00    -0.317 A  
HETATM   13  C   UNL     1     -10.392   8.281  67.594  1.00  0.00    -0.313 A  
HETATM   14  C   UNL     1      -9.796  10.333  69.377  1.00  0.00    -0.247 A  
HETATM   15  C   UNL     1     -10.000   7.973  68.892  1.00  0.00    -0.199 A  
HETATM   16  C   UNL     1      -9.678   8.998  69.778  1.00  0.00    -0.183 A  
ENDBRANCH   8  11
BRANCH  10  17
HETATM   17  C   UNL     1     -11.626  13.612  65.760  1.00  0.00    -0.333 C  
HETATM   18  N   UNL     1     -12.865  13.835  65.033  1.00  0.00    -0.735 NA 
HETATM   19  H2  UNL     1     -13.669  13.875  65.659  1.00  0.00     0.000 HD 
HETATM   20  H1  UNL     1     -12.793  14.671  64.453  1.00  0.00     0.000 HD 
ENDBRANCH  10  17
ENDBRANCH   5   8
ENDBRANCH   2   3
TORSDOF 5
ENDMDL
MODEL      142
REMARK 921   NORMALIZED FREE ENERGY PREDICTED BY IDOCK:   -3.31 KCAL/MOL
REMARK 922        TOTAL FREE ENERGY PREDICTED BY IDOCK:   -4.77 KCAL/MOL
REMARK 923 INTER-LIGAND FREE ENERGY PREDICTED BY IDOCK:   -4.22 KCAL/MOL
REMARK 924 INTRA-LIGAND FREE ENERGY PREDICTED BY IDOCK:   -0.56 KCAL/MOL
REMARK 927      BINDING AFFINITY PREDICTED BY RF-SCORE:    0.00 PKD
ROOT
HETATM    1  C   UNL     1      -7.649   6.461  65.823  1.00  0.00    -0.085 C  
HETATM    2  C   UNL     1      -8.025   6.482  67.293  1.00  0.00    -0.113 C  
ENDROOT
BRANCH   2   3
HETATM    3  N   UNL     1      -8.814   7.654  67.678  1.00  0.00    -0.125 N  
HETATM    4  O   UNL     1      -6.894   8.699  68.460  1.00  0.00    -0.062 OA 
HETATM    5  C   UNL     1      -8.109   8.711  68.283  1.00  0.00    -0.118 C  
BRANCH   3   6
HETATM    6  C   UNL     1     -10.273   7.553  67.767  1.00  0.00    -0.201 C  
HETATM    7  C   UNL     1     -10.861   6.240  68.251  1.00  0.00    -0.397 C  
ENDBRANCH   3   6
BRANCH   5   8
HETATM    8  C   UNL     1      -8.892   9.947  68.709  1.00  0.00    -0.136 C  
HETATM    9  C   UNL     1      -8.138  11.282  68.649  1.00  0.00    -0.145 C  
HETATM   10  C   UNL     1      -9.214  11.008  67.641  1.00  0.00    -0.151 C  
BRANCH   8  11
HETATM   11  C   UNL     1      -9.779   9.739  69.946  1.00  0.00    -0.273 A  
HETATM   12  C   UNL     1      -9.282   9.011  71.042  1.00  0.00    -0.331 A  
HETATM   13  C   UNL     1     -10.119   8.577  72.073  1.00  0.00    -0.386 A  
HETATM   14  C   UNL     1     -11.134  10.111  69.984  1.00  0.00    -0.368 A  
HETATM   15  C   UNL     1     -11.475   8.881  72.038  1.00  0.00    -0.431 A  
HETATM   16  C   UNL     1     -11.980   9.668  71.007  1.00  0.00    -0.427 A  
ENDBRANCH   8  11
BRANCH  10  17
HETATM   17  C   UNL     1      -8.880  10.774  66.196  1.00  0.00    -0.177 C  
HETATM   18  N   UNL     1     -10.005  10.167  65.506  1.00  0.00    -0.292 NA 
HETATM   19  H2  UNL     1     -10.858  10.716  65.614  1.00  0.00     0.000 HD 
HETATM   20  H1  UNL     1      -9.778  10.007  64.525  1.00  0.00     0.000 HD 
ENDBRANCH  10  17
ENDBRANCH   5   8
ENDBRANCH   2   3
TORSDOF 5
ENDMDL
MODEL      143
REMARK 921   NORMALIZED FREE ENERGY PREDICTED BY IDOCK:   -3.31 KCAL/MOL
REMARK 922        TOTAL FREE ENERGY PREDICTED BY IDOCK:   -4.77 KCAL/MOL
REMARK 923 INTER-LIGAND FREE ENERGY PREDICTED BY IDOCK:   -5.16 KCAL/MOL
REMARK 924 INTRA-LIGAND FREE ENERGY PREDICTED BY IDOCK:    0.39 KCAL/MOL
REMARK 927      BINDING AFFINITY PREDICTED BY RF-SCORE:    0.00 PKD
ROOT
HETATM    1  C   UNL     1     -10.438   8.436  69.518  1.00  0.00    -0.225 C  
HETATM    2  C   UNL     1     -10.585   9.899  69.895  1.00  0.00    -0.273 C  
ENDROOT
BRANCH   2   3
HETATM    3  N   UNL     1     -10.153  10.821  68.843  1.00  0.00    -0.197 N  
HETATM    4  O   UNL     1     -12.364  11.396  68.428  1.00  0.00    -0.505 OA 
HETATM    5  C   UNL     1     -11.171  11.510  68.159  1.00  0.00    -0.271 C  
BRANCH   3   6
HETATM    6  C   UNL     1      -8.793  10.728  68.306  1.00  0.00    -0.139 C  
HETATM    7  C   UNL     1      -7.643  10.728  69.297  1.00  0.00    -0.129 C  
ENDBRANCH   3   6
BRANCH   5   8
HETATM    8  C   UNL     1     -10.767  12.474  67.049  1.00  0.00    -0.268 C  
HETATM    9  C   UNL     1     -11.459  13.844  67.055  1.00  0.00    -0.367 C  
HETATM   10  C   UNL     1     -10.012  13.758  67.440  1.00  0.00    -0.237 C  
BRANCH   8  11
HETATM   11  C   UNL     1     -10.603  11.817  65.670  1.00  0.00    -0.314 A  
HETATM   12  C   UNL     1     -10.030  10.536  65.575  1.00  0.00    -0.342 A  
HETATM   13  C   UNL     1      -9.627  10.004  64.348  1.00  0.00    -0.325 A  
HETATM   14  C   UNL     1     -10.858  12.497  64.467  1.00  0.00    -0.360 A  
HETATM   15  C   UNL     1      -9.807  10.739  63.182  1.00  0.00    -0.378 A  
HETATM   16  C   UNL     1     -10.445  11.975  63.236  1.00  0.00    -0.403 A  
ENDBRANCH   8  11
BRANCH  10  17
HETATM   17  C   UNL     1      -9.572  13.993  68.855  1.00  0.00    -0.011 C  
HETATM   18  N   UNL     1     -10.608  14.687  69.601  1.00  0.00    -0.417 NA 
HETATM   19  H2  UNL     1     -11.500  14.194  69.559  1.00  0.00     0.000 HD 
HETATM   20  H1  UNL     1     -10.308  14.847  70.563  1.00  0.00     0.000 HD 
ENDBRANCH  10  17
ENDBRANCH   5   8
ENDBRANCH   2   3
TORSDOF 5
ENDMDL
MODEL      144
REMARK 921   NORMALIZED FREE ENERGY PREDICTED BY IDOCK:   -3.30 KCAL/MOL
REMARK 922        TOTAL FREE ENERGY PREDICTED BY IDOCK:   -4.75 KCAL/MOL
REMARK 923 INTER-LIGAND FREE ENERGY PREDICTED BY IDOCK:   -4.67 KCAL/MOL
REMARK 924 INTRA-LIGAND FREE ENERGY PREDICTED BY IDOCK:   -0.09 KCAL/MOL
REMARK 927      BINDING AFFINITY PREDICTED BY RF-SCORE:    0.00 PKD
ROOT
HETATM    1  C   UNL     1     -12.718  14.091  65.677  1.00  0.00    -0.515 C  
HETATM    2  C   UNL     1     -11.933  13.509  66.838  1.00  0.00    -0.399 C  
ENDROOT
BRANCH   2   3
HETATM    3  N   UNL     1     -10.966  14.444  67.418  1.00  0.00    -0.292 N  
HETATM    4  O   UNL     1      -9.846  14.557  65.388  1.00  0.00    -0.334 OA 
HETATM    5  C   UNL     1      -9.937  14.887  66.567  1.00  0.00    -0.265 C  
BRANCH   3   6
HETATM    6  C   UNL     1     -10.877  14.590  68.873  1.00  0.00    -0.253 C  
HETATM    7  C   UNL     1     -11.971  15.376  69.571  1.00  0.00    -0.358 C  
ENDBRANCH   3   6
BRANCH   5   8
HETATM    8  C   UNL     1      -8.903  15.855  67.132  1.00  0.00    -0.228 C  
HETATM    9  C   UNL     1      -8.397  16.942  66.175  1.00  0.00    -0.286 C  
HETATM   10  C   UNL     1      -9.305  17.331  67.303  1.00  0.00    -0.237 C  
BRANCH   8  11
HETATM   11  C   UNL     1      -7.833  15.192  68.012  1.00  0.00    -0.135 A  
HETATM   12  C   UNL     1      -7.433  13.870  67.743  1.00  0.00    -0.174 A  
HETATM   13  C   UNL     1      -6.663  13.140  68.651  1.00  0.00    -0.096 A  
HETATM   14  C   UNL     1      -7.332  15.788  69.182  1.00  0.00    -0.194 A  
HETATM   15  C   UNL     1      -6.259  13.725  69.845  1.00  0.00    -0.129 A  
HETATM   16  C   UNL     1      -6.572  15.058  70.102  1.00  0.00    -0.116 A  
ENDBRANCH   8  11
BRANCH  10  17
HETATM   17  C   UNL     1     -10.713  17.782  67.044  1.00  0.00    -0.187 C  
HETATM   18  N   UNL     1     -10.785  19.233  67.014  1.00  0.00    -0.467 NA 
HETATM   19  H2  UNL     1     -10.130  19.631  66.342  1.00  0.00     0.000 HD 
HETATM   20  H1  UNL     1     -11.742  19.539  66.838  1.00  0.00     0.000 HD 
ENDBRANCH  10  17
ENDBRANCH   5   8
ENDBRANCH   2   3
TORSDOF 5
ENDMDL
MODEL      145
REMARK 921   NORMALIZED FREE ENERGY PREDICTED BY IDOCK:   -3.29 KCAL/MOL
REMARK 922        TOTAL FREE ENERGY PREDICTED BY IDOCK:   -4.74 KCAL/MOL
REMARK 923 INTER-LIGAND FREE ENERGY PREDICTED BY IDOCK:   -4.99 KCAL/MOL
REMARK 924 INTRA-LIGAND FREE ENERGY PREDICTED BY IDOCK:    0.24 KCAL/MOL
REMARK 927      BINDING AFFINITY PREDICTED BY RF-SCORE:    0.00 PKD
ROOT
HETATM    1  C   UNL     1      -8.209   8.977  70.184  1.00  0.00    -0.140 C  
HETATM    2  C   UNL     1      -9.365   9.737  69.560  1.00  0.00    -0.213 C  
ENDROOT
BRANCH   2   3
HETATM    3  N   UNL     1      -9.066  10.267  68.228  1.00  0.00    -0.136 N  
HETATM    4  O   UNL     1     -10.455   8.672  67.272  1.00  0.00    -0.274 OA 
HETATM    5  C   UNL     1      -9.678   9.614  67.143  1.00  0.00    -0.174 C  
BRANCH   3   6
HETATM    6  C   UNL     1      -7.919  11.160  68.040  1.00  0.00    -0.117 C  
HETATM    7  C   UNL     1      -8.132  12.642  68.288  1.00  0.00    -0.161 C  
ENDBRANCH   3   6
BRANCH   5   8
HETATM    8  C   UNL     1      -9.388  10.127  65.737  1.00  0.00    -0.239 C  
HETATM    9  C   UNL     1      -7.914  10.402  65.406  1.00  0.00    -0.147 C  
HETATM   10  C   UNL     1      -8.593   9.220  64.781  1.00  0.00    -0.207 C  
BRANCH   8  11
HETATM   11  C   UNL     1     -10.391  11.173  65.226  1.00  0.00    -0.336 A  
HETATM   12  C   UNL     1     -11.040  12.019  66.144  1.00  0.00    -0.367 A  
HETATM   13  C   UNL     1     -12.134  12.802  65.769  1.00  0.00    -0.505 A  
HETATM   14  C   UNL     1     -10.816  11.231  63.888  1.00  0.00    -0.427 A  
HETATM   15  C   UNL     1     -12.592  12.769  64.458  1.00  0.00    -0.463 A  
HETATM   16  C   UNL     1     -11.919  12.003  63.510  1.00  0.00    -0.605 A  
ENDBRANCH   8  11
BRANCH  10  17
HETATM   17  C   UNL     1      -8.225   7.819  65.174  1.00  0.00    -0.132 C  
HETATM   18  N   UNL     1      -8.410   6.911  64.054  1.00  0.00    -0.343 NA 
HETATM   19  H2  UNL     1      -7.897   7.220  63.228  1.00  0.00     0.000 HD 
HETATM   20  H1  UNL     1      -8.160   5.959  64.322  1.00  0.00     0.000 HD 
ENDBRANCH  10  17
ENDBRANCH   5   8
ENDBRANCH   2   3
TORSDOF 5
ENDMDL
MODEL      146
REMARK 921   NORMALIZED FREE ENERGY PREDICTED BY IDOCK:   -3.28 KCAL/MOL
REMARK 922        TOTAL FREE ENERGY PREDICTED BY IDOCK:   -4.73 KCAL/MOL
REMARK 923 INTER-LIGAND FREE ENERGY PREDICTED BY IDOCK:   -4.87 KCAL/MOL
REMARK 924 INTRA-LIGAND FREE ENERGY PREDICTED BY IDOCK:    0.14 KCAL/MOL
REMARK 927      BINDING AFFINITY PREDICTED BY RF-SCORE:    0.00 PKD
ROOT
HETATM    1  C   UNL     1      -6.301  10.451  64.902  1.00  0.00    -0.086 C  
HETATM    2  C   UNL     1      -6.935  10.232  66.264  1.00  0.00    -0.115 C  
ENDROOT
BRANCH   2   3
HETATM    3  N   UNL     1      -8.368  10.533  66.297  1.00  0.00    -0.146 N  
HETATM    4  O   UNL     1      -8.102  11.610  68.336  1.00  0.00    -0.141 OA 
HETATM    5  C   UNL     1      -8.834  11.229  67.427  1.00  0.00    -0.145 C  
BRANCH   3   6
HETATM    6  C   UNL     1      -9.282   9.821  65.401  1.00  0.00    -0.227 C  
HETATM    7  C   UNL     1      -9.646  10.490  64.088  1.00  0.00    -0.369 C  
ENDBRANCH   3   6
BRANCH   5   8
HETATM    8  C   UNL     1     -10.321  11.555  67.508  1.00  0.00    -0.220 C  
HETATM    9  C   UNL     1     -11.284  10.366  67.387  1.00  0.00    -0.205 C  
HETATM   10  C   UNL     1     -11.116  11.034  68.719  1.00  0.00    -0.293 C  
BRANCH   8  11
HETATM   11  C   UNL     1     -10.732  12.824  66.746  1.00  0.00    -0.278 A  
HETATM   12  C   UNL     1     -12.049  12.950  66.268  1.00  0.00    -0.433 A  
HETATM   13  C   UNL     1     -12.405  13.952  65.361  1.00  0.00    -0.494 A  
HETATM   14  C   UNL     1      -9.813  13.814  66.362  1.00  0.00    -0.305 A  
HETATM   15  C   UNL     1     -11.450  14.863  64.926  1.00  0.00    -0.407 A  
HETATM   16  C   UNL     1     -10.159  14.811  65.444  1.00  0.00    -0.406 A  
ENDBRANCH   8  11
BRANCH  10  17
HETATM   17  C   UNL     1     -10.424  10.336  69.854  1.00  0.00    -0.256 C  
HETATM   18  N   UNL     1     -11.356  10.079  70.938  1.00  0.00    -0.346 NA 
HETATM   19  H2  UNL     1     -12.175   9.561  70.618  1.00  0.00     0.000 HD 
HETATM   20  H1  UNL     1     -10.886   9.605  71.709  1.00  0.00     0.000 HD 
ENDBRANCH  10  17
ENDBRANCH   5   8
ENDBRANCH   2   3
TORSDOF 5
ENDMDL
MODEL      147
REMARK 921   NORMALIZED FREE ENERGY PREDICTED BY IDOCK:   -3.26 KCAL/MOL
REMARK 922        TOTAL FREE ENERGY PREDICTED BY IDOCK:   -4.70 KCAL/MOL
REMARK 923 INTER-LIGAND FREE ENERGY PREDICTED BY IDOCK:   -4.77 KCAL/MOL
REMARK 924 INTRA-LIGAND FREE ENERGY PREDICTED BY IDOCK:    0.07 KCAL/MOL
REMARK 927      BINDING AFFINITY PREDICTED BY RF-SCORE:    0.00 PKD
ROOT
HETATM    1  C   UNL     1     -11.528   7.523  70.649  1.00  0.00    -0.291 C  
HETATM    2  C   UNL     1     -10.576   7.443  69.470  1.00  0.00    -0.237 C  
ENDROOT
BRANCH   2   3
HETATM    3  N   UNL     1     -10.081   8.747  69.027  1.00  0.00    -0.193 N  
HETATM    4  O   UNL     1     -10.599   8.206  66.830  1.00  0.00    -0.329 OA 
HETATM    5  C   UNL     1     -10.135   9.000  67.644  1.00  0.00    -0.216 C  
BRANCH   3   6
HETATM    6  C   UNL     1      -9.249   9.554  69.924  1.00  0.00    -0.220 C  
HETATM    7  C   UNL     1      -8.067   8.875  70.591  1.00  0.00    -0.161 C  
ENDBRANCH   3   6
BRANCH   5   8
HETATM    8  C   UNL     1      -9.622  10.343  67.138  1.00  0.00    -0.192 C  
HETATM    9  C   UNL     1      -8.217  10.751  67.601  1.00  0.00    -0.115 C  
HETATM   10  C   UNL     1      -8.423  10.347  66.172  1.00  0.00    -0.149 C  
BRANCH   8  11
HETATM   11  C   UNL     1     -10.675  11.462  67.137  1.00  0.00    -0.292 A  
HETATM   12  C   UNL     1     -11.319  11.809  65.936  1.00  0.00    -0.324 A  
HETATM   13  C   UNL     1     -12.085  12.972  65.826  1.00  0.00    -0.510 A  
HETATM   14  C   UNL     1     -10.925  12.274  68.257  1.00  0.00    -0.268 A  
HETATM   15  C   UNL     1     -12.239  13.807  66.927  1.00  0.00    -0.408 A  
HETATM   16  C   UNL     1     -11.680  13.446  68.150  1.00  0.00    -0.397 A  
ENDBRANCH   8  11
BRANCH  10  17
HETATM   17  C   UNL     1      -7.856   9.062  65.641  1.00  0.00    -0.102 C  
HETATM   18  N   UNL     1      -8.585   8.634  64.459  1.00  0.00    -0.362 NA 
HETATM   19  H2  UNL     1      -8.609   9.362  63.745  1.00  0.00     0.000 HD 
HETATM   20  H1  UNL     1      -8.200   7.761  64.099  1.00  0.00     0.000 HD 
ENDBRANCH  10  17
ENDBRANCH   5   8
ENDBRANCH   2   3
TORSDOF 5
ENDMDL
MODEL      148
REMARK 921   NORMALIZED FREE ENERGY PREDICTED BY IDOCK:   -3.25 KCAL/MOL
REMARK 922        TOTAL FREE ENERGY PREDICTED BY IDOCK:   -4.69 KCAL/MOL
REMARK 923 INTER-LIGAND FREE ENERGY PREDICTED BY IDOCK:   -4.10 KCAL/MOL
REMARK 924 INTRA-LIGAND FREE ENERGY PREDICTED BY IDOCK:   -0.59 KCAL/MOL
REMARK 927      BINDING AFFINITY PREDICTED BY RF-SCORE:    0.00 PKD
ROOT
HETATM    1  C   UNL     1      -7.837   8.367  67.913  1.00  0.00    -0.107 C  
HETATM    2  C   UNL     1      -8.783   8.915  68.966  1.00  0.00    -0.136 C  
ENDROOT
BRANCH   2   3
HETATM    3  N   UNL     1      -9.464   7.875  69.739  1.00  0.00    -0.163 N  
HETATM    4  O   UNL     1      -9.072   9.061  71.696  1.00  0.00    -0.300 OA 
HETATM    5  C   UNL     1      -9.525   8.068  71.131  1.00  0.00    -0.153 C  
BRANCH   3   6
HETATM    6  C   UNL     1      -9.717   6.565  69.134  1.00  0.00    -0.136 C  
HETATM    7  C   UNL     1     -11.042   6.361  68.420  1.00  0.00    -0.374 C  
ENDBRANCH   3   6
BRANCH   5   8
HETATM    8  C   UNL     1     -10.218   7.006  71.976  1.00  0.00    -0.209 C  
HETATM    9  C   UNL     1     -10.891   7.496  73.265  1.00  0.00    -0.409 C  
HETATM   10  C   UNL     1     -11.750   7.070  72.112  1.00  0.00    -0.321 C  
BRANCH   8  11
HETATM   11  C   UNL     1      -9.442   5.685  72.091  1.00  0.00    -0.166 A  
HETATM   12  C   UNL     1     -10.146   4.467  72.123  1.00  0.00    -0.262 A  
HETATM   13  C   UNL     1      -9.521   3.269  72.478  1.00  0.00    -0.174 A  
HETATM   14  C   UNL     1      -8.057   5.631  72.323  1.00  0.00    -0.108 A  
HETATM   15  C   UNL     1      -8.167   3.262  72.794  1.00  0.00    -0.080 A  
HETATM   16  C   UNL     1      -7.428   4.438  72.693  1.00  0.00    -0.079 A  
ENDBRANCH   8  11
BRANCH  10  17
HETATM   17  C   UNL     1     -12.552   8.071  71.333  1.00  0.00    -0.289 C  
HETATM   18  N   UNL     1     -13.838   7.509  70.956  1.00  0.00    -0.633 NA 
HETATM   19  H2  UNL     1     -14.351   7.159  71.765  1.00  0.00     0.000 HD 
HETATM   20  H1  UNL     1     -14.383   8.189  70.426  1.00  0.00     0.000 HD 
ENDBRANCH  10  17
ENDBRANCH   5   8
ENDBRANCH   2   3
TORSDOF 5
ENDMDL
MODEL      149
REMARK 921   NORMALIZED FREE ENERGY PREDICTED BY IDOCK:   -3.22 KCAL/MOL
REMARK 922        TOTAL FREE ENERGY PREDICTED BY IDOCK:   -4.65 KCAL/MOL
REMARK 923 INTER-LIGAND FREE ENERGY PREDICTED BY IDOCK:   -4.99 KCAL/MOL
REMARK 924 INTRA-LIGAND FREE ENERGY PREDICTED BY IDOCK:    0.34 KCAL/MOL
REMARK 927      BINDING AFFINITY PREDICTED BY RF-SCORE:    0.00 PKD
ROOT
HETATM    1  C   UNL     1     -11.989  13.456  69.909  1.00  0.00    -0.408 C  
HETATM    2  C   UNL     1     -12.082  14.182  68.579  1.00  0.00    -0.277 C  
ENDROOT
BRANCH   2   3
HETATM    3  N   UNL     1     -10.788  14.640  68.070  1.00  0.00    -0.252 N  
HETATM    4  O   UNL     1     -11.334  16.826  68.627  1.00  0.00    -0.253 OA 
HETATM    5  C   UNL     1     -10.543  16.023  68.139  1.00  0.00    -0.286 C  
BRANCH   3   6
HETATM    6  C   UNL     1      -9.989  13.760  67.213  1.00  0.00    -0.239 C  
HETATM    7  C   UNL     1     -10.715  12.660  66.459  1.00  0.00    -0.273 C  
ENDBRANCH   3   6
BRANCH   5   8
HETATM    8  C   UNL     1      -9.212  16.546  67.612  1.00  0.00    -0.200 C  
HETATM    9  C   UNL     1      -8.855  16.162  66.170  1.00  0.00    -0.367 C  
HETATM   10  C   UNL     1      -9.235  17.580  66.473  1.00  0.00    -0.286 C  
BRANCH   8  11
HETATM   11  C   UNL     1      -8.059  16.472  68.625  1.00  0.00    -0.233 A  
HETATM   12  C   UNL     1      -7.236  17.596  68.824  1.00  0.00    -0.268 A  
HETATM   13  C   UNL     1      -6.035  17.508  69.531  1.00  0.00    -0.246 A  
HETATM   14  C   UNL     1      -7.679  15.279  69.263  1.00  0.00    -0.214 A  
HETATM   15  C   UNL     1      -5.638  16.291  70.073  1.00  0.00    -0.183 A  
HETATM   16  C   UNL     1      -6.471  15.181  69.961  1.00  0.00    -0.156 A  
ENDBRANCH   8  11
BRANCH  10  17
HETATM   17  C   UNL     1     -10.531  18.157  65.981  1.00  0.00    -0.335 C  
HETATM   18  N   UNL     1     -10.509  19.607  66.070  1.00  0.00    -0.520 NA 
HETATM   19  H2  UNL     1      -9.707  20.005  65.581  1.00  0.00     0.000 HD 
HETATM   20  H1  UNL     1     -11.390  19.999  65.737  1.00  0.00     0.000 HD 
ENDBRANCH  10  17
ENDBRANCH   5   8
ENDBRANCH   2   3
TORSDOF 5
ENDMDL
MODEL      150
REMARK 921   NORMALIZED FREE ENERGY PREDICTED BY IDOCK:   -3.22 KCAL/MOL
REMARK 922        TOTAL FREE ENERGY PREDICTED BY IDOCK:   -4.65 KCAL/MOL
REMARK 923 INTER-LIGAND FREE ENERGY PREDICTED BY IDOCK:   -4.57 KCAL/MOL
REMARK 924 INTRA-LIGAND FREE ENERGY PREDICTED BY IDOCK:   -0.08 KCAL/MOL
REMARK 927      BINDING AFFINITY PREDICTED BY RF-SCORE:    0.00 PKD
ROOT
HETATM    1  C   UNL     1      -9.809   8.069  72.763  1.00  0.00    -0.351 C  
HETATM    2  C   UNL     1      -9.251   7.250  71.614  1.00  0.00    -0.146 C  
ENDROOT
BRANCH   2   3
HETATM    3  N   UNL     1      -9.247   7.962  70.334  1.00  0.00    -0.158 N  
HETATM    4  O   UNL     1     -11.302   7.026  69.798  1.00  0.00    -0.249 OA 
HETATM    5  C   UNL     1     -10.352   7.742  69.492  1.00  0.00    -0.219 C  
BRANCH   3   6
HETATM    6  C   UNL     1      -8.002   8.549  69.831  1.00  0.00    -0.106 C  
HETATM    7  C   UNL     1      -7.707   9.994  70.193  1.00  0.00    -0.158 C  
ENDBRANCH   3   6
BRANCH   5   8
HETATM    8  C   UNL     1     -10.385   8.457  68.147  1.00  0.00    -0.255 C  
HETATM    9  C   UNL     1      -9.190   8.208  67.216  1.00  0.00    -0.165 C  
HETATM   10  C   UNL     1     -10.519   7.603  66.872  1.00  0.00    -0.388 C  
BRANCH   8  11
HETATM   11  C   UNL     1     -10.885   9.908  68.214  1.00  0.00    -0.275 A  
HETATM   12  C   UNL     1     -10.564  10.801  67.176  1.00  0.00    -0.306 A  
HETATM   13  C   UNL     1     -10.771  12.177  67.305  1.00  0.00    -0.264 A  
HETATM   14  C   UNL     1     -11.528  10.441  69.344  1.00  0.00    -0.292 A  
HETATM   15  C   UNL     1     -11.323  12.688  68.474  1.00  0.00    -0.333 A  
HETATM   16  C   UNL     1     -11.725  11.819  69.485  1.00  0.00    -0.408 A  
ENDBRANCH   8  11
BRANCH  10  17
HETATM   17  C   UNL     1     -10.740   6.121  66.957  1.00  0.00    -0.350 C  
HETATM   18  N   UNL     1      -9.550   5.404  66.531  1.00  0.00    -0.147 NA 
HETATM   19  H2  UNL     1      -8.725   5.694  67.056  1.00  0.00     0.000 HD 
HETATM   20  H1  UNL     1      -9.701   4.396  66.588  1.00  0.00     0.000 HD 
ENDBRANCH  10  17
ENDBRANCH   5   8
ENDBRANCH   2   3
TORSDOF 5
ENDMDL
MODEL      151
REMARK 921   NORMALIZED FREE ENERGY PREDICTED BY IDOCK:   -3.22 KCAL/MOL
REMARK 922        TOTAL FREE ENERGY PREDICTED BY IDOCK:   -4.65 KCAL/MOL
REMARK 923 INTER-LIGAND FREE ENERGY PREDICTED BY IDOCK:   -4.06 KCAL/MOL
REMARK 924 INTRA-LIGAND FREE ENERGY PREDICTED BY IDOCK:   -0.59 KCAL/MOL
REMARK 927      BINDING AFFINITY PREDICTED BY RF-SCORE:    0.00 PKD
ROOT
HETATM    1  C   UNL     1     -10.508   5.125  70.211  1.00  0.00    -0.296 C  
HETATM    2  C   UNL     1     -11.287   6.362  69.802  1.00  0.00    -0.427 C  
ENDROOT
BRANCH   2   3
HETATM    3  N   UNL     1     -10.438   7.461  69.339  1.00  0.00    -0.214 N  
HETATM    4  O   UNL     1     -11.102   7.063  67.151  1.00  0.00    -0.350 OA 
HETATM    5  C   UNL     1     -10.424   7.700  67.953  1.00  0.00    -0.207 C  
BRANCH   3   6
HETATM    6  C   UNL     1      -9.404   8.005  70.223  1.00  0.00    -0.159 C  
HETATM    7  C   UNL     1      -9.836   8.995  71.290  1.00  0.00    -0.376 C  
ENDBRANCH   3   6
BRANCH   5   8
HETATM    8  C   UNL     1      -9.548   8.830  67.426  1.00  0.00    -0.206 C  
HETATM    9  C   UNL     1     -10.054   9.553  66.171  1.00  0.00    -0.326 C  
HETATM   10  C   UNL     1     -10.097  10.267  67.489  1.00  0.00    -0.239 C  
BRANCH   8  11
HETATM   11  C   UNL     1      -8.041   8.530  67.459  1.00  0.00    -0.107 A  
HETATM   12  C   UNL     1      -7.135   9.558  67.776  1.00  0.00    -0.081 A  
HETATM   13  C   UNL     1      -5.761   9.410  67.574  1.00  0.00    -0.041 A  
HETATM   14  C   UNL     1      -7.499   7.304  67.036  1.00  0.00    -0.105 A  
HETATM   15  C   UNL     1      -5.260   8.217  67.066  1.00  0.00    -0.032 A  
HETATM   16  C   UNL     1      -6.125   7.154  66.820  1.00  0.00    -0.038 A  
ENDBRANCH   8  11
BRANCH  10  17
HETATM   17  C   UNL     1     -11.403  10.564  68.166  1.00  0.00    -0.254 C  
HETATM   18  N   UNL     1     -11.960  11.812  67.671  1.00  0.00    -0.606 NA 
HETATM   19  H2  UNL     1     -12.052  11.810  66.656  1.00  0.00     0.000 HD 
HETATM   20  H1  UNL     1     -12.848  12.014  68.132  1.00  0.00     0.000 HD 
ENDBRANCH  10  17
ENDBRANCH   5   8
ENDBRANCH   2   3
TORSDOF 5
ENDMDL
MODEL      152
REMARK 921   NORMALIZED FREE ENERGY PREDICTED BY IDOCK:   -3.19 KCAL/MOL
REMARK 922        TOTAL FREE ENERGY PREDICTED BY IDOCK:   -4.61 KCAL/MOL
REMARK 923 INTER-LIGAND FREE ENERGY PREDICTED BY IDOCK:   -4.02 KCAL/MOL
REMARK 924 INTRA-LIGAND FREE ENERGY PREDICTED BY IDOCK:   -0.59 KCAL/MOL
REMARK 927      BINDING AFFINITY PREDICTED BY RF-SCORE:    0.00 PKD
ROOT
HETATM    1  C   UNL     1      -6.326   9.157  67.928  1.00  0.00    -0.055 C  
HETATM    2  C   UNL     1      -6.465   8.210  69.105  1.00  0.00    -0.040 C  
ENDROOT
BRANCH   2   3
HETATM    3  N   UNL     1      -7.855   7.911  69.455  1.00  0.00    -0.108 N  
HETATM    4  O   UNL     1      -7.873   9.694  70.942  1.00  0.00    -0.317 OA 
HETATM    5  C   UNL     1      -8.449   8.741  70.424  1.00  0.00    -0.153 C  
BRANCH   3   6
HETATM    6  C   UNL     1      -8.435   6.615  69.094  1.00  0.00    -0.124 C  
HETATM    7  C   UNL     1      -7.762   5.366  69.636  1.00  0.00    -0.074 C  
ENDBRANCH   3   6
BRANCH   5   8
HETATM    8  C   UNL     1      -9.892   8.460  70.825  1.00  0.00    -0.215 C  
HETATM    9  C   UNL     1     -10.759   9.686  71.145  1.00  0.00    -0.365 C  
HETATM   10  C   UNL     1     -11.014   8.925  69.878  1.00  0.00    -0.190 C  
BRANCH   8  11
HETATM   11  C   UNL     1     -10.065   7.259  71.767  1.00  0.00    -0.193 A  
HETATM   12  C   UNL     1     -11.169   6.402  71.605  1.00  0.00    -0.327 A  
HETATM   13  C   UNL     1     -11.511   5.458  72.576  1.00  0.00    -0.259 A  
HETATM   14  C   UNL     1      -9.251   7.050  72.894  1.00  0.00    -0.162 A  
HETATM   15  C   UNL     1     -10.741   5.338  73.727  1.00  0.00    -0.343 A  
HETATM   16  C   UNL     1      -9.596   6.116  73.876  1.00  0.00    -0.176 A  
ENDBRANCH   8  11
BRANCH  10  17
HETATM   17  C   UNL     1     -10.694   9.522  68.539  1.00  0.00    -0.182 C  
HETATM   18  N   UNL     1     -11.758  10.417  68.114  1.00  0.00    -0.743 NA 
HETATM   19  H2  UNL     1     -11.951  11.135  68.812  1.00  0.00     0.000 HD 
HETATM   20  H1  UNL     1     -11.541  10.822  67.203  1.00  0.00     0.000 HD 
ENDBRANCH  10  17
ENDBRANCH   5   8
ENDBRANCH   2   3
TORSDOF 5
ENDMDL
MODEL      153
REMARK 921   NORMALIZED FREE ENERGY PREDICTED BY IDOCK:   -3.16 KCAL/MOL
REMARK 922        TOTAL FREE ENERGY PREDICTED BY IDOCK:   -4.58 KCAL/MOL
REMARK 923 INTER-LIGAND FREE ENERGY PREDICTED BY IDOCK:   -4.86 KCAL/MOL
REMARK 924 INTRA-LIGAND FREE ENERGY PREDICTED BY IDOCK:    0.29 KCAL/MOL
REMARK 927      BINDING AFFINITY PREDICTED BY RF-SCORE:    0.00 PKD
ROOT
HETATM    1  C   UNL     1     -13.641   7.276  71.552  1.00  0.00    -0.442 C  
HETATM    2  C   UNL     1     -12.189   6.832  71.556  1.00  0.00    -0.366 C  
ENDROOT
BRANCH   2   3
HETATM    3  N   UNL     1     -11.275   7.817  70.975  1.00  0.00    -0.262 N  
HETATM    4  O   UNL     1     -11.342   6.694  68.945  1.00  0.00    -0.231 OA 
HETATM    5  C   UNL     1     -10.908   7.614  69.632  1.00  0.00    -0.191 C  
BRANCH   3   6
HETATM    6  C   UNL     1     -10.515   8.712  71.852  1.00  0.00    -0.340 C  
HETATM    7  C   UNL     1      -9.758   8.089  73.011  1.00  0.00    -0.348 C  
ENDBRANCH   3   6
BRANCH   5   8
HETATM    8  C   UNL     1      -9.951   8.611  68.990  1.00  0.00    -0.197 C  
HETATM    9  C   UNL     1      -8.674   8.930  69.779  1.00  0.00    -0.139 C  
HETATM   10  C   UNL     1      -8.571   8.103  68.532  1.00  0.00    -0.130 C  
BRANCH   8  11
HETATM   11  C   UNL     1     -10.640   9.812  68.325  1.00  0.00    -0.271 A  
HETATM   12  C   UNL     1     -10.296  10.169  67.009  1.00  0.00    -0.303 A  
HETATM   13  C   UNL     1     -10.697  11.387  66.453  1.00  0.00    -0.325 A  
HETATM   14  C   UNL     1     -11.499  10.680  69.022  1.00  0.00    -0.342 A  
HETATM   15  C   UNL     1     -11.470  12.269  67.200  1.00  0.00    -0.419 A  
HETATM   16  C   UNL     1     -11.892  11.906  68.476  1.00  0.00    -0.357 A  
ENDBRANCH   8  11
BRANCH  10  17
HETATM   17  C   UNL     1      -8.226   6.644  68.597  1.00  0.00    -0.119 C  
HETATM   18  N   UNL     1      -7.482   6.351  69.810  1.00  0.00    -0.083 NA 
HETATM   19  H2  UNL     1      -7.980   6.660  70.645  1.00  0.00     0.000 HD 
HETATM   20  H1  UNL     1      -7.247   5.359  69.854  1.00  0.00     0.000 HD 
ENDBRANCH  10  17
ENDBRANCH   5   8
ENDBRANCH   2   3
TORSDOF 5
ENDMDL
MODEL      154
REMARK 921   NORMALIZED FREE ENERGY PREDICTED BY IDOCK:   -3.12 KCAL/MOL
REMARK 922        TOTAL FREE ENERGY PREDICTED BY IDOCK:   -4.53 KCAL/MOL
REMARK 923 INTER-LIGAND FREE ENERGY PREDICTED BY IDOCK:   -4.04 KCAL/MOL
REMARK 924 INTRA-LIGAND FREE ENERGY PREDICTED BY IDOCK:   -0.49 KCAL/MOL
REMARK 927      BINDING AFFINITY PREDICTED BY RF-SCORE:    0.00 PKD
ROOT
HETATM    1  C   UNL     1      -8.046   8.157  74.012  1.00  0.00    -0.312 C  
HETATM    2  C   UNL     1      -7.753   8.398  72.542  1.00  0.00    -0.090 C  
ENDROOT
BRANCH   2   3
HETATM    3  N   UNL     1      -8.769   7.846  71.644  1.00  0.00    -0.117 N  
HETATM    4  O   UNL     1      -7.634   5.822  71.591  1.00  0.00    -0.095 OA 
HETATM    5  C   UNL     1      -8.574   6.519  71.219  1.00  0.00    -0.127 C  
BRANCH   3   6
HETATM    6  C   UNL     1      -9.698   8.745  70.954  1.00  0.00    -0.222 C  
HETATM    7  C   UNL     1     -10.961   9.155  71.691  1.00  0.00    -0.445 C  
ENDBRANCH   3   6
BRANCH   5   8
HETATM    8  C   UNL     1      -9.603   5.906  70.277  1.00  0.00    -0.199 C  
HETATM    9  C   UNL     1      -9.861   4.402  70.439  1.00  0.00    -0.286 C  
HETATM   10  C   UNL     1     -10.916   5.373  70.880  1.00  0.00    -0.119 C  
BRANCH   8  11
HETATM   11  C   UNL     1      -9.517   6.415  68.830  1.00  0.00    -0.127 A  
HETATM   12  C   UNL     1      -8.274   6.819  68.309  1.00  0.00    -0.115 A  
HETATM   13  C   UNL     1      -8.178   7.520  67.104  1.00  0.00    -0.114 A  
HETATM   14  C   UNL     1     -10.651   6.645  68.033  1.00  0.00    -0.300 A  
HETATM   15  C   UNL     1      -9.329   7.815  66.382  1.00  0.00    -0.237 A  
HETATM   16  C   UNL     1     -10.564   7.357  66.833  1.00  0.00    -0.375 A  
ENDBRANCH   8  11
BRANCH  10  17
HETATM   17  C   UNL     1     -11.231   5.566  72.334  1.00  0.00    -0.247 C  
HETATM   18  N   UNL     1     -12.574   6.096  72.498  1.00  0.00    -0.514 NA 
HETATM   19  H2  UNL     1     -13.270   5.513  72.034  1.00  0.00     0.000 HD 
HETATM   20  H1  UNL     1     -12.788   6.228  73.487  1.00  0.00     0.000 HD 
ENDBRANCH  10  17
ENDBRANCH   5   8
ENDBRANCH   2   3
TORSDOF 5
ENDMDL
MODEL      155
REMARK 921   NORMALIZED FREE ENERGY PREDICTED BY IDOCK:   -3.12 KCAL/MOL
REMARK 922        TOTAL FREE ENERGY PREDICTED BY IDOCK:   -4.53 KCAL/MOL
REMARK 923 INTER-LIGAND FREE ENERGY PREDICTED BY IDOCK:   -4.09 KCAL/MOL
REMARK 924 INTRA-LIGAND FREE ENERGY PREDICTED BY IDOCK:   -0.44 KCAL/MOL
REMARK 927      BINDING AFFINITY PREDICTED BY RF-SCORE:    0.00 PKD
ROOT
HETATM    1  C   UNL     1     -11.179  14.594  64.723  1.00  0.00    -0.395 C  
HETATM    2  C   UNL     1     -11.986  14.221  65.953  1.00  0.00    -0.391 C  
ENDROOT
BRANCH   2   3
HETATM    3  N   UNL     1     -11.214  14.269  67.196  1.00  0.00    -0.311 N  
HETATM    4  O   UNL     1     -12.180  16.312  67.727  1.00  0.00     0.655 OA 
HETATM    5  C   UNL     1     -11.397  15.407  68.003  1.00  0.00    -0.341 C  
BRANCH   3   6
HETATM    6  C   UNL     1     -10.066  13.376  67.376  1.00  0.00    -0.237 C  
HETATM    7  C   UNL     1     -10.296  11.886  67.195  1.00  0.00    -0.235 C  
ENDBRANCH   3   6
BRANCH   5   8
HETATM    8  C   UNL     1     -10.606  15.503  69.302  1.00  0.00    -0.236 C  
HETATM    9  C   UNL     1     -11.307  16.204  70.473  1.00  0.00    -0.392 C  
HETATM   10  C   UNL     1     -11.116  14.718  70.524  1.00  0.00    -0.131 C  
BRANCH   8  11
HETATM   11  C   UNL     1      -9.120  15.846  69.114  1.00  0.00    -0.255 A  
HETATM   12  C   UNL     1      -8.137  14.979  69.626  1.00  0.00    -0.049 A  
HETATM   13  C   UNL     1      -6.796  15.361  69.709  1.00  0.00    -0.162 A  
HETATM   14  C   UNL     1      -8.681  17.071  68.584  1.00  0.00    -0.261 A  
HETATM   15  C   UNL     1      -6.405  16.618  69.262  1.00  0.00    -0.202 A  
HETATM   16  C   UNL     1      -7.342  17.465  68.677  1.00  0.00    -0.244 A  
ENDBRANCH   8  11
BRANCH  10  17
HETATM   17  C   UNL     1     -12.284  13.782  70.407  1.00  0.00    -0.363 C  
HETATM   18  N   UNL     1     -11.830  12.402  70.379  1.00  0.00    -0.541 NA 
HETATM   19  H2  UNL     1     -11.246  12.179  71.184  1.00  0.00     0.000 HD 
HETATM   20  H1  UNL     1     -12.624  11.767  70.299  1.00  0.00     0.000 HD 
ENDBRANCH  10  17
ENDBRANCH   5   8
ENDBRANCH   2   3
TORSDOF 5
ENDMDL
MODEL      156
REMARK 921   NORMALIZED FREE ENERGY PREDICTED BY IDOCK:   -3.12 KCAL/MOL
REMARK 922        TOTAL FREE ENERGY PREDICTED BY IDOCK:   -4.53 KCAL/MOL
REMARK 923 INTER-LIGAND FREE ENERGY PREDICTED BY IDOCK:   -4.64 KCAL/MOL
REMARK 924 INTRA-LIGAND FREE ENERGY PREDICTED BY IDOCK:    0.11 KCAL/MOL
REMARK 927      BINDING AFFINITY PREDICTED BY RF-SCORE:    0.00 PKD
ROOT
HETATM    1  C   UNL     1      -8.800   6.537  66.149  1.00  0.00    -0.160 C  
HETATM    2  C   UNL     1      -9.779   6.489  67.308  1.00  0.00    -0.132 C  
ENDROOT
BRANCH   2   3
HETATM    3  N   UNL     1      -9.520   7.499  68.335  1.00  0.00    -0.148 N  
HETATM    4  O   UNL     1     -10.910   8.992  67.228  1.00  0.00    -0.223 OA 
HETATM    5  C   UNL     1     -10.150   8.745  68.160  1.00  0.00    -0.190 C  
BRANCH   3   6
HETATM    6  C   UNL     1      -8.391   7.331  69.254  1.00  0.00    -0.132 C  
HETATM    7  C   UNL     1      -8.239   5.989  69.947  1.00  0.00    -0.118 C  
ENDBRANCH   3   6
BRANCH   5   8
HETATM    8  C   UNL     1      -9.901   9.829  69.202  1.00  0.00    -0.192 C  
HETATM    9  C   UNL     1      -8.451   9.995  69.675  1.00  0.00    -0.193 C  
HETATM   10  C   UNL     1      -9.054  11.049  68.795  1.00  0.00    -0.161 C  
BRANCH   8  11
HETATM   11  C   UNL     1     -10.973   9.909  70.299  1.00  0.00    -0.366 A  
HETATM   12  C   UNL     1     -11.150   8.825  71.178  1.00  0.00    -0.340 A  
HETATM   13  C   UNL     1     -12.262   8.738  72.018  1.00  0.00    -0.447 A  
HETATM   14  C   UNL     1     -11.904  10.959  70.381  1.00  0.00    -0.449 A  
HETATM   15  C   UNL     1     -13.217   9.748  72.011  1.00  0.00    -0.557 A  
HETATM   16  C   UNL     1     -13.027  10.872  71.211  1.00  0.00    -0.492 A  
ENDBRANCH   8  11
BRANCH  10  17
HETATM   17  C   UNL     1      -8.594  11.230  67.378  1.00  0.00    -0.136 C  
HETATM   18  N   UNL     1      -9.619  11.895  66.591  1.00  0.00    -0.204 NA 
HETATM   19  H2  UNL     1      -9.906  12.778  67.012  1.00  0.00     0.000 HD 
HETATM   20  H1  UNL     1      -9.306  12.017  65.628  1.00  0.00     0.000 HD 
ENDBRANCH  10  17
ENDBRANCH   5   8
ENDBRANCH   2   3
TORSDOF 5
ENDMDL
MODEL      157
REMARK 921   NORMALIZED FREE ENERGY PREDICTED BY IDOCK:   -3.11 KCAL/MOL
REMARK 922        TOTAL FREE ENERGY PREDICTED BY IDOCK:   -4.51 KCAL/MOL
REMARK 923 INTER-LIGAND FREE ENERGY PREDICTED BY IDOCK:   -4.98 KCAL/MOL
REMARK 924 INTRA-LIGAND FREE ENERGY PREDICTED BY IDOCK:    0.46 KCAL/MOL
REMARK 927      BINDING AFFINITY PREDICTED BY RF-SCORE:    0.00 PKD
ROOT
HETATM    1  C   UNL     1      -7.442  12.672  67.441  1.00  0.00    -0.146 C  
HETATM    2  C   UNL     1      -8.868  12.853  67.928  1.00  0.00    -0.190 C  
ENDROOT
BRANCH   2   3
HETATM    3  N   UNL     1      -9.399  14.198  67.698  1.00  0.00    -0.203 N  
HETATM    4  O   UNL     1      -8.205  14.991  69.523  1.00  0.00    -0.190 OA 
HETATM    5  C   UNL     1      -8.991  15.195  68.602  1.00  0.00    -0.191 C  
BRANCH   3   6
HETATM    6  C   UNL     1     -10.560  14.383  66.823  1.00  0.00    -0.282 C  
HETATM    7  C   UNL     1     -10.347  14.230  65.327  1.00  0.00    -0.417 C  
ENDBRANCH   3   6
BRANCH   5   8
HETATM    8  C   UNL     1      -9.527  16.608  68.405  1.00  0.00    -0.231 C  
HETATM    9  C   UNL     1     -10.952  16.722  67.846  1.00  0.00    -0.260 C  
HETATM   10  C   UNL     1     -10.704  17.069  69.284  1.00  0.00    -0.226 C  
BRANCH   8  11
HETATM   11  C   UNL     1      -8.504  17.597  67.826  1.00  0.00    -0.227 A  
HETATM   12  C   UNL     1      -8.019  18.645  68.629  1.00  0.00    -0.356 A  
HETATM   13  C   UNL     1      -7.294  19.708  68.086  1.00  0.00    -0.337 A  
HETATM   14  C   UNL     1      -8.134  17.605  66.470  1.00  0.00    -0.306 A  
HETATM   15  C   UNL     1      -7.022  19.737  66.723  1.00  0.00    -0.225 A  
HETATM   16  C   UNL     1      -7.420  18.673  65.918  1.00  0.00    -0.215 A  
ENDBRANCH   8  11
BRANCH  10  17
HETATM   17  C   UNL     1     -11.226  16.201  70.391  1.00  0.00    -0.381 C  
HETATM   18  N   UNL     1     -12.667  16.051  70.283  1.00  0.00    -0.597 NA 
HETATM   19  H2  UNL     1     -12.944  15.702  69.366  1.00  0.00     0.000 HD 
HETATM   20  H1  UNL     1     -13.022  15.461  71.036  1.00  0.00     0.000 HD 
ENDBRANCH  10  17
ENDBRANCH   5   8
ENDBRANCH   2   3
TORSDOF 5
ENDMDL
MODEL      158
REMARK 921   NORMALIZED FREE ENERGY PREDICTED BY IDOCK:   -3.11 KCAL/MOL
REMARK 922        TOTAL FREE ENERGY PREDICTED BY IDOCK:   -4.51 KCAL/MOL
REMARK 923 INTER-LIGAND FREE ENERGY PREDICTED BY IDOCK:   -4.85 KCAL/MOL
REMARK 924 INTRA-LIGAND FREE ENERGY PREDICTED BY IDOCK:    0.34 KCAL/MOL
REMARK 927      BINDING AFFINITY PREDICTED BY RF-SCORE:    0.00 PKD
ROOT
HETATM    1  C   UNL     1      -6.472  12.372  69.486  1.00  0.00    -0.090 C  
HETATM    2  C   UNL     1      -7.226  12.858  68.262  1.00  0.00    -0.112 C  
ENDROOT
BRANCH   2   3
HETATM    3  N   UNL     1      -8.638  12.470  68.252  1.00  0.00    -0.184 N  
HETATM    4  O   UNL     1      -8.031  10.231  68.179  1.00  0.00    -0.106 OA 
HETATM    5  C   UNL     1      -8.907  11.090  68.190  1.00  0.00    -0.141 C  
BRANCH   3   6
HETATM    6  C   UNL     1      -9.666  13.468  67.946  1.00  0.00    -0.225 C  
HETATM    7  C   UNL     1     -10.095  14.404  69.062  1.00  0.00    -0.161 C  
ENDBRANCH   3   6
BRANCH   5   8
HETATM    8  C   UNL     1     -10.364  10.642  68.169  1.00  0.00    -0.203 C  
HETATM    9  C   UNL     1     -11.243  11.241  67.062  1.00  0.00    -0.324 C  
HETATM   10  C   UNL     1     -10.848   9.797  66.976  1.00  0.00    -0.165 C  
BRANCH   8  11
HETATM   11  C   UNL     1     -11.015  10.544  69.557  1.00  0.00    -0.312 A  
HETATM   12  C   UNL     1     -10.602   9.538  70.448  1.00  0.00    -0.333 A  
HETATM   13  C   UNL     1     -11.325   9.245  71.607  1.00  0.00    -0.467 A  
HETATM   14  C   UNL     1     -12.124  11.321  69.935  1.00  0.00    -0.414 A  
HETATM   15  C   UNL     1     -12.472   9.970  71.909  1.00  0.00    -0.408 A  
HETATM   16  C   UNL     1     -12.859  11.024  71.087  1.00  0.00    -0.491 A  
ENDBRANCH   8  11
BRANCH  10  17
HETATM   17  C   UNL     1      -9.886   9.319  65.929  1.00  0.00    -0.265 C  
HETATM   18  N   UNL     1      -9.688   7.883  66.037  1.00  0.00    -0.452 NA 
HETATM   19  H2  UNL     1     -10.572   7.375  66.000  1.00  0.00     0.000 HD 
HETATM   20  H1  UNL     1      -9.034   7.558  65.325  1.00  0.00     0.000 HD 
ENDBRANCH  10  17
ENDBRANCH   5   8
ENDBRANCH   2   3
TORSDOF 5
ENDMDL
MODEL      159
REMARK 921   NORMALIZED FREE ENERGY PREDICTED BY IDOCK:   -3.10 KCAL/MOL
REMARK 922        TOTAL FREE ENERGY PREDICTED BY IDOCK:   -4.50 KCAL/MOL
REMARK 923 INTER-LIGAND FREE ENERGY PREDICTED BY IDOCK:   -4.63 KCAL/MOL
REMARK 924 INTRA-LIGAND FREE ENERGY PREDICTED BY IDOCK:    0.13 KCAL/MOL
REMARK 927      BINDING AFFINITY PREDICTED BY RF-SCORE:    0.00 PKD
ROOT
HETATM    1  C   UNL     1      -6.593   8.560  70.052  1.00  0.00    -0.038 C  
HETATM    2  C   UNL     1      -7.859   9.242  70.536  1.00  0.00    -0.153 C  
ENDROOT
BRANCH   2   3
HETATM    3  N   UNL     1      -9.052   8.398  70.440  1.00  0.00    -0.145 N  
HETATM    4  O   UNL     1      -8.780   7.748  72.652  1.00  0.00    -0.122 OA 
HETATM    5  C   UNL     1      -9.400   7.672  71.594  1.00  0.00    -0.138 C  
BRANCH   3   6
HETATM    6  C   UNL     1      -9.599   8.057  69.124  1.00  0.00    -0.156 C  
HETATM    7  C   UNL     1     -10.519   9.065  68.460  1.00  0.00    -0.232 C  
ENDBRANCH   3   6
BRANCH   5   8
HETATM    8  C   UNL     1     -10.629   6.774  71.536  1.00  0.00    -0.245 C  
HETATM    9  C   UNL     1     -10.551   5.577  70.578  1.00  0.00    -0.339 C  
HETATM   10  C   UNL     1     -10.502   5.331  72.056  1.00  0.00    -0.283 C  
BRANCH   8  11
HETATM   11  C   UNL     1     -11.966   7.531  71.546  1.00  0.00    -0.336 A  
HETATM   12  C   UNL     1     -12.000   8.874  71.962  1.00  0.00    -0.439 A  
HETATM   13  C   UNL     1     -13.205   9.527  72.232  1.00  0.00    -0.507 A  
HETATM   14  C   UNL     1     -13.200   6.903  71.306  1.00  0.00    -0.237 A  
HETATM   15  C   UNL     1     -14.409   8.850  72.074  1.00  0.00    -0.406 A  
HETATM   16  C   UNL     1     -14.410   7.546  71.588  1.00  0.00    -0.621 A  
ENDBRANCH   8  11
BRANCH  10  17
HETATM   17  C   UNL     1      -9.241   4.859  72.721  1.00  0.00    -0.132 C  
HETATM   18  N   UNL     1      -8.578   3.858  71.903  1.00  0.00    -0.097 NA 
HETATM   19  H2  UNL     1      -8.404   4.197  70.957  1.00  0.00     0.000 HD 
HETATM   20  H1  UNL     1      -7.722   3.537  72.355  1.00  0.00     0.000 HD 
ENDBRANCH  10  17
ENDBRANCH   5   8
ENDBRANCH   2   3
TORSDOF 5
ENDMDL
MODEL      160
REMARK 921   NORMALIZED FREE ENERGY PREDICTED BY IDOCK:   -3.09 KCAL/MOL
REMARK 922        TOTAL FREE ENERGY PREDICTED BY IDOCK:   -4.49 KCAL/MOL
REMARK 923 INTER-LIGAND FREE ENERGY PREDICTED BY IDOCK:   -4.08 KCAL/MOL
REMARK 924 INTRA-LIGAND FREE ENERGY PREDICTED BY IDOCK:   -0.41 KCAL/MOL
REMARK 927      BINDING AFFINITY PREDICTED BY RF-SCORE:    0.00 PKD
ROOT
HETATM    1  C   UNL     1     -10.707   7.665  72.241  1.00  0.00    -0.311 C  
HETATM    2  C   UNL     1      -9.807   8.852  71.948  1.00  0.00    -0.294 C  
ENDROOT
BRANCH   2   3
HETATM    3  N   UNL     1      -9.533   9.041  70.523  1.00  0.00    -0.202 N  
HETATM    4  O   UNL     1     -11.752   9.617  70.164  1.00  0.00    -0.202 OA 
HETATM    5  C   UNL     1     -10.625   9.416  69.720  1.00  0.00    -0.231 C  
BRANCH   3   6
HETATM    6  C   UNL     1      -8.299   8.505  69.941  1.00  0.00    -0.123 C  
HETATM    7  C   UNL     1      -8.045   7.015  70.077  1.00  0.00    -0.128 C  
ENDBRANCH   3   6
BRANCH   5   8
HETATM    8  C   UNL     1     -10.386   9.615  68.228  1.00  0.00    -0.240 C  
HETATM    9  C   UNL     1     -11.214  10.715  67.549  1.00  0.00    -0.326 C  
HETATM   10  C   UNL     1      -9.747  10.936  67.763  1.00  0.00    -0.183 C  
BRANCH   8  11
HETATM   11  C   UNL     1     -10.234   8.310  67.432  1.00  0.00    -0.326 A  
HETATM   12  C   UNL     1     -11.017   7.193  67.775  1.00  0.00    -0.187 A  
HETATM   13  C   UNL     1     -10.744   5.923  67.261  1.00  0.00    -0.380 A  
HETATM   14  C   UNL     1      -9.233   8.120  66.464  1.00  0.00    -0.237 A  
HETATM   15  C   UNL     1      -9.687   5.746  66.375  1.00  0.00    -0.175 A  
HETATM   16  C   UNL     1      -8.946   6.848  65.957  1.00  0.00    -0.131 A  
ENDBRANCH   8  11
BRANCH  10  17
HETATM   17  C   UNL     1      -9.253  11.946  68.758  1.00  0.00     0.034 C  
HETATM   18  N   UNL     1     -10.301  12.901  69.077  1.00  0.00    -0.436 NA 
HETATM   19  H2  UNL     1     -11.151  12.437  69.398  1.00  0.00     0.000 HD 
HETATM   20  H1  UNL     1      -9.965  13.587  69.753  1.00  0.00     0.000 HD 
ENDBRANCH  10  17
ENDBRANCH   5   8
ENDBRANCH   2   3
TORSDOF 5
ENDMDL
MODEL      161
REMARK 921   NORMALIZED FREE ENERGY PREDICTED BY IDOCK:   -3.05 KCAL/MOL
REMARK 922        TOTAL FREE ENERGY PREDICTED BY IDOCK:   -4.43 KCAL/MOL
REMARK 923 INTER-LIGAND FREE ENERGY PREDICTED BY IDOCK:   -3.81 KCAL/MOL
REMARK 924 INTRA-LIGAND FREE ENERGY PREDICTED BY IDOCK:   -0.62 KCAL/MOL
REMARK 927      BINDING AFFINITY PREDICTED BY RF-SCORE:    0.00 PKD
ROOT
HETATM    1  C   UNL     1      -8.521   9.390  67.670  1.00  0.00    -0.119 C  
HETATM    2  C   UNL     1      -9.919   9.234  68.238  1.00  0.00    -0.173 C  
ENDROOT
BRANCH   2   3
HETATM    3  N   UNL     1      -9.993   8.304  69.366  1.00  0.00    -0.184 N  
HETATM    4  O   UNL     1     -10.792  10.005  70.728  1.00  0.00    -0.312 OA 
HETATM    5  C   UNL     1     -10.440   8.837  70.589  1.00  0.00    -0.210 C  
BRANCH   3   6
HETATM    6  C   UNL     1      -9.289   7.021  69.299  1.00  0.00    -0.145 C  
HETATM    7  C   UNL     1     -10.010   5.853  68.649  1.00  0.00    -0.188 C  
ENDBRANCH   3   6
BRANCH   5   8
HETATM    8  C   UNL     1     -10.523   7.905  71.792  1.00  0.00    -0.272 C  
HETATM    9  C   UNL     1     -11.631   8.209  72.810  1.00  0.00    -0.371 C  
HETATM   10  C   UNL     1     -11.763   7.003  71.929  1.00  0.00    -0.333 C  
BRANCH   8  11
HETATM   11  C   UNL     1      -9.161   7.517  72.387  1.00  0.00    -0.188 A  
HETATM   12  C   UNL     1      -8.953   6.204  72.848  1.00  0.00    -0.125 A  
HETATM   13  C   UNL     1      -7.839   5.868  73.620  1.00  0.00    -0.104 A  
HETATM   14  C   UNL     1      -8.145   8.454  72.640  1.00  0.00    -0.173 A  
HETATM   15  C   UNL     1      -6.895   6.839  73.934  1.00  0.00    -0.072 A  
HETATM   16  C   UNL     1      -7.034   8.127  73.424  1.00  0.00    -0.152 A  
ENDBRANCH   8  11
BRANCH  10  17
HETATM   17  C   UNL     1     -12.799   6.946  70.845  1.00  0.00    -0.061 C  
HETATM   18  N   UNL     1     -14.037   7.563  71.290  1.00  0.00    -0.634 NA 
HETATM   19  H2  UNL     1     -13.887   8.516  71.622  1.00  0.00     0.000 HD 
HETATM   20  H1  UNL     1     -14.741   7.523  70.553  1.00  0.00     0.000 HD 
ENDBRANCH  10  17
ENDBRANCH   5   8
ENDBRANCH   2   3
TORSDOF 5
ENDMDL
MODEL      162
REMARK 921   NORMALIZED FREE ENERGY PREDICTED BY IDOCK:   -3.03 KCAL/MOL
REMARK 922        TOTAL FREE ENERGY PREDICTED BY IDOCK:   -4.41 KCAL/MOL
REMARK 923 INTER-LIGAND FREE ENERGY PREDICTED BY IDOCK:   -3.84 KCAL/MOL
REMARK 924 INTRA-LIGAND FREE ENERGY PREDICTED BY IDOCK:   -0.57 KCAL/MOL
REMARK 927      BINDING AFFINITY PREDICTED BY RF-SCORE:    0.00 PKD
ROOT
HETATM    1  C   UNL     1      -6.448   8.315  67.054  1.00  0.00    -0.057 C  
HETATM    2  C   UNL     1      -6.845   7.122  67.904  1.00  0.00    -0.074 C  
ENDROOT
BRANCH   2   3
HETATM    3  N   UNL     1      -7.853   7.436  68.918  1.00  0.00    -0.115 N  
HETATM    4  O   UNL     1      -9.481   6.393  67.633  1.00  0.00    -0.120 OA 
HETATM    5  C   UNL     1      -9.168   7.019  68.642  1.00  0.00    -0.131 C  
BRANCH   3   6
HETATM    6  C   UNL     1      -7.565   8.438  69.947  1.00  0.00    -0.076 C  
HETATM    7  C   UNL     1      -6.375   8.193  70.857  1.00  0.00    -0.037 C  
ENDBRANCH   3   6
BRANCH   5   8
HETATM    8  C   UNL     1     -10.252   7.332  69.667  1.00  0.00    -0.214 C  
HETATM    9  C   UNL     1     -11.360   6.282  69.826  1.00  0.00    -0.506 C  
HETATM   10  C   UNL     1     -10.347   6.443  70.920  1.00  0.00    -0.246 C  
BRANCH   8  11
HETATM   11  C   UNL     1     -10.719   8.796  69.666  1.00  0.00    -0.212 A  
HETATM   12  C   UNL     1     -11.173   9.380  70.863  1.00  0.00    -0.393 A  
HETATM   13  C   UNL     1     -11.839  10.608  70.870  1.00  0.00    -0.433 A  
HETATM   14  C   UNL     1     -10.862   9.550  68.489  1.00  0.00    -0.175 A  
HETATM   15  C   UNL     1     -12.049  11.289  69.677  1.00  0.00    -0.391 A  
HETATM   16  C   UNL     1     -11.540  10.773  68.488  1.00  0.00    -0.325 A  
ENDBRANCH   8  11
BRANCH  10  17
HETATM   17  C   UNL     1      -9.323   5.380  71.191  1.00  0.00    -0.150 C  
HETATM   18  N   UNL     1      -9.856   4.067  70.871  1.00  0.00    -0.182 NA 
HETATM   19  H2  UNL     1     -10.204   4.022  69.913  1.00  0.00     0.000 HD 
HETATM   20  H1  UNL     1      -9.161   3.344  71.055  1.00  0.00     0.000 HD 
ENDBRANCH  10  17
ENDBRANCH   5   8
ENDBRANCH   2   3
TORSDOF 5
ENDMDL
MODEL      163
REMARK 921   NORMALIZED FREE ENERGY PREDICTED BY IDOCK:   -3.03 KCAL/MOL
REMARK 922        TOTAL FREE ENERGY PREDICTED BY IDOCK:   -4.41 KCAL/MOL
REMARK 923 INTER-LIGAND FREE ENERGY PREDICTED BY IDOCK:   -4.75 KCAL/MOL
REMARK 924 INTRA-LIGAND FREE ENERGY PREDICTED BY IDOCK:    0.34 KCAL/MOL
REMARK 927      BINDING AFFINITY PREDICTED BY RF-SCORE:    0.00 PKD
ROOT
HETATM    1  C   UNL     1     -11.890  12.873  69.718  1.00  0.00    -0.380 C  
HETATM    2  C   UNL     1     -12.152  14.078  68.832  1.00  0.00    -0.316 C  
ENDROOT
BRANCH   2   3
HETATM    3  N   UNL     1     -11.059  14.372  67.904  1.00  0.00    -0.266 N  
HETATM    4  O   UNL     1     -10.191  15.918  69.403  1.00  0.00    -0.227 OA 
HETATM    5  C   UNL     1     -10.134  15.350  68.316  1.00  0.00    -0.218 C  
BRANCH   3   6
HETATM    6  C   UNL     1     -11.157  13.948  66.505  1.00  0.00    -0.308 C  
HETATM    7  C   UNL     1     -12.535  13.933  65.868  1.00  0.00    -0.519 C  
ENDBRANCH   3   6
BRANCH   5   8
HETATM    8  C   UNL     1      -8.984  15.693  67.377  1.00  0.00    -0.205 C  
HETATM    9  C   UNL     1      -9.335  15.801  65.886  1.00  0.00    -0.356 C  
HETATM   10  C   UNL     1      -9.018  17.051  66.651  1.00  0.00    -0.280 C  
BRANCH   8  11
HETATM   11  C   UNL     1      -7.667  14.973  67.700  1.00  0.00    -0.186 A  
HETATM   12  C   UNL     1      -7.650  13.570  67.805  1.00  0.00    -0.163 A  
HETATM   13  C   UNL     1      -6.554  12.889  68.340  1.00  0.00    -0.085 A  
HETATM   14  C   UNL     1      -6.490  15.656  68.053  1.00  0.00    -0.151 A  
HETATM   15  C   UNL     1      -5.438  13.600  68.768  1.00  0.00    -0.073 A  
HETATM   16  C   UNL     1      -5.395  14.982  68.602  1.00  0.00    -0.094 A  
ENDBRANCH   8  11
BRANCH  10  17
HETATM   17  C   UNL     1     -10.084  18.063  66.957  1.00  0.00    -0.346 C  
HETATM   18  N   UNL     1     -10.584  18.661  65.732  1.00  0.00    -0.580 NA 
HETATM   19  H2  UNL     1     -10.909  17.956  65.071  1.00  0.00     0.000 HD 
HETATM   20  H1  UNL     1     -11.308  19.349  65.940  1.00  0.00     0.000 HD 
ENDBRANCH  10  17
ENDBRANCH   5   8
ENDBRANCH   2   3
TORSDOF 5
ENDMDL
MODEL      164
REMARK 921   NORMALIZED FREE ENERGY PREDICTED BY IDOCK:   -3.03 KCAL/MOL
REMARK 922        TOTAL FREE ENERGY PREDICTED BY IDOCK:   -4.40 KCAL/MOL
REMARK 923 INTER-LIGAND FREE ENERGY PREDICTED BY IDOCK:   -4.77 KCAL/MOL
REMARK 924 INTRA-LIGAND FREE ENERGY PREDICTED BY IDOCK:    0.37 KCAL/MOL
REMARK 927      BINDING AFFINITY PREDICTED BY RF-SCORE:    0.00 PKD
ROOT
HETATM    1  C   UNL     1     -11.721   7.437  70.733  1.00  0.00    -0.305 C  
HETATM    2  C   UNL     1     -10.980   6.672  69.652  1.00  0.00    -0.313 C  
ENDROOT
BRANCH   2   3
HETATM    3  N   UNL     1     -10.096   7.511  68.841  1.00  0.00    -0.186 N  
HETATM    4  O   UNL     1     -11.236   6.871  66.923  1.00  0.00    -0.353 OA 
HETATM    5  C   UNL     1     -10.328   7.506  67.453  1.00  0.00    -0.276 C  
BRANCH   3   6
HETATM    6  C   UNL     1      -8.839   8.007  69.408  1.00  0.00    -0.144 C  
HETATM    7  C   UNL     1      -8.083   7.092  70.354  1.00  0.00    -0.119 C  
ENDBRANCH   3   6
BRANCH   5   8
HETATM    8  C   UNL     1      -9.426   8.359  66.569  1.00  0.00    -0.284 C  
HETATM    9  C   UNL     1      -7.920   8.272  66.852  1.00  0.00    -0.099 C  
HETATM   10  C   UNL     1      -8.464   7.643  65.604  1.00  0.00    -0.152 C  
BRANCH   8  11
HETATM   11  C   UNL     1      -9.970   9.768  66.285  1.00  0.00    -0.331 A  
HETATM   12  C   UNL     1     -10.627  10.478  67.307  1.00  0.00    -0.317 A  
HETATM   13  C   UNL     1     -11.355  11.639  67.039  1.00  0.00    -0.373 A  
HETATM   14  C   UNL     1      -9.981  10.336  65.000  1.00  0.00    -0.393 A  
HETATM   15  C   UNL     1     -11.427  12.128  65.739  1.00  0.00    -0.414 A  
HETATM   16  C   UNL     1     -10.720  11.491  64.722  1.00  0.00    -0.366 A  
ENDBRANCH   8  11
BRANCH  10  17
HETATM   17  C   UNL     1      -8.503   6.151  65.443  1.00  0.00    -0.138 C  
HETATM   18  N   UNL     1      -8.190   5.780  64.073  1.00  0.00    -0.210 NA 
HETATM   19  H2  UNL     1      -7.298   6.171  63.769  1.00  0.00     0.000 HD 
HETATM   20  H1  UNL     1      -8.217   4.766  63.963  1.00  0.00     0.000 HD 
ENDBRANCH  10  17
ENDBRANCH   5   8
ENDBRANCH   2   3
TORSDOF 5
ENDMDL
MODEL      165
REMARK 921   NORMALIZED FREE ENERGY PREDICTED BY IDOCK:   -3.01 KCAL/MOL
REMARK 922        TOTAL FREE ENERGY PREDICTED BY IDOCK:   -4.39 KCAL/MOL
REMARK 923 INTER-LIGAND FREE ENERGY PREDICTED BY IDOCK:   -3.88 KCAL/MOL
REMARK 924 INTRA-LIGAND FREE ENERGY PREDICTED BY IDOCK:   -0.51 KCAL/MOL
REMARK 927      BINDING AFFINITY PREDICTED BY RF-SCORE:    0.00 PKD
ROOT
HETATM    1  C   UNL     1     -10.985   6.541  67.239  1.00  0.00    -0.475 C  
HETATM    2  C   UNL     1      -9.801   6.303  68.159  1.00  0.00    -0.129 C  
ENDROOT
BRANCH   2   3
HETATM    3  N   UNL     1     -10.177   6.135  69.564  1.00  0.00    -0.183 N  
HETATM    4  O   UNL     1      -9.668   8.362  69.976  1.00  0.00    -0.174 OA 
HETATM    5  C   UNL     1     -10.043   7.268  70.388  1.00  0.00    -0.192 C  
BRANCH   3   6
HETATM    6  C   UNL     1     -10.313   4.788  70.126  1.00  0.00    -0.098 C  
HETATM    7  C   UNL     1      -9.404   3.702  69.581  1.00  0.00    -0.243 C  
ENDBRANCH   3   6
BRANCH   5   8
HETATM    8  C   UNL     1     -10.415   7.135  71.860  1.00  0.00    -0.220 C  
HETATM    9  C   UNL     1     -10.952   8.401  72.541  1.00  0.00    -0.388 C  
HETATM   10  C   UNL     1     -11.897   7.274  72.252  1.00  0.00    -0.287 C  
BRANCH   8  11
HETATM   11  C   UNL     1      -9.425   6.302  72.689  1.00  0.00    -0.148 A  
HETATM   12  C   UNL     1      -8.057   6.324  72.365  1.00  0.00    -0.104 A  
HETATM   13  C   UNL     1      -7.160   5.403  72.912  1.00  0.00    -0.089 A  
HETATM   14  C   UNL     1      -9.837   5.387  73.674  1.00  0.00    -0.170 A  
HETATM   15  C   UNL     1      -7.613   4.448  73.815  1.00  0.00    -0.081 A  
HETATM   16  C   UNL     1      -8.947   4.454  74.215  1.00  0.00    -0.105 A  
ENDBRANCH   8  11
BRANCH  10  17
HETATM   17  C   UNL     1     -12.962   7.406  71.203  1.00  0.00    -0.240 C  
HETATM   18  N   UNL     1     -13.556   8.732  71.246  1.00  0.00    -0.553 NA 
HETATM   19  H2  UNL     1     -12.852   9.465  71.165  1.00  0.00     0.000 HD 
HETATM   20  H1  UNL     1     -14.281   8.822  70.533  1.00  0.00     0.000 HD 
ENDBRANCH  10  17
ENDBRANCH   5   8
ENDBRANCH   2   3
TORSDOF 5
ENDMDL
MODEL      166
REMARK 921   NORMALIZED FREE ENERGY PREDICTED BY IDOCK:   -2.99 KCAL/MOL
REMARK 922        TOTAL FREE ENERGY PREDICTED BY IDOCK:   -4.36 KCAL/MOL
REMARK 923 INTER-LIGAND FREE ENERGY PREDICTED BY IDOCK:   -4.05 KCAL/MOL
REMARK 924 INTRA-LIGAND FREE ENERGY PREDICTED BY IDOCK:   -0.30 KCAL/MOL
REMARK 927      BINDING AFFINITY PREDICTED BY RF-SCORE:    0.00 PKD
ROOT
HETATM    1  C   UNL     1      -7.113   9.241  66.523  1.00  0.00    -0.085 C  
HETATM    2  C   UNL     1      -8.228  10.237  66.261  1.00  0.00    -0.131 C  
ENDROOT
BRANCH   2   3
HETATM    3  N   UNL     1      -8.882  10.717  67.480  1.00  0.00    -0.132 N  
HETATM    4  O   UNL     1     -10.744   9.415  67.002  1.00  0.00    -0.229 OA 
HETATM    5  C   UNL     1     -10.178  10.228  67.728  1.00  0.00    -0.187 C  
BRANCH   3   6
HETATM    6  C   UNL     1      -8.364  11.902  68.167  1.00  0.00    -0.161 C  
HETATM    7  C   UNL     1      -8.086  13.138  67.330  1.00  0.00    -0.151 C  
ENDBRANCH   3   6
BRANCH   5   8
HETATM    8  C   UNL     1     -10.901  10.708  68.981  1.00  0.00    -0.277 C  
HETATM    9  C   UNL     1     -11.739   9.659  69.725  1.00  0.00     0.057 C  
HETATM   10  C   UNL     1     -10.457  10.137  70.340  1.00  0.00    -0.237 C  
BRANCH   8  11
HETATM   11  C   UNL     1     -11.540  12.099  68.849  1.00  0.00    -0.377 A  
HETATM   12  C   UNL     1     -11.690  12.675  67.575  1.00  0.00    -0.429 A  
HETATM   13  C   UNL     1     -12.024  14.022  67.416  1.00  0.00    -0.439 A  
HETATM   14  C   UNL     1     -11.849  12.904  69.958  1.00  0.00    -0.356 A  
HETATM   15  C   UNL     1     -12.234  14.820  68.535  1.00  0.00    -0.114 A  
HETATM   16  C   UNL     1     -12.171  14.257  69.806  1.00  0.00    -0.390 A  
ENDBRANCH   8  11
BRANCH  10  17
HETATM   17  C   UNL     1      -9.264   9.232  70.445  1.00  0.00    -0.247 C  
HETATM   18  N   UNL     1      -9.550   7.941  69.843  1.00  0.00    -0.168 NA 
HETATM   19  H2  UNL     1      -9.872   8.034  68.880  1.00  0.00     0.000 HD 
HETATM   20  H1  UNL     1      -8.739   7.326  69.914  1.00  0.00     0.000 HD 
ENDBRANCH  10  17
ENDBRANCH   5   8
ENDBRANCH   2   3
TORSDOF 5
ENDMDL
MODEL      167
REMARK 921   NORMALIZED FREE ENERGY PREDICTED BY IDOCK:   -2.98 KCAL/MOL
REMARK 922        TOTAL FREE ENERGY PREDICTED BY IDOCK:   -4.34 KCAL/MOL
REMARK 923 INTER-LIGAND FREE ENERGY PREDICTED BY IDOCK:   -4.02 KCAL/MOL
REMARK 924 INTRA-LIGAND FREE ENERGY PREDICTED BY IDOCK:   -0.32 KCAL/MOL
REMARK 927      BINDING AFFINITY PREDICTED BY RF-SCORE:    0.00 PKD
ROOT
HETATM    1  C   UNL     1     -10.043   4.852  67.564  1.00  0.00    -0.184 C  
HETATM    2  C   UNL     1     -10.892   6.108  67.633  1.00  0.00    -0.332 C  
ENDROOT
BRANCH   2   3
HETATM    3  N   UNL     1     -10.218   7.236  68.280  1.00  0.00    -0.174 N  
HETATM    4  O   UNL     1     -11.625   7.035  70.115  1.00  0.00    -0.282 OA 
HETATM    5  C   UNL     1     -10.708   7.617  69.542  1.00  0.00    -0.209 C  
BRANCH   3   6
HETATM    6  C   UNL     1      -9.358   8.121  67.489  1.00  0.00    -0.140 C  
HETATM    7  C   UNL     1      -7.887   7.763  67.381  1.00  0.00    -0.118 C  
ENDBRANCH   3   6
BRANCH   5   8
HETATM    8  C   UNL     1     -10.041   8.792  70.248  1.00  0.00    -0.214 C  
HETATM    9  C   UNL     1     -10.073   8.770  71.782  1.00  0.00    -0.403 C  
HETATM   10  C   UNL     1      -8.774   8.519  71.077  1.00  0.00    -0.209 C  
BRANCH   8  11
HETATM   11  C   UNL     1     -10.313  10.157  69.596  1.00  0.00    -0.278 A  
HETATM   12  C   UNL     1     -11.640  10.584  69.405  1.00  0.00    -0.318 A  
HETATM   13  C   UNL     1     -11.946  11.683  68.600  1.00  0.00    -0.311 A  
HETATM   14  C   UNL     1      -9.297  10.949  69.034  1.00  0.00    -0.144 A  
HETATM   15  C   UNL     1     -10.924  12.393  67.979  1.00  0.00    -0.262 A  
HETATM   16  C   UNL     1      -9.598  12.042  68.215  1.00  0.00    -0.204 A  
ENDBRANCH   8  11
BRANCH  10  17
HETATM   17  C   UNL     1      -8.137   7.160  71.087  1.00  0.00    -0.104 C  
HETATM   18  N   UNL     1      -8.889   6.252  71.937  1.00  0.00    -0.139 NA 
HETATM   19  H2  UNL     1      -9.872   6.208  71.668  1.00  0.00     0.000 HD 
HETATM   20  H1  UNL     1      -8.456   5.328  71.944  1.00  0.00     0.000 HD 
ENDBRANCH  10  17
ENDBRANCH   5   8
ENDBRANCH   2   3
TORSDOF 5
ENDMDL
MODEL      168
REMARK 921   NORMALIZED FREE ENERGY PREDICTED BY IDOCK:   -2.96 KCAL/MOL
REMARK 922        TOTAL FREE ENERGY PREDICTED BY IDOCK:   -4.31 KCAL/MOL
REMARK 923 INTER-LIGAND FREE ENERGY PREDICTED BY IDOCK:   -4.71 KCAL/MOL
REMARK 924 INTRA-LIGAND FREE ENERGY PREDICTED BY IDOCK:    0.40 KCAL/MOL
REMARK 927      BINDING AFFINITY PREDICTED BY RF-SCORE:    0.00 PKD
ROOT
HETATM    1  C   UNL     1     -10.309   8.835  66.672  1.00  0.00    -0.298 C  
HETATM    2  C   UNL     1      -9.746   9.577  67.871  1.00  0.00    -0.147 C  
ENDROOT
BRANCH   2   3
HETATM    3  N   UNL     1      -9.885  11.032  67.776  1.00  0.00    -0.171 N  
HETATM    4  O   UNL     1      -8.096  11.114  66.299  1.00  0.00    -0.168 OA 
HETATM    5  C   UNL     1      -8.960  11.695  66.948  1.00  0.00    -0.191 C  
BRANCH   3   6
HETATM    6  C   UNL     1     -10.684  11.754  68.769  1.00  0.00    -0.221 C  
HETATM    7  C   UNL     1     -11.241  10.961  69.938  1.00  0.00    -0.355 C  
ENDBRANCH   3   6
BRANCH   5   8
HETATM    8  C   UNL     1      -9.062  13.211  66.827  1.00  0.00    -0.214 C  
HETATM    9  C   UNL     1      -9.105  13.996  68.145  1.00  0.00    -0.192 C  
HETATM   10  C   UNL     1      -7.869  14.061  67.299  1.00  0.00    -0.143 C  
BRANCH   8  11
HETATM   11  C   UNL     1     -10.027  13.694  65.733  1.00  0.00    -0.277 A  
HETATM   12  C   UNL     1     -10.067  15.060  65.397  1.00  0.00    -0.396 A  
HETATM   13  C   UNL     1     -11.089  15.588  64.604  1.00  0.00    -0.373 A  
HETATM   14  C   UNL     1     -10.995  12.861  65.147  1.00  0.00    -0.316 A  
HETATM   15  C   UNL     1     -12.087  14.754  64.114  1.00  0.00    -0.323 A  
HETATM   16  C   UNL     1     -12.028  13.386  64.364  1.00  0.00    -0.460 A  
ENDBRANCH   8  11
BRANCH  10  17
HETATM   17  C   UNL     1      -6.590  13.414  67.745  1.00  0.00    -0.164 C  
HETATM   18  N   UNL     1      -5.453  14.260  67.424  1.00  0.00    -0.304 NA 
HETATM   19  H2  UNL     1      -5.557  15.198  67.810  1.00  0.00     0.000 HD 
HETATM   20  H1  UNL     1      -4.584  13.820  67.727  1.00  0.00     0.000 HD 
ENDBRANCH  10  17
ENDBRANCH   5   8
ENDBRANCH   2   3
TORSDOF 5
ENDMDL
MODEL      169
REMARK 921   NORMALIZED FREE ENERGY PREDICTED BY IDOCK:   -2.94 KCAL/MOL
REMARK 922        TOTAL FREE ENERGY PREDICTED BY IDOCK:   -4.30 KCAL/MOL
REMARK 923 INTER-LIGAND FREE ENERGY PREDICTED BY IDOCK:   -4.53 KCAL/MOL
REMARK 924 INTRA-LIGAND FREE ENERGY PREDICTED BY IDOCK:    0.23 KCAL/MOL
REMARK 927      BINDING AFFINITY PREDICTED BY RF-SCORE:    0.00 PKD
ROOT
HETATM    1  C   UNL     1     -10.226   7.710  68.971  1.00  0.00    -0.211 C  
HETATM    2  C   UNL     1     -10.660   9.138  69.247  1.00  0.00    -0.216 C  
ENDROOT
BRANCH   2   3
HETATM    3  N   UNL     1      -9.889  10.138  68.506  1.00  0.00    -0.150 N  
HETATM    4  O   UNL     1     -11.838  10.916  67.514  1.00  0.00    -0.524 OA 
HETATM    5  C   UNL     1     -10.618  10.972  67.638  1.00  0.00    -0.217 C  
BRANCH   3   6
HETATM    6  C   UNL     1      -8.433  10.006  68.403  1.00  0.00    -0.112 C  
HETATM    7  C   UNL     1      -7.613  10.240  69.659  1.00  0.00    -0.167 C  
ENDBRANCH   3   6
BRANCH   5   8
HETATM    8  C   UNL     1      -9.854  12.022  66.839  1.00  0.00    -0.217 C  
HETATM    9  C   UNL     1      -8.508  11.579  66.249  1.00  0.00    -0.108 C  
HETATM   10  C   UNL     1      -9.671  11.795  65.328  1.00  0.00    -0.236 C  
BRANCH   8  11
HETATM   11  C   UNL     1      -9.879  13.428  67.457  1.00  0.00    -0.227 A  
HETATM   12  C   UNL     1      -8.813  13.847  68.275  1.00  0.00    -0.185 A  
HETATM   13  C   UNL     1      -8.902  15.000  69.058  1.00  0.00    -0.205 A  
HETATM   14  C   UNL     1     -10.995  14.278  67.373  1.00  0.00    -0.301 A  
HETATM   15  C   UNL     1     -10.057  15.773  69.026  1.00  0.00    -0.225 A  
HETATM   16  C   UNL     1     -11.095  15.426  68.165  1.00  0.00    -0.309 A  
ENDBRANCH   8  11
BRANCH  10  17
HETATM   17  C   UNL     1     -10.335  10.641  64.635  1.00  0.00    -0.283 C  
HETATM   18  N   UNL     1     -11.188  11.116  63.559  1.00  0.00    -0.638 NA 
HETATM   19  H2  UNL     1     -10.677  11.708  62.904  1.00  0.00     0.000 HD 
HETATM   20  H1  UNL     1     -11.640  10.331  63.089  1.00  0.00     0.000 HD 
ENDBRANCH  10  17
ENDBRANCH   5   8
ENDBRANCH   2   3
TORSDOF 5
ENDMDL
MODEL      170
REMARK 921   NORMALIZED FREE ENERGY PREDICTED BY IDOCK:   -2.94 KCAL/MOL
REMARK 922        TOTAL FREE ENERGY PREDICTED BY IDOCK:   -4.29 KCAL/MOL
REMARK 923 INTER-LIGAND FREE ENERGY PREDICTED BY IDOCK:   -4.21 KCAL/MOL
REMARK 924 INTRA-LIGAND FREE ENERGY PREDICTED BY IDOCK:   -0.08 KCAL/MOL
REMARK 927      BINDING AFFINITY PREDICTED BY RF-SCORE:    0.00 PKD
ROOT
HETATM    1  C   UNL     1     -11.050  16.181  65.168  1.00  0.00    -0.256 C  
HETATM    2  C   UNL     1      -9.972  15.122  65.031  1.00  0.00    -0.143 C  
ENDROOT
BRANCH   2   3
HETATM    3  N   UNL     1     -10.255  13.897  65.782  1.00  0.00    -0.308 N  
HETATM    4  O   UNL     1      -8.428  14.307  67.154  1.00  0.00    -0.203 OA 
HETATM    5  C   UNL     1      -9.372  13.591  66.834  1.00  0.00    -0.253 C  
BRANCH   3   6
HETATM    6  C   UNL     1     -11.161  12.892  65.222  1.00  0.00    -0.288 C  
HETATM    7  C   UNL     1     -12.636  13.002  65.565  1.00  0.00    -0.422 C  
ENDBRANCH   3   6
BRANCH   5   8
HETATM    8  C   UNL     1      -9.624  12.320  67.637  1.00  0.00    -0.191 C  
HETATM    9  C   UNL     1      -9.753  11.021  66.830  1.00  0.00    -0.215 C  
HETATM   10  C   UNL     1      -8.524  11.243  67.660  1.00  0.00    -0.124 C  
BRANCH   8  11
HETATM   11  C   UNL     1     -10.625  12.490  68.790  1.00  0.00    -0.204 A  
HETATM   12  C   UNL     1     -11.141  11.351  69.435  1.00  0.00    -0.301 A  
HETATM   13  C   UNL     1     -12.231  11.433  70.305  1.00  0.00    -0.433 A  
HETATM   14  C   UNL     1     -11.179  13.732  69.143  1.00  0.00    -0.307 A  
HETATM   15  C   UNL     1     -12.819  12.666  70.563  1.00  0.00     0.072 A  
HETATM   16  C   UNL     1     -12.279  13.820  70.002  1.00  0.00    -0.407 A  
ENDBRANCH   8  11
BRANCH  10  17
HETATM   17  C   UNL     1      -7.190  11.490  67.018  1.00  0.00    -0.146 C  
HETATM   18  N   UNL     1      -6.378  12.361  67.850  1.00  0.00    -0.082 NA 
HETATM   19  H2  UNL     1      -6.281  11.997  68.798  1.00  0.00     0.000 HD 
HETATM   20  H1  UNL     1      -5.472  12.529  67.414  1.00  0.00     0.000 HD 
ENDBRANCH  10  17
ENDBRANCH   5   8
ENDBRANCH   2   3
TORSDOF 5
ENDMDL
MODEL      171
REMARK 921   NORMALIZED FREE ENERGY PREDICTED BY IDOCK:   -2.93 KCAL/MOL
REMARK 922        TOTAL FREE ENERGY PREDICTED BY IDOCK:   -4.27 KCAL/MOL
REMARK 923 INTER-LIGAND FREE ENERGY PREDICTED BY IDOCK:   -3.82 KCAL/MOL
REMARK 924 INTRA-LIGAND FREE ENERGY PREDICTED BY IDOCK:   -0.46 KCAL/MOL
REMARK 927      BINDING AFFINITY PREDICTED BY RF-SCORE:    0.00 PKD
ROOT
HETATM    1  C   UNL     1     -10.803   5.750  71.175  1.00  0.00    -0.316 C  
HETATM    2  C   UNL     1     -11.608   7.036  71.151  1.00  0.00    -0.312 C  
ENDROOT
BRANCH   2   3
HETATM    3  N   UNL     1     -10.835   8.202  70.718  1.00  0.00    -0.224 N  
HETATM    4  O   UNL     1     -10.910   7.448  68.524  1.00  0.00    -0.143 OA 
HETATM    5  C   UNL     1     -10.532   8.278  69.346  1.00  0.00    -0.220 C  
BRANCH   3   6
HETATM    6  C   UNL     1     -10.120   9.011  71.709  1.00  0.00    -0.303 C  
HETATM    7  C   UNL     1      -8.959   8.364  72.442  1.00  0.00    -0.309 C  
ENDBRANCH   3   6
BRANCH   5   8
HETATM    8  C   UNL     1      -9.722   9.471  68.854  1.00  0.00    -0.166 C  
HETATM    9  C   UNL     1     -10.126  10.050  67.491  1.00  0.00    -0.243 C  
HETATM   10  C   UNL     1     -10.431  10.832  68.733  1.00  0.00    -0.221 C  
BRANCH   8  11
HETATM   11  C   UNL     1      -8.211   9.357  69.107  1.00  0.00    -0.112 A  
HETATM   12  C   UNL     1      -7.572   8.114  68.947  1.00  0.00    -0.098 A  
HETATM   13  C   UNL     1      -6.270   7.896  69.403  1.00  0.00    -0.034 A  
HETATM   14  C   UNL     1      -7.446  10.407  69.644  1.00  0.00    -0.160 A  
HETATM   15  C   UNL     1      -5.569   8.929  70.016  1.00  0.00    -0.028 A  
HETATM   16  C   UNL     1      -6.147  10.192  70.115  1.00  0.00    -0.077 A  
ENDBRANCH   8  11
BRANCH  10  17
HETATM   17  C   UNL     1     -11.843  11.011  69.208  1.00  0.00    -0.340 C  
HETATM   18  N   UNL     1     -11.886  11.907  70.351  1.00  0.00    -0.509 NA 
HETATM   19  H2  UNL     1     -11.438  12.801  70.149  1.00  0.00     0.000 HD 
HETATM   20  H1  UNL     1     -12.845  12.028  70.675  1.00  0.00     0.000 HD 
ENDBRANCH  10  17
ENDBRANCH   5   8
ENDBRANCH   2   3
TORSDOF 5
ENDMDL
MODEL      172
REMARK 921   NORMALIZED FREE ENERGY PREDICTED BY IDOCK:   -2.92 KCAL/MOL
REMARK 922        TOTAL FREE ENERGY PREDICTED BY IDOCK:   -4.26 KCAL/MOL
REMARK 923 INTER-LIGAND FREE ENERGY PREDICTED BY IDOCK:   -3.93 KCAL/MOL
REMARK 924 INTRA-LIGAND FREE ENERGY PREDICTED BY IDOCK:   -0.32 KCAL/MOL
REMARK 927      BINDING AFFINITY PREDICTED BY RF-SCORE:    0.00 PKD
ROOT
HETATM    1  C   UNL     1      -5.630  15.046  69.630  1.00  0.00    -0.098 C  
HETATM    2  C   UNL     1      -7.114  15.165  69.923  1.00  0.00    -0.119 C  
ENDROOT
BRANCH   2   3
HETATM    3  N   UNL     1      -7.961  14.490  68.938  1.00  0.00    -0.141 N  
HETATM    4  O   UNL     1      -9.673  15.998  69.365  1.00  0.00    -0.247 OA 
HETATM    5  C   UNL     1      -9.256  15.011  68.765  1.00  0.00    -0.200 C  
BRANCH   3   6
HETATM    6  C   UNL     1      -7.602  13.151  68.464  1.00  0.00    -0.122 C  
HETATM    7  C   UNL     1      -6.945  13.038  67.100  1.00  0.00     0.092 C  
ENDBRANCH   3   6
BRANCH   5   8
HETATM    8  C   UNL     1     -10.176  14.333  67.756  1.00  0.00    -0.235 C  
HETATM    9  C   UNL     1     -11.301  15.200  67.174  1.00  0.00    -0.291 C  
HETATM   10  C   UNL     1     -10.144  14.825  66.298  1.00  0.00    -0.299 C  
BRANCH   8  11
HETATM   11  C   UNL     1     -10.567  12.894  68.124  1.00  0.00    -0.249 A  
HETATM   12  C   UNL     1     -10.563  11.898  67.130  1.00  0.00    -0.264 A  
HETATM   13  C   UNL     1     -11.147  10.647  67.346  1.00  0.00    -0.341 A  
HETATM   14  C   UNL     1     -11.081  12.541  69.383  1.00  0.00    -0.145 A  
HETATM   15  C   UNL     1     -11.732  10.358  68.573  1.00  0.00    -0.039 A  
HETATM   16  C   UNL     1     -11.678  11.296  69.601  1.00  0.00    -0.420 A  
ENDBRANCH   8  11
BRANCH  10  17
HETATM   17  C   UNL     1      -9.145  15.854  65.852  1.00  0.00    -0.269 C  
HETATM   18  N   UNL     1      -9.777  17.156  65.728  1.00  0.00    -0.547 NA 
HETATM   19  H2  UNL     1     -10.248  17.433  66.589  1.00  0.00     0.000 HD 
HETATM   20  H1  UNL     1      -9.098  17.855  65.425  1.00  0.00     0.000 HD 
ENDBRANCH  10  17
ENDBRANCH   5   8
ENDBRANCH   2   3
TORSDOF 5
ENDMDL
MODEL      173
REMARK 921   NORMALIZED FREE ENERGY PREDICTED BY IDOCK:   -2.91 KCAL/MOL
REMARK 922        TOTAL FREE ENERGY PREDICTED BY IDOCK:   -4.25 KCAL/MOL
REMARK 923 INTER-LIGAND FREE ENERGY PREDICTED BY IDOCK:   -3.55 KCAL/MOL
REMARK 924 INTRA-LIGAND FREE ENERGY PREDICTED BY IDOCK:   -0.70 KCAL/MOL
REMARK 927      BINDING AFFINITY PREDICTED BY RF-SCORE:    0.00 PKD
ROOT
HETATM    1  C   UNL     1      -8.116   6.919  65.359  1.00  0.00    -0.133 C  
HETATM    2  C   UNL     1      -7.964   6.645  66.844  1.00  0.00    -0.109 C  
ENDROOT
BRANCH   2   3
HETATM    3  N   UNL     1      -9.077   7.152  67.650  1.00  0.00    -0.127 N  
HETATM    4  O   UNL     1      -7.634   8.606  68.741  1.00  0.00    -0.092 OA 
HETATM    5  C   UNL     1      -8.762   8.143  68.597  1.00  0.00    -0.134 C  
BRANCH   3   6
HETATM    6  C   UNL     1     -10.333   6.400  67.712  1.00  0.00    -0.193 C  
HETATM    7  C   UNL     1     -10.273   4.966  68.207  1.00  0.00    -0.102 C  
ENDBRANCH   3   6
BRANCH   5   8
HETATM    8  C   UNL     1      -9.889   8.693  69.464  1.00  0.00    -0.187 C  
HETATM    9  C   UNL     1      -9.789  10.176  69.846  1.00  0.00    -0.223 C  
HETATM   10  C   UNL     1     -10.828   9.749  68.853  1.00  0.00    -0.220 C  
BRANCH   8  11
HETATM   11  C   UNL     1     -10.344   7.746  70.585  1.00  0.00    -0.202 A  
HETATM   12  C   UNL     1      -9.404   6.903  71.205  1.00  0.00    -0.164 A  
HETATM   13  C   UNL     1      -9.800   5.855  72.040  1.00  0.00    -0.181 A  
HETATM   14  C   UNL     1     -11.695   7.563  70.927  1.00  0.00    -0.307 A  
HETATM   15  C   UNL     1     -11.151   5.639  72.287  1.00  0.00    -0.318 A  
HETATM   16  C   UNL     1     -12.099   6.507  71.751  1.00  0.00    -0.393 A  
ENDBRANCH   8  11
BRANCH  10  17
HETATM   17  C   UNL     1     -10.720  10.132  67.406  1.00  0.00    -0.277 C  
HETATM   18  N   UNL     1      -9.961  11.363  67.261  1.00  0.00    -0.192 NA 
HETATM   19  H2  UNL     1      -9.045  11.298  67.705  1.00  0.00     0.000 HD 
HETATM   20  H1  UNL     1      -9.888  11.624  66.277  1.00  0.00     0.000 HD 
ENDBRANCH  10  17
ENDBRANCH   5   8
ENDBRANCH   2   3
TORSDOF 5
ENDMDL
MODEL      174
REMARK 921   NORMALIZED FREE ENERGY PREDICTED BY IDOCK:   -2.91 KCAL/MOL
REMARK 922        TOTAL FREE ENERGY PREDICTED BY IDOCK:   -4.25 KCAL/MOL
REMARK 923 INTER-LIGAND FREE ENERGY PREDICTED BY IDOCK:   -3.75 KCAL/MOL
REMARK 924 INTRA-LIGAND FREE ENERGY PREDICTED BY IDOCK:   -0.50 KCAL/MOL
REMARK 927      BINDING AFFINITY PREDICTED BY RF-SCORE:    0.00 PKD
ROOT
HETATM    1  C   UNL     1     -12.913   9.359  71.854  1.00  0.00    -0.502 C  
HETATM    2  C   UNL     1     -12.199  10.522  71.188  1.00  0.00    -0.391 C  
ENDROOT
BRANCH   2   3
HETATM    3  N   UNL     1     -11.283  10.113  70.122  1.00  0.00    -0.288 N  
HETATM    4  O   UNL     1      -9.700   9.501  71.705  1.00  0.00    -0.173 OA 
HETATM    5  C   UNL     1     -10.028   9.625  70.528  1.00  0.00    -0.254 C  
BRANCH   3   6
HETATM    6  C   UNL     1     -11.530  10.546  68.744  1.00  0.00    -0.224 C  
HETATM    7  C   UNL     1     -11.703  12.033  68.492  1.00  0.00    -0.387 C  
ENDBRANCH   3   6
BRANCH   5   8
HETATM    8  C   UNL     1      -9.040   9.196  69.450  1.00  0.00    -0.148 C  
HETATM    9  C   UNL     1      -8.061   8.078  69.833  1.00  0.00    -0.117 C  
HETATM   10  C   UNL     1      -9.168   7.777  68.867  1.00  0.00    -0.140 C  
BRANCH   8  11
HETATM   11  C   UNL     1      -8.440  10.358  68.644  1.00  0.00    -0.129 A  
HETATM   12  C   UNL     1      -8.128  10.173  67.285  1.00  0.00    -0.114 A  
HETATM   13  C   UNL     1      -7.356  11.098  66.578  1.00  0.00    -0.129 A  
HETATM   14  C   UNL     1      -8.038  11.568  69.235  1.00  0.00     0.243 A  
HETATM   15  C   UNL     1      -6.893  12.243  67.215  1.00  0.00    -0.140 A  
HETATM   16  C   UNL     1      -7.253  12.492  68.536  1.00  0.00    -0.110 A  
ENDBRANCH   8  11
BRANCH  10  17
HETATM   17  C   UNL     1     -10.312   6.885  69.254  1.00  0.00    -0.198 C  
HETATM   18  N   UNL     1     -11.198   6.674  68.122  1.00  0.00    -0.554 NA 
HETATM   19  H2  UNL     1     -10.696   6.315  67.310  1.00  0.00     0.000 HD 
HETATM   20  H1  UNL     1     -11.975   6.068  68.385  1.00  0.00     0.000 HD 
ENDBRANCH  10  17
ENDBRANCH   5   8
ENDBRANCH   2   3
TORSDOF 5
ENDMDL
MODEL      175
REMARK 921   NORMALIZED FREE ENERGY PREDICTED BY IDOCK:   -2.88 KCAL/MOL
REMARK 922        TOTAL FREE ENERGY PREDICTED BY IDOCK:   -4.21 KCAL/MOL
REMARK 923 INTER-LIGAND FREE ENERGY PREDICTED BY IDOCK:   -4.63 KCAL/MOL
REMARK 924 INTRA-LIGAND FREE ENERGY PREDICTED BY IDOCK:    0.42 KCAL/MOL
REMARK 927      BINDING AFFINITY PREDICTED BY RF-SCORE:    0.00 PKD
ROOT
HETATM    1  C   UNL     1      -6.765  13.340  68.854  1.00  0.00    -0.110 C  
HETATM    2  C   UNL     1      -7.352  13.427  67.458  1.00  0.00    -0.156 C  
ENDROOT
BRANCH   2   3
HETATM    3  N   UNL     1      -8.617  12.704  67.308  1.00  0.00    -0.188 N  
HETATM    4  O   UNL     1      -7.540  11.060  66.074  1.00  0.00    -0.129 OA 
HETATM    5  C   UNL     1      -8.572  11.514  66.559  1.00  0.00    -0.172 C  
BRANCH   3   6
HETATM    6  C   UNL     1      -9.882  13.383  67.598  1.00  0.00    -0.226 C  
HETATM    7  C   UNL     1      -9.914  14.896  67.482  1.00  0.00    -0.219 C  
ENDBRANCH   3   6
BRANCH   5   8
HETATM    8  C   UNL     1      -9.868  10.734  66.370  1.00  0.00    -0.254 C  
HETATM    9  C   UNL     1     -11.157  11.565  66.302  1.00  0.00    -0.321 C  
HETATM   10  C   UNL     1     -10.642  10.916  65.052  1.00  0.00    -0.287 C  
BRANCH   8  11
HETATM   11  C   UNL     1      -9.953   9.441  67.195  1.00  0.00    -0.263 A  
HETATM   12  C   UNL     1     -10.395   8.254  66.583  1.00  0.00    -0.293 A  
HETATM   13  C   UNL     1     -10.731   7.125  67.333  1.00  0.00    -0.368 A  
HETATM   14  C   UNL     1      -9.754   9.409  68.586  1.00  0.00    -0.160 A  
HETATM   15  C   UNL     1     -10.614   7.153  68.718  1.00  0.00    -0.219 A  
HETATM   16  C   UNL     1     -10.102   8.286  69.344  1.00  0.00    -0.198 A  
ENDBRANCH   8  11
BRANCH  10  17
HETATM   17  C   UNL     1     -10.074  11.737  63.931  1.00  0.00    -0.368 C  
HETATM   18  N   UNL     1     -11.137  12.409  63.203  1.00  0.00    -0.699 NA 
HETATM   19  H2  UNL     1     -11.725  12.967  63.821  1.00  0.00     0.000 HD 
HETATM   20  H1  UNL     1     -10.751  12.966  62.441  1.00  0.00     0.000 HD 
ENDBRANCH  10  17
ENDBRANCH   5   8
ENDBRANCH   2   3
TORSDOF 5
ENDMDL
MODEL      176
REMARK 921   NORMALIZED FREE ENERGY PREDICTED BY IDOCK:   -2.88 KCAL/MOL
REMARK 922        TOTAL FREE ENERGY PREDICTED BY IDOCK:   -4.21 KCAL/MOL
REMARK 923 INTER-LIGAND FREE ENERGY PREDICTED BY IDOCK:   -4.48 KCAL/MOL
REMARK 924 INTRA-LIGAND FREE ENERGY PREDICTED BY IDOCK:    0.27 KCAL/MOL
REMARK 927      BINDING AFFINITY PREDICTED BY RF-SCORE:    0.00 PKD
ROOT
HETATM    1  C   UNL     1      -8.688  16.591  67.518  1.00  0.00    -0.191 C  
HETATM    2  C   UNL     1      -8.540  15.520  66.453  1.00  0.00    -0.257 C  
ENDROOT
BRANCH   2   3
HETATM    3  N   UNL     1      -9.438  14.379  66.642  1.00  0.00    -0.272 N  
HETATM    4  O   UNL     1      -8.312  13.806  68.590  1.00  0.00    -0.145 OA 
HETATM    5  C   UNL     1      -9.196  13.573  67.770  1.00  0.00    -0.213 C  
BRANCH   3   6
HETATM    6  C   UNL     1     -10.269  13.913  65.529  1.00  0.00    -0.331 C  
HETATM    7  C   UNL     1     -11.114  14.943  64.801  1.00  0.00    -0.395 C  
ENDBRANCH   3   6
BRANCH   5   8
HETATM    8  C   UNL     1     -10.101  12.368  68.001  1.00  0.00    -0.214 C  
HETATM    9  C   UNL     1     -10.672  12.210  69.417  1.00  0.00     0.054 C  
HETATM   10  C   UNL     1     -11.588  12.624  68.305  1.00  0.00    -0.377 C  
BRANCH   8  11
HETATM   11  C   UNL     1      -9.614  11.074  67.331  1.00  0.00    -0.180 A  
HETATM   12  C   UNL     1      -8.358  11.050  66.699  1.00  0.00    -0.155 A  
HETATM   13  C   UNL     1      -7.979   9.995  65.865  1.00  0.00    -0.124 A  
HETATM   14  C   UNL     1     -10.430   9.940  67.181  1.00  0.00    -0.305 A  
HETATM   15  C   UNL     1      -8.846   8.928  65.661  1.00  0.00    -0.230 A  
HETATM   16  C   UNL     1     -10.062   8.887  66.337  1.00  0.00    -0.333 A  
ENDBRANCH   8  11
BRANCH  10  17
HETATM   17  C   UNL     1     -12.160  14.010  68.247  1.00  0.00    -0.277 C  
HETATM   18  N   UNL     1     -12.640  14.417  69.557  1.00  0.00    -0.536 NA 
HETATM   19  H2  UNL     1     -11.914  14.336  70.269  1.00  0.00     0.000 HD 
HETATM   20  H1  UNL     1     -13.030  15.359  69.518  1.00  0.00     0.000 HD 
ENDBRANCH  10  17
ENDBRANCH   5   8
ENDBRANCH   2   3
TORSDOF 5
ENDMDL
MODEL      177
REMARK 921   NORMALIZED FREE ENERGY PREDICTED BY IDOCK:   -2.87 KCAL/MOL
REMARK 922        TOTAL FREE ENERGY PREDICTED BY IDOCK:   -4.20 KCAL/MOL
REMARK 923 INTER-LIGAND FREE ENERGY PREDICTED BY IDOCK:   -4.13 KCAL/MOL
REMARK 924 INTRA-LIGAND FREE ENERGY PREDICTED BY IDOCK:   -0.07 KCAL/MOL
REMARK 927      BINDING AFFINITY PREDICTED BY RF-SCORE:    0.00 PKD
ROOT
HETATM    1  C   UNL     1     -11.999  10.836  70.793  1.00  0.00    -0.464 C  
HETATM    2  C   UNL     1     -12.197  11.140  69.319  1.00  0.00    -0.226 C  
ENDROOT
BRANCH   2   3
HETATM    3  N   UNL     1     -10.970  11.555  68.637  1.00  0.00    -0.207 N  
HETATM    4  O   UNL     1     -12.198  12.105  66.745  1.00  0.00    -0.553 OA 
HETATM    5  C   UNL     1     -11.114  12.012  67.314  1.00  0.00    -0.285 C  
BRANCH   3   6
HETATM    6  C   UNL     1      -9.667  11.157  69.174  1.00  0.00    -0.028 C  
HETATM    7  C   UNL     1      -9.363   9.672  69.260  1.00  0.00    -0.184 C  
ENDBRANCH   3   6
BRANCH   5   8
HETATM    8  C   UNL     1      -9.861  12.447  66.562  1.00  0.00    -0.244 C  
HETATM    9  C   UNL     1     -10.031  13.608  65.573  1.00  0.00    -0.244 C  
HETATM   10  C   UNL     1      -9.287  13.846  66.853  1.00  0.00    -0.265 C  
BRANCH   8  11
HETATM   11  C   UNL     1      -8.978  11.286  66.080  1.00  0.00    -0.210 A  
HETATM   12  C   UNL     1      -7.648  11.193  66.527  1.00  0.00    -0.135 A  
HETATM   13  C   UNL     1      -6.735  10.318  65.932  1.00  0.00    -0.117 A  
HETATM   14  C   UNL     1      -9.385  10.381  65.084  1.00  0.00    -0.271 A  
HETATM   15  C   UNL     1      -7.142   9.500  64.885  1.00  0.00    -0.107 A  
HETATM   16  C   UNL     1      -8.473   9.513  64.476  1.00  0.00    -0.191 A  
ENDBRANCH   8  11
BRANCH  10  17
HETATM   17  C   UNL     1      -9.866  14.707  67.937  1.00  0.00    -0.217 C  
HETATM   18  N   UNL     1      -9.143  15.964  68.028  1.00  0.00    -0.183 NA 
HETATM   19  H2  UNL     1      -9.114  16.451  67.132  1.00  0.00     0.000 HD 
HETATM   20  H1  UNL     1      -9.536  16.550  68.765  1.00  0.00     0.000 HD 
ENDBRANCH  10  17
ENDBRANCH   5   8
ENDBRANCH   2   3
TORSDOF 5
ENDMDL
MODEL      178
REMARK 921   NORMALIZED FREE ENERGY PREDICTED BY IDOCK:   -2.87 KCAL/MOL
REMARK 922        TOTAL FREE ENERGY PREDICTED BY IDOCK:   -4.20 KCAL/MOL
REMARK 923 INTER-LIGAND FREE ENERGY PREDICTED BY IDOCK:   -5.26 KCAL/MOL
REMARK 924 INTRA-LIGAND FREE ENERGY PREDICTED BY IDOCK:    1.07 KCAL/MOL
REMARK 927      BINDING AFFINITY PREDICTED BY RF-SCORE:    0.00 PKD
ROOT
HETATM    1  C   UNL     1     -12.650  12.617  64.902  1.00  0.00    -0.525 C  
HETATM    2  C   UNL     1     -12.730  13.956  65.612  1.00  0.00    -0.495 C  
ENDROOT
BRANCH   2   3
HETATM    3  N   UNL     1     -11.589  14.222  66.490  1.00  0.00    -0.364 N  
HETATM    4  O   UNL     1     -10.143  14.025  64.685  1.00  0.00    -0.358 OA 
HETATM    5  C   UNL     1     -10.319  14.210  65.886  1.00  0.00    -0.316 C  
BRANCH   3   6
HETATM    6  C   UNL     1     -11.751  14.126  67.943  1.00  0.00    -0.367 C  
HETATM    7  C   UNL     1     -12.126  12.773  68.523  1.00  0.00    -0.142 C  
ENDBRANCH   3   6
BRANCH   5   8
HETATM    8  C   UNL     1      -9.102  14.473  66.766  1.00  0.00    -0.283 C  
HETATM    9  C   UNL     1      -9.159  13.907  68.191  1.00  0.00    -0.193 C  
HETATM   10  C   UNL     1      -8.239  13.272  67.193  1.00  0.00    -0.123 C  
BRANCH   8  11
HETATM   11  C   UNL     1      -8.522  15.890  66.635  1.00  0.00    -0.322 A  
HETATM   12  C   UNL     1      -7.162  16.112  66.917  1.00  0.00    -0.240 A  
HETATM   13  C   UNL     1      -6.646  17.402  67.061  1.00  0.00    -0.212 A  
HETATM   14  C   UNL     1      -9.320  17.021  66.392  1.00  0.00    -0.295 A  
HETATM   15  C   UNL     1      -7.480  18.503  66.907  1.00  0.00    -0.233 A  
HETATM   16  C   UNL     1      -8.813  18.315  66.549  1.00  0.00    -0.284 A  
ENDBRANCH   8  11
BRANCH  10  17
HETATM   17  C   UNL     1      -8.510  11.897  66.655  1.00  0.00    -0.143 C  
HETATM   18  N   UNL     1      -7.310  11.339  66.055  1.00  0.00    -0.368 NA 
HETATM   19  H2  UNL     1      -6.524  11.343  66.706  1.00  0.00     0.000 HD 
HETATM   20  H1  UNL     1      -7.494  10.405  65.689  1.00  0.00     0.000 HD 
ENDBRANCH  10  17
ENDBRANCH   5   8
ENDBRANCH   2   3
TORSDOF 5
ENDMDL
MODEL      179
REMARK 921   NORMALIZED FREE ENERGY PREDICTED BY IDOCK:   -2.86 KCAL/MOL
REMARK 922        TOTAL FREE ENERGY PREDICTED BY IDOCK:   -4.19 KCAL/MOL
REMARK 923 INTER-LIGAND FREE ENERGY PREDICTED BY IDOCK:   -4.18 KCAL/MOL
REMARK 924 INTRA-LIGAND FREE ENERGY PREDICTED BY IDOCK:   -0.01 KCAL/MOL
REMARK 927      BINDING AFFINITY PREDICTED BY RF-SCORE:    0.00 PKD
ROOT
HETATM    1  C   UNL     1     -10.316   5.542  70.750  1.00  0.00    -0.321 C  
HETATM    2  C   UNL     1     -11.201   6.708  70.350  1.00  0.00    -0.344 C  
ENDROOT
BRANCH   2   3
HETATM    3  N   UNL     1     -10.546   7.658  69.449  1.00  0.00    -0.227 N  
HETATM    4  O   UNL     1     -11.330   9.427  70.732  1.00  0.00    -0.261 OA 
HETATM    5  C   UNL     1     -10.709   9.022  69.753  1.00  0.00    -0.225 C  
BRANCH   3   6
HETATM    6  C   UNL     1     -10.086   7.214  68.131  1.00  0.00    -0.169 C  
HETATM    7  C   UNL     1     -11.110   6.589  67.200  1.00  0.00    -0.434 C  
ENDBRANCH   3   6
BRANCH   5   8
HETATM    8  C   UNL     1     -10.050  10.047  68.837  1.00  0.00    -0.200 C  
HETATM    9  C   UNL     1     -10.722  10.270  67.475  1.00  0.00    -0.348 C  
HETATM   10  C   UNL     1     -10.822  11.341  68.520  1.00  0.00    -0.245 C  
BRANCH   8  11
HETATM   11  C   UNL     1      -8.515   9.986  68.820  1.00  0.00    -0.126 A  
HETATM   12  C   UNL     1      -7.811   9.886  70.034  1.00  0.00    -0.192 A  
HETATM   13  C   UNL     1      -6.430  10.081  70.097  1.00  0.00    -0.107 A  
HETATM   14  C   UNL     1      -7.757  10.181  67.653  1.00  0.00    -0.091 A  
HETATM   15  C   UNL     1      -5.717  10.365  68.937  1.00  0.00    -0.041 A  
HETATM   16  C   UNL     1      -6.376  10.391  67.711  1.00  0.00    -0.060 A  
ENDBRANCH   8  11
BRANCH  10  17
HETATM   17  C   UNL     1     -12.128  11.646  69.194  1.00  0.00    -0.251 C  
HETATM   18  N   UNL     1     -11.910  12.449  70.385  1.00  0.00    -0.541 NA 
HETATM   19  H2  UNL     1     -11.383  13.298  70.179  1.00  0.00     0.000 HD 
HETATM   20  H1  UNL     1     -12.797  12.656  70.844  1.00  0.00     0.000 HD 
ENDBRANCH  10  17
ENDBRANCH   5   8
ENDBRANCH   2   3
TORSDOF 5
ENDMDL
MODEL      180
REMARK 921   NORMALIZED FREE ENERGY PREDICTED BY IDOCK:   -2.86 KCAL/MOL
REMARK 922        TOTAL FREE ENERGY PREDICTED BY IDOCK:   -4.19 KCAL/MOL
REMARK 923 INTER-LIGAND FREE ENERGY PREDICTED BY IDOCK:   -4.27 KCAL/MOL
REMARK 924 INTRA-LIGAND FREE ENERGY PREDICTED BY IDOCK:    0.08 KCAL/MOL
REMARK 927      BINDING AFFINITY PREDICTED BY RF-SCORE:    0.00 PKD
ROOT
HETATM    1  C   UNL     1     -10.132   6.717  74.187  1.00  0.00    -0.381 C  
HETATM    2  C   UNL     1      -9.147   6.223  73.143  1.00  0.00    -0.129 C  
ENDROOT
BRANCH   2   3
HETATM    3  N   UNL     1      -9.296   6.876  71.842  1.00  0.00    -0.142 N  
HETATM    4  O   UNL     1      -8.090   8.704  72.612  1.00  0.00    -0.367 OA 
HETATM    5  C   UNL     1      -8.721   8.154  71.714  1.00  0.00    -0.151 C  
BRANCH   3   6
HETATM    6  C   UNL     1     -10.296   6.385  70.890  1.00  0.00    -0.204 C  
HETATM    7  C   UNL     1     -10.229   4.922  70.489  1.00  0.00    -0.288 C  
ENDBRANCH   3   6
BRANCH   5   8
HETATM    8  C   UNL     1      -8.860   8.874  70.378  1.00  0.00    -0.204 C  
HETATM    9  C   UNL     1      -7.582   9.513  69.815  1.00  0.00    -0.110 C  
HETATM   10  C   UNL     1      -8.134   8.286  69.154  1.00  0.00    -0.120 C  
BRANCH   8  11
HETATM   11  C   UNL     1     -10.139   9.715  70.243  1.00  0.00    -0.331 A  
HETATM   12  C   UNL     1     -11.151   9.599  71.213  1.00  0.00    -0.426 A  
HETATM   13  C   UNL     1     -12.424  10.138  71.011  1.00  0.00    -0.474 A  
HETATM   14  C   UNL     1     -10.425  10.491  69.107  1.00  0.00    -0.250 A  
HETATM   15  C   UNL     1     -12.707  10.822  69.834  1.00  0.00    -0.097 A  
HETATM   16  C   UNL     1     -11.701  11.021  68.892  1.00  0.00    -0.400 A  
ENDBRANCH   8  11
BRANCH  10  17
HETATM   17  C   UNL     1      -7.417   6.970  69.242  1.00  0.00    -0.094 C  
HETATM   18  N   UNL     1      -7.746   6.134  68.099  1.00  0.00    -0.101 NA 
HETATM   19  H2  UNL     1      -7.559   6.609  67.216  1.00  0.00     0.000 HD 
HETATM   20  H1  UNL     1      -7.259   5.240  68.159  1.00  0.00     0.000 HD 
ENDBRANCH  10  17
ENDBRANCH   5   8
ENDBRANCH   2   3
TORSDOF 5
ENDMDL
MODEL      181
REMARK 921   NORMALIZED FREE ENERGY PREDICTED BY IDOCK:   -2.83 KCAL/MOL
REMARK 922        TOTAL FREE ENERGY PREDICTED BY IDOCK:   -4.14 KCAL/MOL
REMARK 923 INTER-LIGAND FREE ENERGY PREDICTED BY IDOCK:   -4.48 KCAL/MOL
REMARK 924 INTRA-LIGAND FREE ENERGY PREDICTED BY IDOCK:    0.34 KCAL/MOL
REMARK 927      BINDING AFFINITY PREDICTED BY RF-SCORE:    0.00 PKD
ROOT
HETATM    1  C   UNL     1      -9.046   8.374  66.092  1.00  0.00    -0.238 C  
HETATM    2  C   UNL     1      -9.045   9.892  66.114  1.00  0.00    -0.158 C  
ENDROOT
BRANCH   2   3
HETATM    3  N   UNL     1      -9.395  10.458  67.418  1.00  0.00    -0.145 N  
HETATM    4  O   UNL     1     -11.599  10.701  66.731  1.00  0.00    -0.088 OA 
HETATM    5  C   UNL     1     -10.735  10.848  67.592  1.00  0.00    -0.242 C  
BRANCH   3   6
HETATM    6  C   UNL     1      -8.336  10.926  68.316  1.00  0.00    -0.129 C  
HETATM    7  C   UNL     1      -7.179  11.695  67.703  1.00  0.00    -0.107 C  
ENDBRANCH   3   6
BRANCH   5   8
HETATM    8  C   UNL     1     -11.141  11.451  68.932  1.00  0.00    -0.290 C  
HETATM    9  C   UNL     1     -10.298  12.634  69.427  1.00  0.00     0.444 C  
HETATM   10  C   UNL     1     -11.695  12.887  68.945  1.00  0.00    -0.370 C  
BRANCH   8  11
HETATM   11  C   UNL     1     -11.527  10.416  70.000  1.00  0.00    -0.382 A  
HETATM   12  C   UNL     1     -12.640  10.654  70.827  1.00  0.00    -0.479 A  
HETATM   13  C   UNL     1     -12.883   9.884  71.967  1.00  0.00    -0.488 A  
HETATM   14  C   UNL     1     -10.729   9.300  70.304  1.00  0.00    -0.284 A  
HETATM   15  C   UNL     1     -12.023   8.842  72.295  1.00  0.00    -0.380 A  
HETATM   16  C   UNL     1     -10.959   8.533  71.451  1.00  0.00    -0.329 A  
ENDBRANCH   8  11
BRANCH  10  17
HETATM   17  C   UNL     1     -11.952  13.627  67.665  1.00  0.00    -0.351 C  
HETATM   18  N   UNL     1     -12.210  15.031  67.932  1.00  0.00    -0.469 NA 
HETATM   19  H2  UNL     1     -11.459  15.459  68.473  1.00  0.00     0.000 HD 
HETATM   20  H1  UNL     1     -12.385  15.534  67.062  1.00  0.00     0.000 HD 
ENDBRANCH  10  17
ENDBRANCH   5   8
ENDBRANCH   2   3
TORSDOF 5
ENDMDL
MODEL      182
REMARK 921   NORMALIZED FREE ENERGY PREDICTED BY IDOCK:   -2.82 KCAL/MOL
REMARK 922        TOTAL FREE ENERGY PREDICTED BY IDOCK:   -4.13 KCAL/MOL
REMARK 923 INTER-LIGAND FREE ENERGY PREDICTED BY IDOCK:   -3.64 KCAL/MOL
REMARK 924 INTRA-LIGAND FREE ENERGY PREDICTED BY IDOCK:   -0.49 KCAL/MOL
REMARK 927      BINDING AFFINITY PREDICTED BY RF-SCORE:    0.00 PKD
ROOT
HETATM    1  C   UNL     1     -11.798   6.499  70.351  1.00  0.00    -0.378 C  
HETATM    2  C   UNL     1     -10.678   5.735  69.668  1.00  0.00    -0.346 C  
ENDROOT
BRANCH   2   3
HETATM    3  N   UNL     1     -10.037   6.482  68.584  1.00  0.00    -0.153 N  
HETATM    4  O   UNL     1      -8.507   7.368  70.089  1.00  0.00    -0.134 OA 
HETATM    5  C   UNL     1      -8.946   7.294  68.945  1.00  0.00    -0.133 C  
BRANCH   3   6
HETATM    6  C   UNL     1     -10.731   6.652  67.305  1.00  0.00    -0.357 C  
HETATM    7  C   UNL     1     -10.744   5.473  66.348  1.00  0.00    -0.262 C  
ENDBRANCH   3   6
BRANCH   5   8
HETATM    8  C   UNL     1      -8.253   8.097  67.849  1.00  0.00    -0.129 C  
HETATM    9  C   UNL     1      -6.745   8.320  68.022  1.00  0.00    -0.065 C  
HETATM   10  C   UNL     1      -7.224   7.376  66.959  1.00  0.00    -0.089 C  
BRANCH   8  11
HETATM   11  C   UNL     1      -9.053   9.311  67.353  1.00  0.00    -0.141 A  
HETATM   12  C   UNL     1      -9.821  10.057  68.267  1.00  0.00    -0.163 A  
HETATM   13  C   UNL     1     -10.756  11.001  67.837  1.00  0.00    -0.263 A  
HETATM   14  C   UNL     1      -9.184   9.634  65.992  1.00  0.00    -0.232 A  
HETATM   15  C   UNL     1     -10.931  11.234  66.478  1.00  0.00    -0.303 A  
HETATM   16  C   UNL     1     -10.129  10.568  65.555  1.00  0.00    -0.349 A  
ENDBRANCH   8  11
BRANCH  10  17
HETATM   17  C   UNL     1      -7.002   5.897  67.080  1.00  0.00    -0.069 C  
HETATM   18  N   UNL     1      -7.405   5.221  65.858  1.00  0.00    -0.079 NA 
HETATM   19  H2  UNL     1      -6.938   5.608  65.039  1.00  0.00     0.000 HD 
HETATM   20  H1  UNL     1      -7.254   4.215  65.941  1.00  0.00     0.000 HD 
ENDBRANCH  10  17
ENDBRANCH   5   8
ENDBRANCH   2   3
TORSDOF 5
ENDMDL
MODEL      183
REMARK 921   NORMALIZED FREE ENERGY PREDICTED BY IDOCK:   -2.80 KCAL/MOL
REMARK 922        TOTAL FREE ENERGY PREDICTED BY IDOCK:   -4.10 KCAL/MOL
REMARK 923 INTER-LIGAND FREE ENERGY PREDICTED BY IDOCK:   -3.75 KCAL/MOL
REMARK 924 INTRA-LIGAND FREE ENERGY PREDICTED BY IDOCK:   -0.35 KCAL/MOL
REMARK 927      BINDING AFFINITY PREDICTED BY RF-SCORE:    0.00 PKD
ROOT
HETATM    1  C   UNL     1     -11.426   9.466  70.804  1.00  0.00    -0.364 C  
HETATM    2  C   UNL     1     -11.188  10.740  70.015  1.00  0.00    -0.291 C  
ENDROOT
BRANCH   2   3
HETATM    3  N   UNL     1     -10.098  10.633  69.043  1.00  0.00    -0.205 N  
HETATM    4  O   UNL     1     -10.377  12.865  68.471  1.00  0.00    -0.243 OA 
HETATM    5  C   UNL     1      -9.799  11.794  68.307  1.00  0.00    -0.198 C  
BRANCH   3   6
HETATM    6  C   UNL     1      -9.628   9.311  68.619  1.00  0.00    -0.147 C  
HETATM    7  C   UNL     1     -10.527   8.506  67.698  1.00  0.00    -0.308 C  
ENDBRANCH   3   6
BRANCH   5   8
HETATM    8  C   UNL     1      -8.677  11.724  67.278  1.00  0.00    -0.163 C  
HETATM    9  C   UNL     1      -7.787  12.969  67.160  1.00  0.00    -0.073 C  
HETATM   10  C   UNL     1      -7.223  11.728  67.786  1.00  0.00    -0.097 C  
BRANCH   8  11
HETATM   11  C   UNL     1      -9.077  11.063  65.950  1.00  0.00    -0.214 A  
HETATM   12  C   UNL     1      -8.149  10.253  65.271  1.00  0.00    -0.151 A  
HETATM   13  C   UNL     1      -8.364   9.841  63.954  1.00  0.00    -0.173 A  
HETATM   14  C   UNL     1     -10.284  11.349  65.289  1.00  0.00    -0.320 A  
HETATM   15  C   UNL     1      -9.527  10.216  63.292  1.00  0.00    -0.302 A  
HETATM   16  C   UNL     1     -10.499  10.950  63.966  1.00  0.00    -0.379 A  
ENDBRANCH   8  11
BRANCH  10  17
HETATM   17  C   UNL     1      -6.919  11.671  69.254  1.00  0.00    -0.083 C  
HETATM   18  N   UNL     1      -5.818  10.757  69.510  1.00  0.00    -0.040 NA 
HETATM   19  H2  UNL     1      -4.993  10.996  68.961  1.00  0.00     0.000 HD 
HETATM   20  H1  UNL     1      -5.612  10.718  70.509  1.00  0.00     0.000 HD 
ENDBRANCH  10  17
ENDBRANCH   5   8
ENDBRANCH   2   3
TORSDOF 5
ENDMDL
MODEL      184
REMARK 921   NORMALIZED FREE ENERGY PREDICTED BY IDOCK:   -2.77 KCAL/MOL
REMARK 922        TOTAL FREE ENERGY PREDICTED BY IDOCK:   -4.07 KCAL/MOL
REMARK 923 INTER-LIGAND FREE ENERGY PREDICTED BY IDOCK:   -3.61 KCAL/MOL
REMARK 924 INTRA-LIGAND FREE ENERGY PREDICTED BY IDOCK:   -0.46 KCAL/MOL
REMARK 927      BINDING AFFINITY PREDICTED BY RF-SCORE:    0.00 PKD
ROOT
HETATM    1  C   UNL     1      -6.089   9.556  70.187  1.00  0.00    -0.049 C  
HETATM    2  C   UNL     1      -6.855   9.092  68.961  1.00  0.00    -0.055 C  
ENDROOT
BRANCH   2   3
HETATM    3  N   UNL     1      -7.859   8.067  69.251  1.00  0.00    -0.112 N  
HETATM    4  O   UNL     1      -9.203   8.889  67.547  1.00  0.00    -0.135 OA 
HETATM    5  C   UNL     1      -9.023   8.090  68.461  1.00  0.00    -0.133 C  
BRANCH   3   6
HETATM    6  C   UNL     1      -7.803   7.330  70.517  1.00  0.00    -0.099 C  
HETATM    7  C   UNL     1      -7.052   6.011  70.532  1.00  0.00    -0.071 C  
ENDBRANCH   3   6
BRANCH   5   8
HETATM    8  C   UNL     1     -10.099   7.045  68.735  1.00  0.00    -0.170 C  
HETATM    9  C   UNL     1     -10.943   6.610  67.530  1.00  0.00    -0.416 C  
HETATM   10  C   UNL     1      -9.939   5.653  68.099  1.00  0.00    -0.186 C  
BRANCH   8  11
HETATM   11  C   UNL     1     -10.870   7.261  70.046  1.00  0.00    -0.271 A  
HETATM   12  C   UNL     1     -11.185   8.569  70.459  1.00  0.00    -0.262 A  
HETATM   13  C   UNL     1     -11.652   8.836  71.748  1.00  0.00    -0.416 A  
HETATM   14  C   UNL     1     -11.152   6.219  70.945  1.00  0.00    -0.366 A  
HETATM   15  C   UNL     1     -11.834   7.793  72.649  1.00  0.00    -0.317 A  
HETATM   16  C   UNL     1     -11.607   6.481  72.241  1.00  0.00    -0.330 A  
ENDBRANCH   8  11
BRANCH  10  17
HETATM   17  C   UNL     1      -8.697   5.290  67.338  1.00  0.00    -0.106 C  
HETATM   18  N   UNL     1      -9.025   4.445  66.202  1.00  0.00    -0.118 NA 
HETATM   19  H2  UNL     1      -9.727   4.876  65.599  1.00  0.00     0.000 HD 
HETATM   20  H1  UNL     1      -8.181   4.199  65.685  1.00  0.00     0.000 HD 
ENDBRANCH  10  17
ENDBRANCH   5   8
ENDBRANCH   2   3
TORSDOF 5
ENDMDL
MODEL      185
REMARK 921   NORMALIZED FREE ENERGY PREDICTED BY IDOCK:   -2.77 KCAL/MOL
REMARK 922        TOTAL FREE ENERGY PREDICTED BY IDOCK:   -4.07 KCAL/MOL
REMARK 923 INTER-LIGAND FREE ENERGY PREDICTED BY IDOCK:   -3.85 KCAL/MOL
REMARK 924 INTRA-LIGAND FREE ENERGY PREDICTED BY IDOCK:   -0.22 KCAL/MOL
REMARK 927      BINDING AFFINITY PREDICTED BY RF-SCORE:    0.00 PKD
ROOT
HETATM    1  C   UNL     1      -6.571   9.393  70.517  1.00  0.00    -0.084 C  
HETATM    2  C   UNL     1      -7.995   9.638  70.052  1.00  0.00    -0.172 C  
ENDROOT
BRANCH   2   3
HETATM    3  N   UNL     1      -8.897   8.513  70.308  1.00  0.00    -0.142 N  
HETATM    4  O   UNL     1      -8.388   7.620  68.227  1.00  0.00    -0.123 OA 
HETATM    5  C   UNL     1      -9.017   7.561  69.280  1.00  0.00    -0.136 C  
BRANCH   3   6
HETATM    6  C   UNL     1      -9.874   8.596  71.397  1.00  0.00    -0.256 C  
HETATM    7  C   UNL     1      -9.434   8.137  72.776  1.00  0.00    -0.349 C  
ENDBRANCH   3   6
BRANCH   5   8
HETATM    8  C   UNL     1      -9.952   6.377  69.502  1.00  0.00    -0.190 C  
HETATM    9  C   UNL     1     -11.447   6.704  69.608  1.00  0.00    -0.358 C  
HETATM   10  C   UNL     1     -10.940   6.010  68.379  1.00  0.00    -0.340 C  
BRANCH   8  11
HETATM   11  C   UNL     1      -9.426   5.334  70.500  1.00  0.00    -0.222 A  
HETATM   12  C   UNL     1      -8.138   4.796  70.327  1.00  0.00    -0.072 A  
HETATM   13  C   UNL     1      -7.711   3.675  71.044  1.00  0.00    -0.047 A  
HETATM   14  C   UNL     1     -10.229   4.768  71.504  1.00  0.00    -0.246 A  
HETATM   15  C   UNL     1      -8.563   3.077  71.966  1.00  0.00    -0.094 A  
HETATM   16  C   UNL     1      -9.813   3.637  72.215  1.00  0.00    -0.234 A  
ENDBRANCH   8  11
BRANCH  10  17
HETATM   17  C   UNL     1     -10.898   6.714  67.054  1.00  0.00    -0.397 C  
HETATM   18  N   UNL     1      -9.969   6.050  66.155  1.00  0.00    -0.386 NA 
HETATM   19  H2  UNL     1     -10.185   5.058  66.051  1.00  0.00     0.000 HD 
HETATM   20  H1  UNL     1      -9.940   6.528  65.255  1.00  0.00     0.000 HD 
ENDBRANCH  10  17
ENDBRANCH   5   8
ENDBRANCH   2   3
TORSDOF 5
ENDMDL
MODEL      186
REMARK 921   NORMALIZED FREE ENERGY PREDICTED BY IDOCK:   -2.75 KCAL/MOL
REMARK 922        TOTAL FREE ENERGY PREDICTED BY IDOCK:   -4.04 KCAL/MOL
REMARK 923 INTER-LIGAND FREE ENERGY PREDICTED BY IDOCK:   -4.90 KCAL/MOL
REMARK 924 INTRA-LIGAND FREE ENERGY PREDICTED BY IDOCK:    0.85 KCAL/MOL
REMARK 927      BINDING AFFINITY PREDICTED BY RF-SCORE:    0.00 PKD
ROOT
HETATM    1  C   UNL     1      -9.070  17.890  67.710  1.00  0.00    -0.258 C  
HETATM    2  C   UNL     1      -8.362  16.606  68.100  1.00  0.00    -0.193 C  
ENDROOT
BRANCH   2   3
HETATM    3  N   UNL     1      -9.218  15.421  68.031  1.00  0.00    -0.183 N  
HETATM    4  O   UNL     1      -9.074  15.441  65.714  1.00  0.00    -0.265 OA 
HETATM    5  C   UNL     1      -9.519  14.940  66.743  1.00  0.00    -0.252 C  
BRANCH   3   6
HETATM    6  C   UNL     1      -9.998  15.016  69.203  1.00  0.00    -0.237 C  
HETATM    7  C   UNL     1     -10.831  16.079  69.898  1.00  0.00    -0.351 C  
ENDBRANCH   3   6
BRANCH   5   8
HETATM    8  C   UNL     1     -10.415  13.712  66.624  1.00  0.00    -0.272 C  
HETATM    9  C   UNL     1     -11.762  13.782  67.357  1.00  0.00    -0.417 C  
HETATM   10  C   UNL     1     -11.743  13.853  65.859  1.00  0.00    -0.372 C  
BRANCH   8  11
HETATM   11  C   UNL     1      -9.669  12.373  66.728  1.00  0.00    -0.226 A  
HETATM   12  C   UNL     1      -8.815  12.137  67.821  1.00  0.00    -0.172 A  
HETATM   13  C   UNL     1      -7.928  11.058  67.836  1.00  0.00    -0.112 A  
HETATM   14  C   UNL     1      -9.675  11.416  65.700  1.00  0.00    -0.263 A  
HETATM   15  C   UNL     1      -7.890  10.178  66.760  1.00  0.00    -0.108 A  
HETATM   16  C   UNL     1      -8.780  10.341  65.702  1.00  0.00    -0.176 A  
ENDBRANCH   8  11
BRANCH  10  17
HETATM   17  C   UNL     1     -12.088  15.124  65.140  1.00  0.00     0.023 C  
HETATM   18  N   UNL     1     -12.444  14.846  63.758  1.00  0.00    -1.062 NA 
HETATM   19  H2  UNL     1     -13.192  14.157  63.691  1.00  0.00     0.000 HD 
HETATM   20  H1  UNL     1     -12.678  15.710  63.269  1.00  0.00     0.000 HD 
ENDBRANCH  10  17
ENDBRANCH   5   8
ENDBRANCH   2   3
TORSDOF 5
ENDMDL
MODEL      187
REMARK 921   NORMALIZED FREE ENERGY PREDICTED BY IDOCK:   -2.74 KCAL/MOL
REMARK 922        TOTAL FREE ENERGY PREDICTED BY IDOCK:   -4.03 KCAL/MOL
REMARK 923 INTER-LIGAND FREE ENERGY PREDICTED BY IDOCK:   -4.40 KCAL/MOL
REMARK 924 INTRA-LIGAND FREE ENERGY PREDICTED BY IDOCK:    0.37 KCAL/MOL
REMARK 927      BINDING AFFINITY PREDICTED BY RF-SCORE:    0.00 PKD
ROOT
HETATM    1  C   UNL     1     -11.472  13.686  67.100  1.00  0.00    -0.367 C  
HETATM    2  C   UNL     1     -11.911  12.334  66.567  1.00  0.00    -0.306 C  
ENDROOT
BRANCH   2   3
HETATM    3  N   UNL     1     -10.796  11.437  66.257  1.00  0.00    -0.276 N  
HETATM    4  O   UNL     1     -10.385  11.150  68.523  1.00  0.00    -0.178 OA 
HETATM    5  C   UNL     1     -10.088  10.915  67.355  1.00  0.00    -0.191 C  
BRANCH   3   6
HETATM    6  C   UNL     1     -10.242  11.406  64.900  1.00  0.00    -0.278 C  
HETATM    7  C   UNL     1     -11.065  12.033  63.788  1.00  0.00    -0.510 C  
ENDBRANCH   3   6
BRANCH   5   8
HETATM    8  C   UNL     1      -8.914   9.984  67.077  1.00  0.00    -0.152 C  
HETATM    9  C   UNL     1      -7.938  10.431  65.980  1.00  0.00    -0.144 C  
HETATM   10  C   UNL     1      -7.496  10.481  67.412  1.00  0.00    -0.094 C  
BRANCH   8  11
HETATM   11  C   UNL     1      -9.277   8.491  67.075  1.00  0.00    -0.187 A  
HETATM   12  C   UNL     1      -8.320   7.544  66.668  1.00  0.00    -0.127 A  
HETATM   13  C   UNL     1      -8.670   6.217  66.406  1.00  0.00    -0.137 A  
HETATM   14  C   UNL     1     -10.580   8.024  67.318  1.00  0.00    -0.360 A  
HETATM   15  C   UNL     1      -9.988   5.804  66.565  1.00  0.00    -0.202 A  
HETATM   16  C   UNL     1     -10.939   6.700  67.044  1.00  0.00    -0.463 A  
ENDBRANCH   8  11
BRANCH  10  17
HETATM   17  C   UNL     1      -7.283  11.791  68.112  1.00  0.00    -0.086 C  
HETATM   18  N   UNL     1      -7.388  11.622  69.552  1.00  0.00    -0.345 NA 
HETATM   19  H2  UNL     1      -6.753  10.901  69.895  1.00  0.00     0.000 HD 
HETATM   20  H1  UNL     1      -7.244  12.513  70.027  1.00  0.00     0.000 HD 
ENDBRANCH  10  17
ENDBRANCH   5   8
ENDBRANCH   2   3
TORSDOF 5
ENDMDL
MODEL      188
REMARK 921   NORMALIZED FREE ENERGY PREDICTED BY IDOCK:   -2.73 KCAL/MOL
REMARK 922        TOTAL FREE ENERGY PREDICTED BY IDOCK:   -4.01 KCAL/MOL
REMARK 923 INTER-LIGAND FREE ENERGY PREDICTED BY IDOCK:   -4.52 KCAL/MOL
REMARK 924 INTRA-LIGAND FREE ENERGY PREDICTED BY IDOCK:    0.50 KCAL/MOL
REMARK 927      BINDING AFFINITY PREDICTED BY RF-SCORE:    0.00 PKD
ROOT
HETATM    1  C   UNL     1      -9.459   7.259  67.137  1.00  0.00    -0.180 C  
HETATM    2  C   UNL     1     -10.495   8.336  66.873  1.00  0.00    -0.295 C  
ENDROOT
BRANCH   2   3
HETATM    3  N   UNL     1      -9.930   9.573  66.331  1.00  0.00    -0.256 N  
HETATM    4  O   UNL     1     -11.377  10.822  67.647  1.00  0.00    -0.392 OA 
HETATM    5  C   UNL     1     -10.488  10.775  66.801  1.00  0.00    -0.251 C  
BRANCH   3   6
HETATM    6  C   UNL     1      -9.113   9.529  65.115  1.00  0.00    -0.228 C  
HETATM    7  C   UNL     1      -7.625   9.277  65.274  1.00  0.00    -0.099 C  
ENDBRANCH   3   6
BRANCH   5   8
HETATM    8  C   UNL     1      -9.935  12.087  66.257  1.00  0.00    -0.249 C  
HETATM    9  C   UNL     1      -9.794  12.183  64.731  1.00  0.00    -0.157 C  
HETATM   10  C   UNL     1     -10.868  12.976  65.414  1.00  0.00    -0.304 C  
BRANCH   8  11
HETATM   11  C   UNL     1      -8.769  12.668  67.071  1.00  0.00    -0.198 A  
HETATM   12  C   UNL     1      -8.974  13.818  67.855  1.00  0.00    -0.193 A  
HETATM   13  C   UNL     1      -7.905  14.528  68.406  1.00  0.00    -0.135 A  
HETATM   14  C   UNL     1      -7.450  12.197  66.956  1.00  0.00    -0.086 A  
HETATM   15  C   UNL     1      -6.602  14.091  68.197  1.00  0.00    -0.124 A  
HETATM   16  C   UNL     1      -6.374  12.911  67.493  1.00  0.00    -0.161 A  
ENDBRANCH   8  11
BRANCH  10  17
HETATM   17  C   UNL     1     -12.317  12.627  65.241  1.00  0.00    -0.466 C  
HETATM   18  N   UNL     1     -13.131  13.831  65.217  1.00  0.00    -0.744 NA 
HETATM   19  H2  UNL     1     -12.812  14.489  64.506  1.00  0.00     0.000 HD 
HETATM   20  H1  UNL     1     -14.116  13.593  65.099  1.00  0.00     0.000 HD 
ENDBRANCH  10  17
ENDBRANCH   5   8
ENDBRANCH   2   3
TORSDOF 5
ENDMDL
MODEL      189
REMARK 921   NORMALIZED FREE ENERGY PREDICTED BY IDOCK:   -2.72 KCAL/MOL
REMARK 922        TOTAL FREE ENERGY PREDICTED BY IDOCK:   -4.00 KCAL/MOL
REMARK 923 INTER-LIGAND FREE ENERGY PREDICTED BY IDOCK:   -3.66 KCAL/MOL
REMARK 924 INTRA-LIGAND FREE ENERGY PREDICTED BY IDOCK:   -0.34 KCAL/MOL
REMARK 927      BINDING AFFINITY PREDICTED BY RF-SCORE:    0.00 PKD
ROOT
HETATM    1  C   UNL     1     -10.767   6.539  67.858  1.00  0.00    -0.357 C  
HETATM    2  C   UNL     1     -10.274   7.608  68.815  1.00  0.00    -0.199 C  
ENDROOT
BRANCH   2   3
HETATM    3  N   UNL     1      -9.753   8.800  68.143  1.00  0.00    -0.153 N  
HETATM    4  O   UNL     1      -8.842   9.541  70.145  1.00  0.00    -0.201 OA 
HETATM    5  C   UNL     1      -9.053   9.717  68.949  1.00  0.00    -0.148 C  
BRANCH   3   6
HETATM    6  C   UNL     1     -10.262   9.172  66.820  1.00  0.00    -0.261 C  
HETATM    7  C   UNL     1      -9.396   8.848  65.615  1.00  0.00    -0.259 C  
ENDBRANCH   3   6
BRANCH   5   8
HETATM    8  C   UNL     1      -8.501  10.977  68.292  1.00  0.00    -0.138 C  
HETATM    9  C   UNL     1      -7.263  11.600  68.952  1.00  0.00    -0.113 C  
HETATM   10  C   UNL     1      -7.112  10.904  67.632  1.00  0.00    -0.087 C  
BRANCH   8  11
HETATM   11  C   UNL     1      -9.576  11.970  67.824  1.00  0.00    -0.193 A  
HETATM   12  C   UNL     1      -9.459  12.576  66.560  1.00  0.00    -0.240 A  
HETATM   13  C   UNL     1     -10.257  13.662  66.193  1.00  0.00    -0.306 A  
HETATM   14  C   UNL     1     -10.606  12.429  68.663  1.00  0.00    -0.243 A  
HETATM   15  C   UNL     1     -11.207  14.155  67.080  1.00  0.00    -0.330 A  
HETATM   16  C   UNL     1     -11.399  13.524  68.306  1.00  0.00    -0.328 A  
ENDBRANCH   8  11
BRANCH  10  17
HETATM   17  C   UNL     1      -6.377   9.600  67.523  1.00  0.00    -0.064 C  
HETATM   18  N   UNL     1      -5.437   9.637  66.416  1.00  0.00    -0.044 NA 
HETATM   19  H2  UNL     1      -4.797  10.428  66.489  1.00  0.00     0.000 HD 
HETATM   20  H1  UNL     1      -4.937   8.750  66.342  1.00  0.00     0.000 HD 
ENDBRANCH  10  17
ENDBRANCH   5   8
ENDBRANCH   2   3
TORSDOF 5
ENDMDL
MODEL      190
REMARK 921   NORMALIZED FREE ENERGY PREDICTED BY IDOCK:   -2.69 KCAL/MOL
REMARK 922        TOTAL FREE ENERGY PREDICTED BY IDOCK:   -3.97 KCAL/MOL
REMARK 923 INTER-LIGAND FREE ENERGY PREDICTED BY IDOCK:   -3.41 KCAL/MOL
REMARK 924 INTRA-LIGAND FREE ENERGY PREDICTED BY IDOCK:   -0.56 KCAL/MOL
REMARK 927      BINDING AFFINITY PREDICTED BY RF-SCORE:    0.00 PKD
ROOT
HETATM    1  C   UNL     1      -9.533   8.388  66.256  1.00  0.00    -0.292 C  
HETATM    2  C   UNL     1      -8.577   7.263  66.610  1.00  0.00    -0.128 C  
ENDROOT
BRANCH   2   3
HETATM    3  N   UNL     1      -8.573   6.926  68.035  1.00  0.00    -0.123 N  
HETATM    4  O   UNL     1     -10.237   5.348  67.675  1.00  0.00    -0.177 OA 
HETATM    5  C   UNL     1      -9.487   5.939  68.447  1.00  0.00    -0.120 C  
BRANCH   3   6
HETATM    6  C   UNL     1      -7.929   7.827  68.995  1.00  0.00    -0.123 C  
HETATM    7  C   UNL     1      -6.612   8.464  68.590  1.00  0.00    -0.055 C  
ENDBRANCH   3   6
BRANCH   5   8
HETATM    8  C   UNL     1      -9.522   5.563  69.924  1.00  0.00    -0.203 C  
HETATM    9  C   UNL     1      -9.862   4.101  70.244  1.00  0.00    -0.239 C  
HETATM   10  C   UNL     1      -8.458   4.584  70.451  1.00  0.00    -0.096 C  
BRANCH   8  11
HETATM   11  C   UNL     1     -10.184   6.614  70.828  1.00  0.00    -0.221 A  
HETATM   12  C   UNL     1      -9.714   6.795  72.142  1.00  0.00    -0.156 A  
HETATM   13  C   UNL     1     -10.430   7.543  73.079  1.00  0.00    -0.396 A  
HETATM   14  C   UNL     1     -11.349   7.309  70.463  1.00  0.00    -0.308 A  
HETATM   15  C   UNL     1     -11.630   8.144  72.715  1.00  0.00    -0.371 A  
HETATM   16  C   UNL     1     -12.078   8.048  71.400  1.00  0.00    -0.332 A  
ENDBRANCH   8  11
BRANCH  10  17
HETATM   17  C   UNL     1      -7.339   4.112  69.568  1.00  0.00    -0.050 C  
HETATM   18  N   UNL     1      -6.126   4.865  69.838  1.00  0.00    -0.021 NA 
HETATM   19  H2  UNL     1      -5.870   4.831  70.825  1.00  0.00     0.000 HD 
HETATM   20  H1  UNL     1      -5.366   4.545  69.238  1.00  0.00     0.000 HD 
ENDBRANCH  10  17
ENDBRANCH   5   8
ENDBRANCH   2   3
TORSDOF 5
ENDMDL
MODEL      191
REMARK 921   NORMALIZED FREE ENERGY PREDICTED BY IDOCK:   -2.68 KCAL/MOL
REMARK 922        TOTAL FREE ENERGY PREDICTED BY IDOCK:   -3.96 KCAL/MOL
REMARK 923 INTER-LIGAND FREE ENERGY PREDICTED BY IDOCK:   -3.33 KCAL/MOL
REMARK 924 INTRA-LIGAND FREE ENERGY PREDICTED BY IDOCK:   -0.63 KCAL/MOL
REMARK 927      BINDING AFFINITY PREDICTED BY RF-SCORE:    0.00 PKD
ROOT
HETATM    1  C   UNL     1      -6.821   9.088  68.858  1.00  0.00    -0.057 C  
HETATM    2  C   UNL     1      -6.876   8.553  70.277  1.00  0.00    -0.039 C  
ENDROOT
BRANCH   2   3
HETATM    3  N   UNL     1      -8.061   7.738  70.550  1.00  0.00    -0.102 N  
HETATM    4  O   UNL     1      -8.222   8.668  72.671  1.00  0.00    -0.372 OA 
HETATM    5  C   UNL     1      -8.640   7.883  71.824  1.00  0.00    -0.119 C  
BRANCH   3   6
HETATM    6  C   UNL     1      -8.371   6.593  69.691  1.00  0.00    -0.132 C  
HETATM    7  C   UNL     1      -7.392   5.432  69.682  1.00  0.00    -0.065 C  
ENDBRANCH   3   6
BRANCH   5   8
HETATM    8  C   UNL     1      -9.871   7.047  72.154  1.00  0.00    -0.168 C  
HETATM    9  C   UNL     1     -10.915   7.706  73.066  1.00  0.00    -0.457 C  
HETATM   10  C   UNL     1     -11.235   7.515  71.614  1.00  0.00    -0.275 C  
BRANCH   8  11
HETATM   11  C   UNL     1      -9.572   5.569  72.445  1.00  0.00    -0.170 A  
HETATM   12  C   UNL     1      -8.456   5.228  73.230  1.00  0.00    -0.117 A  
HETATM   13  C   UNL     1      -7.995   3.912  73.314  1.00  0.00    -0.088 A  
HETATM   14  C   UNL     1     -10.274   4.514  71.835  1.00  0.00    -0.241 A  
HETATM   15  C   UNL     1      -8.654   2.901  72.624  1.00  0.00    -0.080 A  
HETATM   16  C   UNL     1      -9.809   3.197  71.904  1.00  0.00    -0.238 A  
ENDBRANCH   8  11
BRANCH  10  17
HETATM   17  C   UNL     1     -11.334   8.688  70.682  1.00  0.00    -0.247 C  
HETATM   18  N   UNL     1     -11.439   9.927  71.433  1.00  0.00    -0.361 NA 
HETATM   19  H2  UNL     1     -10.672  10.034  72.096  1.00  0.00     0.000 HD 
HETATM   20  H1  UNL     1     -11.507  10.724  70.800  1.00  0.00     0.000 HD 
ENDBRANCH  10  17
ENDBRANCH   5   8
ENDBRANCH   2   3
TORSDOF 5
ENDMDL
MODEL      192
REMARK 921   NORMALIZED FREE ENERGY PREDICTED BY IDOCK:   -2.66 KCAL/MOL
REMARK 922        TOTAL FREE ENERGY PREDICTED BY IDOCK:   -3.93 KCAL/MOL
REMARK 923 INTER-LIGAND FREE ENERGY PREDICTED BY IDOCK:   -3.48 KCAL/MOL
REMARK 924 INTRA-LIGAND FREE ENERGY PREDICTED BY IDOCK:   -0.45 KCAL/MOL
REMARK 927      BINDING AFFINITY PREDICTED BY RF-SCORE:    0.00 PKD
ROOT
HETATM    1  C   UNL     1     -11.236   6.126  69.414  1.00  0.00    -0.466 C  
HETATM    2  C   UNL     1      -9.774   6.168  69.010  1.00  0.00    -0.135 C  
ENDROOT
BRANCH   2   3
HETATM    3  N   UNL     1      -9.322   7.492  68.580  1.00  0.00    -0.143 N  
HETATM    4  O   UNL     1      -8.887   8.069  70.785  1.00  0.00    -0.135 OA 
HETATM    5  C   UNL     1      -8.912   8.374  69.596  1.00  0.00    -0.145 C  
BRANCH   3   6
HETATM    6  C   UNL     1      -9.644   7.969  67.232  1.00  0.00    -0.162 C  
HETATM    7  C   UNL     1      -9.271   7.078  66.061  1.00  0.00    -0.066 C  
ENDBRANCH   3   6
BRANCH   5   8
HETATM    8  C   UNL     1      -8.442   9.767  69.194  1.00  0.00    -0.143 C  
HETATM    9  C   UNL     1      -7.232  10.322  69.957  1.00  0.00    -0.164 C  
HETATM   10  C   UNL     1      -7.062   9.905  68.527  1.00  0.00    -0.071 C  
BRANCH   8  11
HETATM   11  C   UNL     1      -9.579  10.767  68.932  1.00  0.00    -0.204 A  
HETATM   12  C   UNL     1     -10.789  10.642  69.640  1.00  0.00    -0.318 A  
HETATM   13  C   UNL     1     -11.932  11.354  69.266  1.00  0.00    -0.400 A  
HETATM   14  C   UNL     1      -9.534  11.721  67.902  1.00  0.00    -0.191 A  
HETATM   15  C   UNL     1     -11.883  12.223  68.182  1.00  0.00    -0.372 A  
HETATM   16  C   UNL     1     -10.678  12.426  67.514  1.00  0.00    -0.256 A  
ENDBRANCH   8  11
BRANCH  10  17
HETATM   17  C   UNL     1      -6.255   8.692  68.164  1.00  0.00    -0.051 C  
HETATM   18  N   UNL     1      -6.044   8.633  66.728  1.00  0.00    -0.056 NA 
HETATM   19  H2  UNL     1      -5.621   9.489  66.371  1.00  0.00     0.000 HD 
HETATM   20  H1  UNL     1      -5.497   7.808  66.482  1.00  0.00     0.000 HD 
ENDBRANCH  10  17
ENDBRANCH   5   8
ENDBRANCH   2   3
TORSDOF 5
ENDMDL
MODEL      193
REMARK 921   NORMALIZED FREE ENERGY PREDICTED BY IDOCK:   -2.65 KCAL/MOL
REMARK 922        TOTAL FREE ENERGY PREDICTED BY IDOCK:   -3.91 KCAL/MOL
REMARK 923 INTER-LIGAND FREE ENERGY PREDICTED BY IDOCK:   -4.26 KCAL/MOL
REMARK 924 INTRA-LIGAND FREE ENERGY PREDICTED BY IDOCK:    0.35 KCAL/MOL
REMARK 927      BINDING AFFINITY PREDICTED BY RF-SCORE:    0.00 PKD
ROOT
HETATM    1  C   UNL     1      -6.027   9.291  68.564  1.00  0.00    -0.044 C  
HETATM    2  C   UNL     1      -6.836   8.184  69.215  1.00  0.00    -0.051 C  
ENDROOT
BRANCH   2   3
HETATM    3  N   UNL     1      -8.281   8.420  69.184  1.00  0.00    -0.119 N  
HETATM    4  O   UNL     1      -8.121   9.711  71.106  1.00  0.00    -0.259 OA 
HETATM    5  C   UNL     1      -8.810   9.205  70.225  1.00  0.00    -0.213 C  
BRANCH   3   6
HETATM    6  C   UNL     1      -9.138   7.578  68.344  1.00  0.00    -0.133 C  
HETATM    7  C   UNL     1      -8.740   6.124  68.164  1.00  0.00    -0.114 C  
ENDBRANCH   3   6
BRANCH   5   8
HETATM    8  C   UNL     1     -10.311   9.468  70.236  1.00  0.00    -0.321 C  
HETATM    9  C   UNL     1     -11.217   8.237  70.090  1.00  0.00    -0.132 C  
HETATM   10  C   UNL     1     -11.135   8.928  71.419  1.00  0.00    -0.376 C  
BRANCH   8  11
HETATM   11  C   UNL     1     -10.741  10.709  69.439  1.00  0.00    -0.281 A  
HETATM   12  C   UNL     1     -11.531  11.693  70.061  1.00  0.00    -0.266 A  
HETATM   13  C   UNL     1     -12.156  12.702  69.324  1.00  0.00    -0.218 A  
HETATM   14  C   UNL     1     -10.514  10.846  68.059  1.00  0.00    -0.222 A  
HETATM   15  C   UNL     1     -11.989  12.759  67.946  1.00  0.00    -0.320 A  
HETATM   16  C   UNL     1     -11.148  11.846  67.314  1.00  0.00    -0.344 A  
ENDBRANCH   8  11
BRANCH  10  17
HETATM   17  C   UNL     1     -10.465   8.274  72.592  1.00  0.00    -0.303 C  
HETATM   18  N   UNL     1     -11.285   7.191  73.107  1.00  0.00    -0.547 NA 
HETATM   19  H2  UNL     1     -11.521   6.515  72.381  1.00  0.00     0.000 HD 
HETATM   20  H1  UNL     1     -10.829   6.747  73.905  1.00  0.00     0.000 HD 
ENDBRANCH  10  17
ENDBRANCH   5   8
ENDBRANCH   2   3
TORSDOF 5
ENDMDL
MODEL      194
REMARK 921   NORMALIZED FREE ENERGY PREDICTED BY IDOCK:   -2.64 KCAL/MOL
REMARK 922        TOTAL FREE ENERGY PREDICTED BY IDOCK:   -3.90 KCAL/MOL
REMARK 923 INTER-LIGAND FREE ENERGY PREDICTED BY IDOCK:   -3.52 KCAL/MOL
REMARK 924 INTRA-LIGAND FREE ENERGY PREDICTED BY IDOCK:   -0.38 KCAL/MOL
REMARK 927      BINDING AFFINITY PREDICTED BY RF-SCORE:    0.00 PKD
ROOT
HETATM    1  C   UNL     1      -5.829   8.776  69.371  1.00  0.00    -0.034 C  
HETATM    2  C   UNL     1      -6.561   7.766  70.236  1.00  0.00    -0.038 C  
ENDROOT
BRANCH   2   3
HETATM    3  N   UNL     1      -7.469   6.900  69.483  1.00  0.00    -0.094 N  
HETATM    4  O   UNL     1      -9.175   7.364  70.987  1.00  0.00    -0.152 OA 
HETATM    5  C   UNL     1      -8.775   6.770  69.990  1.00  0.00    -0.141 C  
BRANCH   3   6
HETATM    6  C   UNL     1      -6.929   5.955  68.502  1.00  0.00    -0.075 C  
HETATM    7  C   UNL     1      -6.884   6.395  67.049  1.00  0.00    -0.066 C  
ENDBRANCH   3   6
BRANCH   5   8
HETATM    8  C   UNL     1      -9.751   5.870  69.242  1.00  0.00    -0.182 C  
HETATM    9  C   UNL     1     -11.238   6.232  69.364  1.00  0.00    -0.489 C  
HETATM   10  C   UNL     1     -10.535   6.470  68.061  1.00  0.00    -0.265 C  
BRANCH   8  11
HETATM   11  C   UNL     1      -9.423   4.371  69.327  1.00  0.00    -0.249 A  
HETATM   12  C   UNL     1      -9.447   3.588  68.159  1.00  0.00    -0.215 A  
HETATM   13  C   UNL     1      -9.408   2.193  68.213  1.00  0.00    -0.260 A  
HETATM   14  C   UNL     1      -9.244   3.698  70.547  1.00  0.00    -0.210 A  
HETATM   15  C   UNL     1      -9.325   1.549  69.442  1.00  0.00    -0.167 A  
HETATM   16  C   UNL     1      -9.218   2.301  70.609  1.00  0.00    -0.191 A  
ENDBRANCH   8  11
BRANCH  10  17
HETATM   17  C   UNL     1     -10.253   7.862  67.576  1.00  0.00    -0.242 C  
HETATM   18  N   UNL     1     -10.988   8.835  68.366  1.00  0.00    -0.451 NA 
HETATM   19  H2  UNL     1     -10.797   8.735  69.363  1.00  0.00     0.000 HD 
HETATM   20  H1  UNL     1     -10.797   9.781  68.036  1.00  0.00     0.000 HD 
ENDBRANCH  10  17
ENDBRANCH   5   8
ENDBRANCH   2   3
TORSDOF 5
ENDMDL
MODEL      195
REMARK 921   NORMALIZED FREE ENERGY PREDICTED BY IDOCK:   -2.63 KCAL/MOL
REMARK 922        TOTAL FREE ENERGY PREDICTED BY IDOCK:   -3.90 KCAL/MOL
REMARK 923 INTER-LIGAND FREE ENERGY PREDICTED BY IDOCK:   -3.34 KCAL/MOL
REMARK 924 INTRA-LIGAND FREE ENERGY PREDICTED BY IDOCK:   -0.55 KCAL/MOL
REMARK 927      BINDING AFFINITY PREDICTED BY RF-SCORE:    0.00 PKD
ROOT
HETATM    1  C   UNL     1     -11.924   9.017  71.715  1.00  0.00    -0.438 C  
HETATM    2  C   UNL     1     -12.104   7.550  72.060  1.00  0.00    -0.291 C  
ENDROOT
BRANCH   2   3
HETATM    3  N   UNL     1     -10.845   6.808  72.141  1.00  0.00    -0.221 N  
HETATM    4  O   UNL     1     -11.282   5.823  70.086  1.00  0.00    -0.319 OA 
HETATM    5  C   UNL     1     -10.557   5.944  71.069  1.00  0.00    -0.250 C  
BRANCH   3   6
HETATM    6  C   UNL     1     -10.144   6.701  73.424  1.00  0.00    -0.228 C  
HETATM    7  C   UNL     1      -9.044   7.706  73.713  1.00  0.00    -0.332 C  
ENDBRANCH   3   6
BRANCH   5   8
HETATM    8  C   UNL     1      -9.260   5.146  71.117  1.00  0.00    -0.183 C  
HETATM    9  C   UNL     1      -8.637   4.781  69.762  1.00  0.00    -0.101 C  
HETATM   10  C   UNL     1      -7.971   5.820  70.613  1.00  0.00    -0.109 C  
BRANCH   8  11
HETATM   11  C   UNL     1      -9.239   4.036  72.179  1.00  0.00    -0.168 A  
HETATM   12  C   UNL     1      -8.044   3.753  72.865  1.00  0.00    -0.086 A  
HETATM   13  C   UNL     1      -7.903   2.603  73.645  1.00  0.00    -0.055 A  
HETATM   14  C   UNL     1     -10.326   3.172  72.400  1.00  0.00    -0.146 A  
HETATM   15  C   UNL     1      -8.967   1.717  73.771  1.00  0.00    -0.058 A  
HETATM   16  C   UNL     1     -10.187   2.012  73.169  1.00  0.00    -0.195 A  
ENDBRANCH   8  11
BRANCH  10  17
HETATM   17  C   UNL     1      -7.964   7.265  70.208  1.00  0.00    -0.115 C  
HETATM   18  N   UNL     1      -6.961   8.000  70.960  1.00  0.00    -0.048 NA 
HETATM   19  H2  UNL     1      -6.037   7.578  70.873  1.00  0.00     0.000 HD 
HETATM   20  H1  UNL     1      -6.957   8.983  70.685  1.00  0.00     0.000 HD 
ENDBRANCH  10  17
ENDBRANCH   5   8
ENDBRANCH   2   3
TORSDOF 5
ENDMDL
MODEL      196
REMARK 921   NORMALIZED FREE ENERGY PREDICTED BY IDOCK:   -2.57 KCAL/MOL
REMARK 922        TOTAL FREE ENERGY PREDICTED BY IDOCK:   -3.81 KCAL/MOL
REMARK 923 INTER-LIGAND FREE ENERGY PREDICTED BY IDOCK:   -3.84 KCAL/MOL
REMARK 924 INTRA-LIGAND FREE ENERGY PREDICTED BY IDOCK:    0.04 KCAL/MOL
REMARK 927      BINDING AFFINITY PREDICTED BY RF-SCORE:    0.00 PKD
ROOT
HETATM    1  C   UNL     1      -9.891   6.125  67.020  1.00  0.00    -0.180 C  
HETATM    2  C   UNL     1      -8.937   5.944  68.187  1.00  0.00    -0.115 C  
ENDROOT
BRANCH   2   3
HETATM    3  N   UNL     1      -8.954   7.060  69.135  1.00  0.00    -0.135 N  
HETATM    4  O   UNL     1      -8.907   5.564  70.909  1.00  0.00    -0.135 OA 
HETATM    5  C   UNL     1      -8.955   6.721  70.500  1.00  0.00    -0.152 C  
BRANCH   3   6
HETATM    6  C   UNL     1      -9.327   8.401  68.676  1.00  0.00    -0.143 C  
HETATM    7  C   UNL     1      -8.371   9.117  67.740  1.00  0.00    -0.117 C  
ENDBRANCH   3   6
BRANCH   5   8
HETATM    8  C   UNL     1      -8.980   7.851  71.522  1.00  0.00    -0.167 C  
HETATM    9  C   UNL     1      -8.118   7.652  72.776  1.00  0.00    -0.145 C  
HETATM   10  C   UNL     1      -7.688   8.657  71.749  1.00  0.00    -0.131 C  
BRANCH   8  11
HETATM   11  C   UNL     1     -10.373   8.456  71.761  1.00  0.00    -0.333 A  
HETATM   12  C   UNL     1     -11.310   7.753  72.541  1.00  0.00    -0.429 A  
HETATM   13  C   UNL     1     -12.655   8.127  72.579  1.00  0.00    -0.200 A  
HETATM   14  C   UNL     1     -10.821   9.617  71.110  1.00  0.00    -0.404 A  
HETATM   15  C   UNL     1     -13.090   9.227  71.850  1.00  0.00    -0.490 A  
HETATM   16  C   UNL     1     -12.170   9.988  71.134  1.00  0.00    -0.477 A  
ENDBRANCH   8  11
BRANCH  10  17
HETATM   17  C   UNL     1      -6.474   8.423  70.898  1.00  0.00    -0.040 C  
HETATM   18  N   UNL     1      -5.831   9.685  70.572  1.00  0.00    -0.053 NA 
HETATM   19  H2  UNL     1      -5.609  10.224  71.409  1.00  0.00     0.000 HD 
HETATM   20  H1  UNL     1      -5.006   9.527  69.994  1.00  0.00     0.000 HD 
ENDBRANCH  10  17
ENDBRANCH   5   8
ENDBRANCH   2   3
TORSDOF 5
ENDMDL
MODEL      197
REMARK 921   NORMALIZED FREE ENERGY PREDICTED BY IDOCK:   -2.56 KCAL/MOL
REMARK 922        TOTAL FREE ENERGY PREDICTED BY IDOCK:   -3.80 KCAL/MOL
REMARK 923 INTER-LIGAND FREE ENERGY PREDICTED BY IDOCK:   -3.57 KCAL/MOL
REMARK 924 INTRA-LIGAND FREE ENERGY PREDICTED BY IDOCK:   -0.22 KCAL/MOL
REMARK 927      BINDING AFFINITY PREDICTED BY RF-SCORE:    0.00 PKD
ROOT
HETATM    1  C   UNL     1      -5.476   6.775  73.362  1.00  0.00    -0.042 C  
HETATM    2  C   UNL     1      -6.365   5.583  73.667  1.00  0.00    -0.070 C  
ENDROOT
BRANCH   2   3
HETATM    3  N   UNL     1      -7.785   5.832  73.412  1.00  0.00    -0.102 N  
HETATM    4  O   UNL     1      -7.536   5.069  71.234  1.00  0.00    -0.084 OA 
HETATM    5  C   UNL     1      -8.248   5.541  72.117  1.00  0.00    -0.112 C  
BRANCH   3   6
HETATM    6  C   UNL     1      -8.553   6.676  74.332  1.00  0.00    -0.153 C  
HETATM    7  C   UNL     1      -8.135   8.128  74.472  1.00  0.00    -0.265 C  
ENDBRANCH   3   6
BRANCH   5   8
HETATM    8  C   UNL     1      -9.719   5.793  71.805  1.00  0.00    -0.185 C  
HETATM    9  C   UNL     1     -10.370   4.844  70.790  1.00  0.00    -0.228 C  
HETATM   10  C   UNL     1     -10.747   4.732  72.237  1.00  0.00    -0.185 C  
BRANCH   8  11
HETATM   11  C   UNL     1     -10.089   7.277  71.660  1.00  0.00    -0.196 A  
HETATM   12  C   UNL     1     -11.363   7.717  72.063  1.00  0.00    -0.332 A  
HETATM   13  C   UNL     1     -11.839   8.986  71.724  1.00  0.00    -0.442 A  
HETATM   14  C   UNL     1      -9.268   8.206  70.998  1.00  0.00    -0.178 A  
HETATM   15  C   UNL     1     -11.040   9.852  70.987  1.00  0.00    -0.401 A  
HETATM   16  C   UNL     1      -9.745   9.473  70.644  1.00  0.00    -0.311 A  
ENDBRANCH   8  11
BRANCH  10  17
HETATM   17  C   UNL     1     -10.332   3.544  73.056  1.00  0.00    -0.165 C  
HETATM   18  N   UNL     1      -9.731   2.528  72.209  1.00  0.00    -0.124 NA 
HETATM   19  H2  UNL     1      -8.955   2.900  71.662  1.00  0.00     0.000 HD 
HETATM   20  H1  UNL     1      -9.449   1.720  72.766  1.00  0.00     0.000 HD 
ENDBRANCH  10  17
ENDBRANCH   5   8
ENDBRANCH   2   3
TORSDOF 5
ENDMDL
MODEL      198
REMARK 921   NORMALIZED FREE ENERGY PREDICTED BY IDOCK:   -2.55 KCAL/MOL
REMARK 922        TOTAL FREE ENERGY PREDICTED BY IDOCK:   -3.79 KCAL/MOL
REMARK 923 INTER-LIGAND FREE ENERGY PREDICTED BY IDOCK:   -3.28 KCAL/MOL
REMARK 924 INTRA-LIGAND FREE ENERGY PREDICTED BY IDOCK:   -0.51 KCAL/MOL
REMARK 927      BINDING AFFINITY PREDICTED BY RF-SCORE:    0.00 PKD
ROOT
HETATM    1  C   UNL     1      -9.534  12.969  68.087  1.00  0.00    -0.218 C  
HETATM    2  C   UNL     1      -9.248  12.598  66.644  1.00  0.00    -0.218 C  
ENDROOT
BRANCH   2   3
HETATM    3  N   UNL     1      -8.620  11.285  66.490  1.00  0.00    -0.166 N  
HETATM    4  O   UNL     1      -9.875  10.900  64.575  1.00  0.00    -0.247 OA 
HETATM    5  C   UNL     1      -9.048  10.511  65.396  1.00  0.00    -0.187 C  
BRANCH   3   6
HETATM    6  C   UNL     1      -7.889  10.690  67.612  1.00  0.00    -0.105 C  
HETATM    7  C   UNL     1      -6.413  11.017  67.745  1.00  0.00    -0.063 C  
ENDBRANCH   3   6
BRANCH   5   8
HETATM    8  C   UNL     1      -8.427   9.132  65.202  1.00  0.00    -0.182 C  
HETATM    9  C   UNL     1      -8.255   8.663  63.751  1.00  0.00    -0.145 C  
HETATM   10  C   UNL     1      -7.040   9.046  64.541  1.00  0.00    -0.089 C  
BRANCH   8  11
HETATM   11  C   UNL     1      -8.929   8.069  66.191  1.00  0.00    -0.215 A  
HETATM   12  C   UNL     1     -10.270   8.092  66.614  1.00  0.00    -0.315 A  
HETATM   13  C   UNL     1     -10.711   7.319  67.690  1.00  0.00    -0.294 A  
HETATM   14  C   UNL     1      -8.072   7.151  66.823  1.00  0.00    -0.113 A  
HETATM   15  C   UNL     1      -9.819   6.488  68.358  1.00  0.00    -0.137 A  
HETATM   16  C   UNL     1      -8.505   6.385  67.910  1.00  0.00    -0.118 A  
ENDBRANCH   8  11
BRANCH  10  17
HETATM   17  C   UNL     1      -6.262  10.287  64.213  1.00  0.00    -0.109 C  
HETATM   18  N   UNL     1      -6.622  10.780  62.895  1.00  0.00    -0.356 NA 
HETATM   19  H2  UNL     1      -7.628  10.928  62.807  1.00  0.00     0.000 HD 
HETATM   20  H1  UNL     1      -6.094  11.623  62.672  1.00  0.00     0.000 HD 
ENDBRANCH  10  17
ENDBRANCH   5   8
ENDBRANCH   2   3
TORSDOF 5
ENDMDL
MODEL      199
REMARK 921   NORMALIZED FREE ENERGY PREDICTED BY IDOCK:   -2.55 KCAL/MOL
REMARK 922        TOTAL FREE ENERGY PREDICTED BY IDOCK:   -3.78 KCAL/MOL
REMARK 923 INTER-LIGAND FREE ENERGY PREDICTED BY IDOCK:   -3.07 KCAL/MOL
REMARK 924 INTRA-LIGAND FREE ENERGY PREDICTED BY IDOCK:   -0.71 KCAL/MOL
REMARK 927      BINDING AFFINITY PREDICTED BY RF-SCORE:    0.00 PKD
ROOT
HETATM    1  C   UNL     1      -9.951   9.178  71.054  1.00  0.00    -0.367 C  
HETATM    2  C   UNL     1      -9.246   8.404  69.956  1.00  0.00    -0.158 C  
ENDROOT
BRANCH   2   3
HETATM    3  N   UNL     1      -8.826   9.238  68.828  1.00  0.00    -0.131 N  
HETATM    4  O   UNL     1     -10.883   8.903  67.805  1.00  0.00    -0.181 OA 
HETATM    5  C   UNL     1      -9.758   9.395  67.785  1.00  0.00    -0.151 C  
BRANCH   3   6
HETATM    6  C   UNL     1      -7.408   9.557  68.646  1.00  0.00    -0.075 C  
HETATM    7  C   UNL     1      -6.436   8.398  68.511  1.00  0.00    -0.055 C  
ENDBRANCH   3   6
BRANCH   5   8
HETATM    8  C   UNL     1      -9.359  10.248  66.587  1.00  0.00    -0.192 C  
HETATM    9  C   UNL     1     -10.481  11.067  65.934  1.00  0.00    -0.300 C  
HETATM   10  C   UNL     1      -9.428  11.779  66.729  1.00  0.00    -0.202 C  
BRANCH   8  11
HETATM   11  C   UNL     1      -8.385   9.561  65.618  1.00  0.00    -0.131 A  
HETATM   12  C   UNL     1      -8.529   8.188  65.347  1.00  0.00    -0.164 A  
HETATM   13  C   UNL     1      -7.534   7.465  64.684  1.00  0.00    -0.093 A  
HETATM   14  C   UNL     1      -7.249  10.202  65.095  1.00  0.00    -0.141 A  
HETATM   15  C   UNL     1      -6.377   8.108  64.260  1.00  0.00    -0.065 A  
HETATM   16  C   UNL     1      -6.244   9.482  64.443  1.00  0.00    -0.084 A  
ENDBRANCH   8  11
BRANCH  10  17
HETATM   17  C   UNL     1      -9.754  12.418  68.048  1.00  0.00    -0.210 C  
HETATM   18  N   UNL     1      -8.556  12.976  68.652  1.00  0.00    -0.367 NA 
HETATM   19  H2  UNL     1      -8.081  13.624  68.024  1.00  0.00     0.000 HD 
HETATM   20  H1  UNL     1      -8.777  13.409  69.549  1.00  0.00     0.000 HD 
ENDBRANCH  10  17
ENDBRANCH   5   8
ENDBRANCH   2   3
TORSDOF 5
ENDMDL
MODEL      200
REMARK 921   NORMALIZED FREE ENERGY PREDICTED BY IDOCK:   -2.53 KCAL/MOL
REMARK 922        TOTAL FREE ENERGY PREDICTED BY IDOCK:   -3.76 KCAL/MOL
REMARK 923 INTER-LIGAND FREE ENERGY PREDICTED BY IDOCK:   -3.72 KCAL/MOL
REMARK 924 INTRA-LIGAND FREE ENERGY PREDICTED BY IDOCK:   -0.04 KCAL/MOL
REMARK 927      BINDING AFFINITY PREDICTED BY RF-SCORE:    0.00 PKD
ROOT
HETATM    1  C   UNL     1     -11.845   8.448  72.266  1.00  0.00    -0.456 C  
HETATM    2  C   UNL     1     -11.176   9.167  71.108  1.00  0.00    -0.325 C  
ENDROOT
BRANCH   2   3
HETATM    3  N   UNL     1     -10.704   8.267  70.054  1.00  0.00    -0.240 N  
HETATM    4  O   UNL     1      -9.588  10.030  69.038  1.00  0.00    -0.176 OA 
HETATM    5  C   UNL     1      -9.913   8.846  69.045  1.00  0.00    -0.190 C  
BRANCH   3   6
HETATM    6  C   UNL     1     -11.334   6.956  69.879  1.00  0.00    -0.271 C  
HETATM    7  C   UNL     1     -10.587   5.740  70.398  1.00  0.00    -0.365 C  
ENDBRANCH   3   6
BRANCH   5   8
HETATM    8  C   UNL     1      -9.406   7.947  67.923  1.00  0.00    -0.150 C  
HETATM    9  C   UNL     1     -10.479   7.274  67.056  1.00  0.00    -0.398 C  
HETATM   10  C   UNL     1      -9.660   8.385  66.469  1.00  0.00    -0.304 C  
BRANCH   8  11
HETATM   11  C   UNL     1      -8.213   7.061  68.313  1.00  0.00    -0.124 A  
HETATM   12  C   UNL     1      -8.005   5.843  67.641  1.00  0.00    -0.102 A  
HETATM   13  C   UNL     1      -7.101   4.890  68.117  1.00  0.00    -0.062 A  
HETATM   14  C   UNL     1      -7.394   7.331  69.422  1.00  0.00    -0.089 A  
HETATM   15  C   UNL     1      -6.370   5.145  69.272  1.00  0.00    -0.034 A  
HETATM   16  C   UNL     1      -6.497   6.375  69.912  1.00  0.00    -0.047 A  
ENDBRANCH   8  11
BRANCH  10  17
HETATM   17  C   UNL     1     -10.274   9.720  66.162  1.00  0.00    -0.208 C  
HETATM   18  N   UNL     1      -9.243  10.736  66.034  1.00  0.00    -0.180 NA 
HETATM   19  H2  UNL     1      -8.537  10.475  65.345  1.00  0.00     0.000 HD 
HETATM   20  H1  UNL     1      -9.659  11.643  65.825  1.00  0.00     0.000 HD 
ENDBRANCH  10  17
ENDBRANCH   5   8
ENDBRANCH   2   3
TORSDOF 5
ENDMDL
MODEL      201
REMARK 921   NORMALIZED FREE ENERGY PREDICTED BY IDOCK:   -2.52 KCAL/MOL
REMARK 922        TOTAL FREE ENERGY PREDICTED BY IDOCK:   -3.75 KCAL/MOL
REMARK 923 INTER-LIGAND FREE ENERGY PREDICTED BY IDOCK:   -3.33 KCAL/MOL
REMARK 924 INTRA-LIGAND FREE ENERGY PREDICTED BY IDOCK:   -0.42 KCAL/MOL
REMARK 927      BINDING AFFINITY PREDICTED BY RF-SCORE:    0.00 PKD
ROOT
HETATM    1  C   UNL     1     -11.738  13.149  69.685  1.00  0.00    -0.370 C  
HETATM    2  C   UNL     1     -11.351  11.767  69.190  1.00  0.00    -0.279 C  
ENDROOT
BRANCH   2   3
HETATM    3  N   UNL     1     -10.102  11.746  68.427  1.00  0.00    -0.198 N  
HETATM    4  O   UNL     1      -9.586   9.663  69.311  1.00  0.00    -0.167 OA 
HETATM    5  C   UNL     1      -9.283  10.615  68.597  1.00  0.00    -0.181 C  
BRANCH   3   6
HETATM    6  C   UNL     1      -9.588  12.986  67.837  1.00  0.00    -0.215 C  
HETATM    7  C   UNL     1     -10.078  13.363  66.451  1.00  0.00    -0.292 C  
ENDBRANCH   3   6
BRANCH   5   8
HETATM    8  C   UNL     1      -7.968  10.556  67.828  1.00  0.00    -0.106 C  
HETATM    9  C   UNL     1      -7.462   9.156  67.457  1.00  0.00    -0.088 C  
HETATM   10  C   UNL     1      -7.997  10.047  66.376  1.00  0.00    -0.116 C  
BRANCH   8  11
HETATM   11  C   UNL     1      -6.899  11.540  68.327  1.00  0.00    -0.066 A  
HETATM   12  C   UNL     1      -6.646  11.649  69.707  1.00  0.00    -0.071 A  
HETATM   13  C   UNL     1      -5.880  12.693  70.230  1.00  0.00    -0.156 A  
HETATM   14  C   UNL     1      -6.256  12.461  67.483  1.00  0.00    -0.148 A  
HETATM   15  C   UNL     1      -5.332  13.645  69.377  1.00  0.00    -0.083 A  
HETATM   16  C   UNL     1      -5.499  13.516  68.001  1.00  0.00    -0.117 A  
ENDBRANCH   8  11
BRANCH  10  17
HETATM   17  C   UNL     1      -9.298   9.739  65.692  1.00  0.00    -0.227 C  
HETATM   18  N   UNL     1      -9.832   8.472  66.162  1.00  0.00    -0.447 NA 
HETATM   19  H2  UNL     1      -9.924   8.453  67.177  1.00  0.00     0.000 HD 
HETATM   20  H1  UNL     1     -10.716   8.263  65.697  1.00  0.00     0.000 HD 
ENDBRANCH  10  17
ENDBRANCH   5   8
ENDBRANCH   2   3
TORSDOF 5
ENDMDL
MODEL      202
REMARK 921   NORMALIZED FREE ENERGY PREDICTED BY IDOCK:   -2.51 KCAL/MOL
REMARK 922        TOTAL FREE ENERGY PREDICTED BY IDOCK:   -3.74 KCAL/MOL
REMARK 923 INTER-LIGAND FREE ENERGY PREDICTED BY IDOCK:   -3.68 KCAL/MOL
REMARK 924 INTRA-LIGAND FREE ENERGY PREDICTED BY IDOCK:   -0.06 KCAL/MOL
REMARK 927      BINDING AFFINITY PREDICTED BY RF-SCORE:    0.00 PKD
ROOT
HETATM    1  C   UNL     1      -6.590  10.647  66.346  1.00  0.00    -0.120 C  
HETATM    2  C   UNL     1      -7.900  11.388  66.545  1.00  0.00    -0.105 C  
ENDROOT
BRANCH   2   3
HETATM    3  N   UNL     1      -8.956  10.561  67.132  1.00  0.00    -0.140 N  
HETATM    4  O   UNL     1      -7.899  10.659  69.196  1.00  0.00    -0.125 OA 
HETATM    5  C   UNL     1      -8.821  10.248  68.497  1.00  0.00    -0.127 C  
BRANCH   3   6
HETATM    6  C   UNL     1      -9.867   9.815  66.259  1.00  0.00    -0.250 C  
HETATM    7  C   UNL     1      -9.257   9.018  65.120  1.00  0.00    -0.159 C  
ENDBRANCH   3   6
BRANCH   5   8
HETATM    8  C   UNL     1      -9.895   9.382  69.146  1.00  0.00    -0.174 C  
HETATM    9  C   UNL     1     -10.342   9.799  70.554  1.00  0.00    -0.348 C  
HETATM   10  C   UNL     1     -11.278  10.008  69.401  1.00  0.00    -0.235 C  
BRANCH   8  11
HETATM   11  C   UNL     1      -9.708   7.874  68.926  1.00  0.00    -0.158 A  
HETATM   12  C   UNL     1      -8.501   7.395  68.385  1.00  0.00    -0.125 A  
HETATM   13  C   UNL     1      -8.374   6.080  67.931  1.00  0.00    -0.116 A  
HETATM   14  C   UNL     1     -10.748   6.944  69.096  1.00  0.00    -0.262 A  
HETATM   15  C   UNL     1      -9.451   5.206  68.027  1.00  0.00    -0.156 A  
HETATM   16  C   UNL     1     -10.632   5.630  68.631  1.00  0.00    -0.268 A  
ENDBRANCH   8  11
BRANCH  10  17
HETATM   17  C   UNL     1     -11.603  11.388  68.908  1.00  0.00    -0.323 C  
HETATM   18  N   UNL     1     -11.215  12.384  69.892  1.00  0.00    -0.486 NA 
HETATM   19  H2  UNL     1     -10.233  12.297  70.153  1.00  0.00     0.000 HD 
HETATM   20  H1  UNL     1     -11.437  13.322  69.557  1.00  0.00     0.000 HD 
ENDBRANCH  10  17
ENDBRANCH   5   8
ENDBRANCH   2   3
TORSDOF 5
ENDMDL
MODEL      203
REMARK 921   NORMALIZED FREE ENERGY PREDICTED BY IDOCK:   -2.49 KCAL/MOL
REMARK 922        TOTAL FREE ENERGY PREDICTED BY IDOCK:   -3.71 KCAL/MOL
REMARK 923 INTER-LIGAND FREE ENERGY PREDICTED BY IDOCK:   -3.49 KCAL/MOL
REMARK 924 INTRA-LIGAND FREE ENERGY PREDICTED BY IDOCK:   -0.22 KCAL/MOL
REMARK 927      BINDING AFFINITY PREDICTED BY RF-SCORE:    0.00 PKD
ROOT
HETATM    1  C   UNL     1      -9.980   8.492  71.844  1.00  0.00    -0.365 C  
HETATM    2  C   UNL     1      -9.557   7.049  71.631  1.00  0.00    -0.156 C  
ENDROOT
BRANCH   2   3
HETATM    3  N   UNL     1      -9.250   6.729  70.236  1.00  0.00    -0.156 N  
HETATM    4  O   UNL     1     -11.466   6.138  69.876  1.00  0.00    -0.421 OA 
HETATM    5  C   UNL     1     -10.319   6.254  69.454  1.00  0.00    -0.216 C  
BRANCH   3   6
HETATM    6  C   UNL     1      -7.857   6.559  69.817  1.00  0.00    -0.115 C  
HETATM    7  C   UNL     1      -6.772   6.852  70.839  1.00  0.00    -0.054 C  
ENDBRANCH   3   6
BRANCH   5   8
HETATM    8  C   UNL     1     -10.042   5.900  67.997  1.00  0.00    -0.194 C  
HETATM    9  C   UNL     1     -11.157   6.229  66.995  1.00  0.00    -0.379 C  
HETATM   10  C   UNL     1      -9.902   7.049  66.983  1.00  0.00    -0.239 C  
BRANCH   8  11
HETATM   11  C   UNL     1      -9.347   4.544  67.798  1.00  0.00    -0.180 A  
HETATM   12  C   UNL     1      -9.389   3.585  68.825  1.00  0.00    -0.233 A  
HETATM   13  C   UNL     1      -8.572   2.452  68.802  1.00  0.00    -0.111 A  
HETATM   14  C   UNL     1      -8.531   4.262  66.689  1.00  0.00    -0.108 A  
HETATM   15  C   UNL     1      -7.704   2.245  67.736  1.00  0.00    -0.059 A  
HETATM   16  C   UNL     1      -7.700   3.137  66.667  1.00  0.00    -0.077 A  
ENDBRANCH   8  11
BRANCH  10  17
HETATM   17  C   UNL     1      -9.907   8.481  67.433  1.00  0.00    -0.187 C  
HETATM   18  N   UNL     1      -9.726   9.372  66.300  1.00  0.00    -0.242 NA 
HETATM   19  H2  UNL     1     -10.418   9.201  65.570  1.00  0.00     0.000 HD 
HETATM   20  H1  UNL     1      -9.730  10.345  66.606  1.00  0.00     0.000 HD 
ENDBRANCH  10  17
ENDBRANCH   5   8
ENDBRANCH   2   3
TORSDOF 5
ENDMDL
MODEL      204
REMARK 921   NORMALIZED FREE ENERGY PREDICTED BY IDOCK:   -2.49 KCAL/MOL
REMARK 922        TOTAL FREE ENERGY PREDICTED BY IDOCK:   -3.70 KCAL/MOL
REMARK 923 INTER-LIGAND FREE ENERGY PREDICTED BY IDOCK:   -3.18 KCAL/MOL
REMARK 924 INTRA-LIGAND FREE ENERGY PREDICTED BY IDOCK:   -0.52 KCAL/MOL
REMARK 927      BINDING AFFINITY PREDICTED BY RF-SCORE:    0.00 PKD
ROOT
HETATM    1  C   UNL     1      -9.768   7.162  69.550  1.00  0.00    -0.157 C  
HETATM    2  C   UNL     1     -10.341   7.603  68.216  1.00  0.00    -0.198 C  
ENDROOT
BRANCH   2   3
HETATM    3  N   UNL     1      -9.807   8.882  67.743  1.00  0.00    -0.158 N  
HETATM    4  O   UNL     1      -8.263   7.760  66.423  1.00  0.00    -0.107 OA 
HETATM    5  C   UNL     1      -8.730   8.816  66.841  1.00  0.00    -0.127 C  
BRANCH   3   6
HETATM    6  C   UNL     1     -10.133  10.117  68.462  1.00  0.00    -0.169 C  
HETATM    7  C   UNL     1     -11.396  10.857  68.057  1.00  0.00    -0.382 C  
ENDBRANCH   3   6
BRANCH   5   8
HETATM    8  C   UNL     1      -8.138  10.124  66.330  1.00  0.00    -0.122 C  
HETATM    9  C   UNL     1      -7.544  10.094  64.915  1.00  0.00    -0.138 C  
HETATM   10  C   UNL     1      -8.832  10.825  65.148  1.00  0.00    -0.199 C  
BRANCH   8  11
HETATM   11  C   UNL     1      -7.324  10.901  67.377  1.00  0.00    -0.099 A  
HETATM   12  C   UNL     1      -6.477  10.202  68.256  1.00  0.00    -0.053 A  
HETATM   13  C   UNL     1      -5.918  10.819  69.378  1.00  0.00    -0.046 A  
HETATM   14  C   UNL     1      -7.496  12.276  67.609  1.00  0.00    -0.134 A  
HETATM   15  C   UNL     1      -6.181  12.160  69.634  1.00  0.00    -0.131 A  
HETATM   16  C   UNL     1      -6.950  12.896  68.738  1.00  0.00    -0.103 A  
ENDBRANCH   8  11
BRANCH  10  17
HETATM   17  C   UNL     1     -10.128  10.306  64.597  1.00  0.00    -0.247 C  
HETATM   18  N   UNL     1     -10.234  10.606  63.179  1.00  0.00    -0.614 NA 
HETATM   19  H2  UNL     1      -9.431  10.254  62.656  1.00  0.00     0.000 HD 
HETATM   20  H1  UNL     1     -11.115  10.253  62.804  1.00  0.00     0.000 HD 
ENDBRANCH  10  17
ENDBRANCH   5   8
ENDBRANCH   2   3
TORSDOF 5
ENDMDL
MODEL      205
REMARK 921   NORMALIZED FREE ENERGY PREDICTED BY IDOCK:   -2.48 KCAL/MOL
REMARK 922        TOTAL FREE ENERGY PREDICTED BY IDOCK:   -3.70 KCAL/MOL
REMARK 923 INTER-LIGAND FREE ENERGY PREDICTED BY IDOCK:   -3.28 KCAL/MOL
REMARK 924 INTRA-LIGAND FREE ENERGY PREDICTED BY IDOCK:   -0.42 KCAL/MOL
REMARK 927      BINDING AFFINITY PREDICTED BY RF-SCORE:    0.00 PKD
ROOT
HETATM    1  C   UNL     1      -7.822   8.387  68.640  1.00  0.00    -0.116 C  
HETATM    2  C   UNL     1      -9.081   8.531  69.474  1.00  0.00    -0.150 C  
ENDROOT
BRANCH   2   3
HETATM    3  N   UNL     1      -9.257   7.461  70.458  1.00  0.00    -0.157 N  
HETATM    4  O   UNL     1      -9.248   9.025  72.173  1.00  0.00    -0.365 OA 
HETATM    5  C   UNL     1      -9.308   7.854  71.808  1.00  0.00    -0.150 C  
BRANCH   3   6
HETATM    6  C   UNL     1      -9.012   6.069  70.072  1.00  0.00    -0.146 C  
HETATM    7  C   UNL     1     -10.011   5.409  69.138  1.00  0.00    -0.267 C  
ENDBRANCH   3   6
BRANCH   5   8
HETATM    8  C   UNL     1      -9.481   6.771  72.867  1.00  0.00    -0.156 C  
HETATM    9  C   UNL     1     -10.406   7.114  74.043  1.00  0.00    -0.243 C  
HETATM   10  C   UNL     1     -10.867   6.119  73.021  1.00  0.00    -0.284 C  
BRANCH   8  11
HETATM   11  C   UNL     1      -8.185   6.032  73.233  1.00  0.00    -0.115 A  
HETATM   12  C   UNL     1      -6.990   6.759  73.384  1.00  0.00    -0.075 A  
HETATM   13  C   UNL     1      -5.750   6.120  73.463  1.00  0.00    -0.045 A  
HETATM   14  C   UNL     1      -8.093   4.630  73.277  1.00  0.00    -0.100 A  
HETATM   15  C   UNL     1      -5.681   4.733  73.411  1.00  0.00    -0.017 A  
HETATM   16  C   UNL     1      -6.854   3.985  73.342  1.00  0.00    -0.053 A  
ENDBRANCH   8  11
BRANCH  10  17
HETATM   17  C   UNL     1     -11.982   6.445  72.071  1.00  0.00    -0.326 C  
HETATM   18  N   UNL     1     -12.685   7.641  72.502  1.00  0.00    -0.513 NA 
HETATM   19  H2  UNL     1     -12.050   8.430  72.626  1.00  0.00     0.000 HD 
HETATM   20  H1  UNL     1     -13.443   7.862  71.857  1.00  0.00     0.000 HD 
ENDBRANCH  10  17
ENDBRANCH   5   8
ENDBRANCH   2   3
TORSDOF 5
ENDMDL
MODEL      206
REMARK 921   NORMALIZED FREE ENERGY PREDICTED BY IDOCK:   -2.44 KCAL/MOL
REMARK 922        TOTAL FREE ENERGY PREDICTED BY IDOCK:   -3.65 KCAL/MOL
REMARK 923 INTER-LIGAND FREE ENERGY PREDICTED BY IDOCK:   -3.21 KCAL/MOL
REMARK 924 INTRA-LIGAND FREE ENERGY PREDICTED BY IDOCK:   -0.44 KCAL/MOL
REMARK 927      BINDING AFFINITY PREDICTED BY RF-SCORE:    0.00 PKD
ROOT
HETATM    1  C   UNL     1     -11.171   4.993  73.386  1.00  0.00    -0.391 C  
HETATM    2  C   UNL     1     -10.222   4.673  72.245  1.00  0.00    -0.193 C  
ENDROOT
BRANCH   2   3
HETATM    3  N   UNL     1      -9.623   5.859  71.631  1.00  0.00    -0.152 N  
HETATM    4  O   UNL     1     -11.239   5.825  69.966  1.00  0.00    -0.335 OA 
HETATM    5  C   UNL     1     -10.235   6.333  70.457  1.00  0.00    -0.193 C  
BRANCH   3   6
HETATM    6  C   UNL     1      -8.269   6.272  72.013  1.00  0.00    -0.110 C  
HETATM    7  C   UNL     1      -8.099   6.992  73.339  1.00  0.00    -0.117 C  
ENDBRANCH   3   6
BRANCH   5   8
HETATM    8  C   UNL     1      -9.638   7.561  69.779  1.00  0.00    -0.163 C  
HETATM    9  C   UNL     1     -10.634   8.518  69.110  1.00  0.00    -0.188 C  
HETATM   10  C   UNL     1      -9.952   8.945  70.376  1.00  0.00    -0.230 C  
BRANCH   8  11
HETATM   11  C   UNL     1      -8.348   7.285  68.992  1.00  0.00    -0.126 A  
HETATM   12  C   UNL     1      -8.079   5.981  68.536  1.00  0.00    -0.107 A  
HETATM   13  C   UNL     1      -6.821   5.623  68.045  1.00  0.00    -0.064 A  
HETATM   14  C   UNL     1      -7.334   8.244  68.828  1.00  0.00    -0.088 A  
HETATM   15  C   UNL     1      -5.807   6.572  67.982  1.00  0.00    -0.016 A  
HETATM   16  C   UNL     1      -6.069   7.889  68.350  1.00  0.00    -0.044 A  
ENDBRANCH   8  11
BRANCH  10  17
HETATM   17  C   UNL     1     -10.716   9.076  71.661  1.00  0.00    -0.371 C  
HETATM   18  N   UNL     1     -12.123   9.322  71.393  1.00  0.00    -0.326 NA 
HETATM   19  H2  UNL     1     -12.524   8.607  70.785  1.00  0.00     0.000 HD 
HETATM   20  H1  UNL     1     -12.643   9.411  72.267  1.00  0.00     0.000 HD 
ENDBRANCH  10  17
ENDBRANCH   5   8
ENDBRANCH   2   3
TORSDOF 5
ENDMDL
MODEL      207
REMARK 921   NORMALIZED FREE ENERGY PREDICTED BY IDOCK:   -2.42 KCAL/MOL
REMARK 922        TOTAL FREE ENERGY PREDICTED BY IDOCK:   -3.62 KCAL/MOL
REMARK 923 INTER-LIGAND FREE ENERGY PREDICTED BY IDOCK:   -3.90 KCAL/MOL
REMARK 924 INTRA-LIGAND FREE ENERGY PREDICTED BY IDOCK:    0.28 KCAL/MOL
REMARK 927      BINDING AFFINITY PREDICTED BY RF-SCORE:    0.00 PKD
ROOT
HETATM    1  C   UNL     1      -8.036   9.108  70.824  1.00  0.00    -0.207 C  
HETATM    2  C   UNL     1      -7.885   7.608  71.006  1.00  0.00    -0.090 C  
ENDROOT
BRANCH   2   3
HETATM    3  N   UNL     1      -8.885   6.826  70.277  1.00  0.00    -0.151 N  
HETATM    4  O   UNL     1      -7.659   7.068  68.321  1.00  0.00    -0.106 OA 
HETATM    5  C   UNL     1      -8.653   6.641  68.902  1.00  0.00    -0.126 C  
BRANCH   3   6
HETATM    6  C   UNL     1     -10.203   6.592  70.872  1.00  0.00    -0.196 C  
HETATM    7  C   UNL     1     -10.324   5.489  71.909  1.00  0.00    -0.270 C  
ENDBRANCH   3   6
BRANCH   5   8
HETATM    8  C   UNL     1      -9.674   5.840  68.102  1.00  0.00    -0.146 C  
HETATM    9  C   UNL     1     -11.150   6.110  68.422  1.00  0.00    -0.343 C  
HETATM   10  C   UNL     1     -10.586   6.598  67.121  1.00  0.00    -0.401 C  
BRANCH   8  11
HETATM   11  C   UNL     1      -9.297   4.366  67.893  1.00  0.00    -0.190 A  
HETATM   12  C   UNL     1      -8.912   3.921  66.615  1.00  0.00    -0.141 A  
HETATM   13  C   UNL     1      -8.807   2.561  66.314  1.00  0.00    -0.132 A  
HETATM   14  C   UNL     1      -9.462   3.388  68.889  1.00  0.00    -0.201 A  
HETATM   15  C   UNL     1      -9.068   1.613  67.296  1.00  0.00    -0.135 A  
HETATM   16  C   UNL     1      -9.372   2.025  68.591  1.00  0.00    -0.235 A  
ENDBRANCH   8  11
BRANCH  10  17
HETATM   17  C   UNL     1     -10.392   8.064  66.862  1.00  0.00    -0.338 C  
HETATM   18  N   UNL     1     -11.001   8.852  67.920  1.00  0.00    -0.493 NA 
HETATM   19  H2  UNL     1     -10.657   8.581  68.841  1.00  0.00     0.000 HD 
HETATM   20  H1  UNL     1     -10.870   9.848  67.744  1.00  0.00     0.000 HD 
ENDBRANCH  10  17
ENDBRANCH   5   8
ENDBRANCH   2   3
TORSDOF 5
ENDMDL
MODEL      208
REMARK 921   NORMALIZED FREE ENERGY PREDICTED BY IDOCK:   -2.42 KCAL/MOL
REMARK 922        TOTAL FREE ENERGY PREDICTED BY IDOCK:   -3.62 KCAL/MOL
REMARK 923 INTER-LIGAND FREE ENERGY PREDICTED BY IDOCK:   -3.98 KCAL/MOL
REMARK 924 INTRA-LIGAND FREE ENERGY PREDICTED BY IDOCK:    0.36 KCAL/MOL
REMARK 927      BINDING AFFINITY PREDICTED BY RF-SCORE:    0.00 PKD
ROOT
HETATM    1  C   UNL     1      -7.934   6.654  64.529  1.00  0.00    -0.106 C  
HETATM    2  C   UNL     1      -7.730   7.312  65.881  1.00  0.00    -0.097 C  
ENDROOT
BRANCH   2   3
HETATM    3  N   UNL     1      -8.858   8.144  66.304  1.00  0.00    -0.155 N  
HETATM    4  O   UNL     1      -7.444   9.972  66.514  1.00  0.00    -0.101 OA 
HETATM    5  C   UNL     1      -8.566   9.484  66.615  1.00  0.00    -0.134 C  
BRANCH   3   6
HETATM    6  C   UNL     1     -10.110   7.511  66.730  1.00  0.00    -0.243 C  
HETATM    7  C   UNL     1     -10.017   6.181  67.455  1.00  0.00    -0.166 C  
ENDBRANCH   3   6
BRANCH   5   8
HETATM    8  C   UNL     1      -9.710  10.384  67.068  1.00  0.00    -0.216 C  
HETATM    9  C   UNL     1     -10.792   9.722  67.932  1.00  0.00    -0.298 C  
HETATM   10  C   UNL     1      -9.843  10.691  68.571  1.00  0.00    -0.175 C  
BRANCH   8  11
HETATM   11  C   UNL     1     -10.220  11.351  65.989  1.00  0.00    -0.289 A  
HETATM   12  C   UNL     1     -10.471  10.872  64.690  1.00  0.00    -0.384 A  
HETATM   13  C   UNL     1     -10.687  11.741  63.619  1.00  0.00    -0.503 A  
HETATM   14  C   UNL     1     -10.306  12.739  66.188  1.00  0.00    -0.283 A  
HETATM   15  C   UNL     1     -10.674  13.116  63.828  1.00  0.00    -0.104 A  
HETATM   16  C   UNL     1     -10.508  13.616  65.117  1.00  0.00    -0.388 A  
ENDBRANCH   8  11
BRANCH  10  17
HETATM   17  C   UNL     1      -8.803  10.226  69.548  1.00  0.00    -0.148 C  
HETATM   18  N   UNL     1      -9.236   9.008  70.211  1.00  0.00    -0.185 NA 
HETATM   19  H2  UNL     1      -9.480   8.278  69.542  1.00  0.00     0.000 HD 
HETATM   20  H1  UNL     1      -8.529   8.692  70.876  1.00  0.00     0.000 HD 
ENDBRANCH  10  17
ENDBRANCH   5   8
ENDBRANCH   2   3
TORSDOF 5
ENDMDL
MODEL      209
REMARK 921   NORMALIZED FREE ENERGY PREDICTED BY IDOCK:   -2.42 KCAL/MOL
REMARK 922        TOTAL FREE ENERGY PREDICTED BY IDOCK:   -3.61 KCAL/MOL
REMARK 923 INTER-LIGAND FREE ENERGY PREDICTED BY IDOCK:   -3.47 KCAL/MOL
REMARK 924 INTRA-LIGAND FREE ENERGY PREDICTED BY IDOCK:   -0.15 KCAL/MOL
REMARK 927      BINDING AFFINITY PREDICTED BY RF-SCORE:    0.00 PKD
ROOT
HETATM    1  C   UNL     1      -6.735  12.884  68.987  1.00  0.00    -0.095 C  
HETATM    2  C   UNL     1      -7.144  12.983  67.528  1.00  0.00    -0.154 C  
ENDROOT
BRANCH   2   3
HETATM    3  N   UNL     1      -8.200  12.042  67.151  1.00  0.00    -0.175 N  
HETATM    4  O   UNL     1      -6.651  10.750  66.003  1.00  0.00    -0.125 OA 
HETATM    5  C   UNL     1      -7.811  10.952  66.352  1.00  0.00    -0.154 C  
BRANCH   3   6
HETATM    6  C   UNL     1      -9.606  12.433  67.286  1.00  0.00    -0.199 C  
HETATM    7  C   UNL     1     -10.279  12.197  68.626  1.00  0.00    -0.186 C  
ENDBRANCH   3   6
BRANCH   5   8
HETATM    8  C   UNL     1      -8.881   9.952  65.929  1.00  0.00    -0.171 C  
HETATM    9  C   UNL     1     -10.030  10.507  65.076  1.00  0.00    -0.388 C  
HETATM   10  C   UNL     1      -9.011   9.615  64.432  1.00  0.00    -0.276 C  
BRANCH   8  11
HETATM   11  C   UNL     1      -9.288   8.958  67.028  1.00  0.00    -0.194 A  
HETATM   12  C   UNL     1      -8.450   8.776  68.144  1.00  0.00    -0.130 A  
HETATM   13  C   UNL     1      -8.639   7.716  69.034  1.00  0.00    -0.136 A  
HETATM   14  C   UNL     1     -10.392   8.097  66.907  1.00  0.00    -0.401 A  
HETATM   15  C   UNL     1      -9.686   6.823  68.836  1.00  0.00    -0.137 A  
HETATM   16  C   UNL     1     -10.578   7.026  67.787  1.00  0.00    -0.298 A  
ENDBRANCH   8  11
BRANCH  10  17
HETATM   17  C   UNL     1      -8.030  10.155  63.432  1.00  0.00    -0.160 C  
HETATM   18  N   UNL     1      -6.871   9.284  63.335  1.00  0.00    -0.090 NA 
HETATM   19  H2  UNL     1      -7.136   8.322  63.125  1.00  0.00     0.000 HD 
HETATM   20  H1  UNL     1      -6.204   9.651  62.656  1.00  0.00     0.000 HD 
ENDBRANCH  10  17
ENDBRANCH   5   8
ENDBRANCH   2   3
TORSDOF 5
ENDMDL
MODEL      210
REMARK 921   NORMALIZED FREE ENERGY PREDICTED BY IDOCK:   -2.42 KCAL/MOL
REMARK 922        TOTAL FREE ENERGY PREDICTED BY IDOCK:   -3.61 KCAL/MOL
REMARK 923 INTER-LIGAND FREE ENERGY PREDICTED BY IDOCK:   -3.78 KCAL/MOL
REMARK 924 INTRA-LIGAND FREE ENERGY PREDICTED BY IDOCK:    0.16 KCAL/MOL
REMARK 927      BINDING AFFINITY PREDICTED BY RF-SCORE:    0.00 PKD
ROOT
HETATM    1  C   UNL     1      -7.691   7.125  65.248  1.00  0.00    -0.114 C  
HETATM    2  C   UNL     1      -8.127   6.730  66.647  1.00  0.00    -0.110 C  
ENDROOT
BRANCH   2   3
HETATM    3  N   UNL     1      -8.998   7.717  67.288  1.00  0.00    -0.126 N  
HETATM    4  O   UNL     1      -7.341   8.177  68.847  1.00  0.00    -0.086 OA 
HETATM    5  C   UNL     1      -8.475   8.372  68.418  1.00  0.00    -0.135 C  
BRANCH   3   6
HETATM    6  C   UNL     1     -10.433   7.725  66.991  1.00  0.00    -0.349 C  
HETATM    7  C   UNL     1     -11.157   6.391  66.969  1.00  0.00    -0.405 C  
ENDBRANCH   3   6
BRANCH   5   8
HETATM    8  C   UNL     1      -9.351   9.401  69.123  1.00  0.00    -0.159 C  
HETATM    9  C   UNL     1     -10.665   8.879  69.720  1.00  0.00    -0.230 C  
HETATM   10  C   UNL     1      -9.550   9.267  70.644  1.00  0.00    -0.334 C  
BRANCH   8  11
HETATM   11  C   UNL     1      -9.439  10.755  68.404  1.00  0.00    -0.174 A  
HETATM   12  C   UNL     1      -8.290  11.294  67.796  1.00  0.00    -0.125 A  
HETATM   13  C   UNL     1      -8.248  12.619  67.356  1.00  0.00    -0.184 A  
HETATM   14  C   UNL     1     -10.583  11.571  68.449  1.00  0.00    -0.227 A  
HETATM   15  C   UNL     1      -9.367  13.432  67.499  1.00  0.00    -0.218 A  
HETATM   16  C   UNL     1     -10.543  12.902  68.023  1.00  0.00    -0.238 A  
ENDBRANCH   8  11
BRANCH  10  17
HETATM   17  C   UNL     1      -8.801   8.233  71.432  1.00  0.00    -0.162 C  
HETATM   18  N   UNL     1      -8.262   8.813  72.650  1.00  0.00    -0.400 NA 
HETATM   19  H2  UNL     1      -8.987   9.264  73.209  1.00  0.00     0.000 HD 
HETATM   20  H1  UNL     1      -7.753   8.110  73.186  1.00  0.00     0.000 HD 
ENDBRANCH  10  17
ENDBRANCH   5   8
ENDBRANCH   2   3
TORSDOF 5
ENDMDL
MODEL      211
REMARK 921   NORMALIZED FREE ENERGY PREDICTED BY IDOCK:   -2.41 KCAL/MOL
REMARK 922        TOTAL FREE ENERGY PREDICTED BY IDOCK:   -3.61 KCAL/MOL
REMARK 923 INTER-LIGAND FREE ENERGY PREDICTED BY IDOCK:   -3.73 KCAL/MOL
REMARK 924 INTRA-LIGAND FREE ENERGY PREDICTED BY IDOCK:    0.12 KCAL/MOL
REMARK 927      BINDING AFFINITY PREDICTED BY RF-SCORE:    0.00 PKD
ROOT
HETATM    1  C   UNL     1     -12.375  11.561  70.586  1.00  0.00    -0.457 C  
HETATM    2  C   UNL     1     -11.377  10.474  70.231  1.00  0.00    -0.327 C  
ENDROOT
BRANCH   2   3
HETATM    3  N   UNL     1     -10.418  10.874  69.199  1.00  0.00    -0.220 N  
HETATM    4  O   UNL     1      -8.848   9.408  70.079  1.00  0.00    -0.173 OA 
HETATM    5  C   UNL     1      -9.153  10.261  69.250  1.00  0.00    -0.194 C  
BRANCH   3   6
HETATM    6  C   UNL     1     -10.650  12.094  68.422  1.00  0.00    -0.226 C  
HETATM    7  C   UNL     1     -11.412  11.965  67.116  1.00  0.00    -0.386 C  
ENDBRANCH   3   6
BRANCH   5   8
HETATM    8  C   UNL     1      -8.120  10.655  68.200  1.00  0.00    -0.114 C  
HETATM    9  C   UNL     1      -7.751  12.143  68.136  1.00  0.00    -0.129 C  
HETATM   10  C   UNL     1      -6.751  11.168  68.683  1.00  0.00    -0.062 C  
BRANCH   8  11
HETATM   11  C   UNL     1      -8.298   9.954  66.845  1.00  0.00    -0.124 A  
HETATM   12  C   UNL     1      -9.041   8.762  66.772  1.00  0.00    -0.180 A  
HETATM   13  C   UNL     1      -9.022   7.957  65.631  1.00  0.00    -0.077 A  
HETATM   14  C   UNL     1      -7.624  10.362  65.681  1.00  0.00    -0.150 A  
HETATM   15  C   UNL     1      -8.271   8.339  64.526  1.00  0.00    -0.138 A  
HETATM   16  C   UNL     1      -7.590   9.554  64.540  1.00  0.00    -0.114 A  
ENDBRANCH   8  11
BRANCH  10  17
HETATM   17  C   UNL     1      -6.394  11.160  70.141  1.00  0.00    -0.137 C  
HETATM   18  N   UNL     1      -6.279  12.518  70.644  1.00  0.00    -0.521 NA 
HETATM   19  H2  UNL     1      -7.123  13.062  70.463  1.00  0.00     0.000 HD 
HETATM   20  H1  UNL     1      -6.036  12.513  71.634  1.00  0.00     0.000 HD 
ENDBRANCH  10  17
ENDBRANCH   5   8
ENDBRANCH   2   3
TORSDOF 5
ENDMDL
MODEL      212
REMARK 921   NORMALIZED FREE ENERGY PREDICTED BY IDOCK:   -2.41 KCAL/MOL
REMARK 922        TOTAL FREE ENERGY PREDICTED BY IDOCK:   -3.61 KCAL/MOL
REMARK 923 INTER-LIGAND FREE ENERGY PREDICTED BY IDOCK:   -4.30 KCAL/MOL
REMARK 924 INTRA-LIGAND FREE ENERGY PREDICTED BY IDOCK:    0.70 KCAL/MOL
REMARK 927      BINDING AFFINITY PREDICTED BY RF-SCORE:    0.00 PKD
ROOT
HETATM    1  C   UNL     1      -7.334  19.679  69.065  1.00  0.00    -0.363 C  
HETATM    2  C   UNL     1      -7.987  19.295  67.749  1.00  0.00    -0.277 C  
ENDROOT
BRANCH   2   3
HETATM    3  N   UNL     1      -7.695  17.923  67.329  1.00  0.00    -0.201 N  
HETATM    4  O   UNL     1      -9.183  17.113  68.917  1.00  0.00    -0.262 OA 
HETATM    5  C   UNL     1      -8.365  16.900  68.025  1.00  0.00    -0.204 C  
BRANCH   3   6
HETATM    6  C   UNL     1      -6.513  17.647  66.509  1.00  0.00    -0.222 C  
HETATM    7  C   UNL     1      -5.235  18.399  66.838  1.00  0.00    -0.144 C  
ENDBRANCH   3   6
BRANCH   5   8
HETATM    8  C   UNL     1      -8.085  15.456  67.627  1.00  0.00    -0.166 C  
HETATM    9  C   UNL     1      -6.615  15.094  67.377  1.00  0.00    -0.090 C  
HETATM   10  C   UNL     1      -7.294  14.571  68.607  1.00  0.00    -0.128 C  
BRANCH   8  11
HETATM   11  C   UNL     1      -9.095  14.869  66.629  1.00  0.00    -0.309 A  
HETATM   12  C   UNL     1      -9.783  15.727  65.752  1.00  0.00    -0.372 A  
HETATM   13  C   UNL     1     -10.882  15.287  65.011  1.00  0.00    -0.457 A  
HETATM   14  C   UNL     1      -9.486  13.519  66.645  1.00  0.00    -0.271 A  
HETATM   15  C   UNL     1     -11.306  13.967  65.117  1.00  0.00    -0.319 A  
HETATM   16  C   UNL     1     -10.594  13.076  65.915  1.00  0.00    -0.288 A  
ENDBRANCH   8  11
BRANCH  10  17
HETATM   17  C   UNL     1      -6.920  15.074  69.971  1.00  0.00    -0.096 C  
HETATM   18  N   UNL     1      -5.651  15.780  69.923  1.00  0.00    -0.132 NA 
HETATM   19  H2  UNL     1      -5.660  16.530  69.232  1.00  0.00     0.000 HD 
HETATM   20  H1  UNL     1      -5.397  16.121  70.850  1.00  0.00     0.000 HD 
ENDBRANCH  10  17
ENDBRANCH   5   8
ENDBRANCH   2   3
TORSDOF 5
ENDMDL
MODEL      213
REMARK 921   NORMALIZED FREE ENERGY PREDICTED BY IDOCK:   -2.39 KCAL/MOL
REMARK 922        TOTAL FREE ENERGY PREDICTED BY IDOCK:   -3.58 KCAL/MOL
REMARK 923 INTER-LIGAND FREE ENERGY PREDICTED BY IDOCK:   -3.42 KCAL/MOL
REMARK 924 INTRA-LIGAND FREE ENERGY PREDICTED BY IDOCK:   -0.16 KCAL/MOL
REMARK 927      BINDING AFFINITY PREDICTED BY RF-SCORE:    0.00 PKD
ROOT
HETATM    1  C   UNL     1      -9.686   6.811  74.434  1.00  0.00    -0.309 C  
HETATM    2  C   UNL     1      -8.953   5.692  73.716  1.00  0.00    -0.123 C  
ENDROOT
BRANCH   2   3
HETATM    3  N   UNL     1      -8.971   5.820  72.258  1.00  0.00    -0.139 N  
HETATM    4  O   UNL     1     -11.196   5.161  72.220  1.00  0.00    -0.167 OA 
HETATM    5  C   UNL     1     -10.181   5.499  71.617  1.00  0.00    -0.209 C  
BRANCH   3   6
HETATM    6  C   UNL     1      -7.709   5.908  71.519  1.00  0.00    -0.101 C  
HETATM    7  C   UNL     1      -6.774   7.056  71.853  1.00  0.00    -0.056 C  
ENDBRANCH   3   6
BRANCH   5   8
HETATM    8  C   UNL     1     -10.243   5.610  70.098  1.00  0.00    -0.318 C  
HETATM    9  C   UNL     1     -11.519   6.230  69.514  1.00  0.00    -0.387 C  
HETATM   10  C   UNL     1     -10.243   7.016  69.471  1.00  0.00    -0.208 C  
BRANCH   8  11
HETATM   11  C   UNL     1      -9.697   4.383  69.352  1.00  0.00    -0.267 A  
HETATM   12  C   UNL     1      -9.637   3.141  70.009  1.00  0.00    -0.162 A  
HETATM   13  C   UNL     1      -8.925   2.064  69.476  1.00  0.00    -0.150 A  
HETATM   14  C   UNL     1      -9.105   4.465  68.080  1.00  0.00    -0.161 A  
HETATM   15  C   UNL     1      -8.269   2.203  68.258  1.00  0.00    -0.072 A  
HETATM   16  C   UNL     1      -8.378   3.395  67.547  1.00  0.00    -0.093 A  
ENDBRANCH   8  11
BRANCH  10  17
HETATM   17  C   UNL     1     -10.058   8.240  70.320  1.00  0.00    -0.192 C  
HETATM   18  N   UNL     1     -11.230   9.095  70.243  1.00  0.00    -0.303 NA 
HETATM   19  H2  UNL     1     -12.083   8.591  70.485  1.00  0.00     0.000 HD 
HETATM   20  H1  UNL     1     -11.104   9.926  70.820  1.00  0.00     0.000 HD 
ENDBRANCH  10  17
ENDBRANCH   5   8
ENDBRANCH   2   3
TORSDOF 5
ENDMDL
MODEL      214
REMARK 921   NORMALIZED FREE ENERGY PREDICTED BY IDOCK:   -2.36 KCAL/MOL
REMARK 922        TOTAL FREE ENERGY PREDICTED BY IDOCK:   -3.54 KCAL/MOL
REMARK 923 INTER-LIGAND FREE ENERGY PREDICTED BY IDOCK:   -3.91 KCAL/MOL
REMARK 924 INTRA-LIGAND FREE ENERGY PREDICTED BY IDOCK:    0.37 KCAL/MOL
REMARK 927      BINDING AFFINITY PREDICTED BY RF-SCORE:    0.00 PKD
ROOT
HETATM    1  C   UNL     1     -11.962  10.941  69.411  1.00  0.00    -0.393 C  
HETATM    2  C   UNL     1     -11.030  12.023  69.926  1.00  0.00     0.357 C  
ENDROOT
BRANCH   2   3
HETATM    3  N   UNL     1     -10.626  12.985  68.899  1.00  0.00    -0.180 N  
HETATM    4  O   UNL     1      -9.435  11.323  67.800  1.00  0.00    -0.164 OA 
HETATM    5  C   UNL     1      -9.793  12.495  67.877  1.00  0.00    -0.207 C  
BRANCH   3   6
HETATM    6  C   UNL     1     -10.776  14.421  69.147  1.00  0.00    -0.238 C  
HETATM    7  C   UNL     1     -12.183  14.966  69.308  1.00  0.00    -0.221 C  
ENDBRANCH   3   6
BRANCH   5   8
HETATM    8  C   UNL     1      -9.340  13.465  66.791  1.00  0.00    -0.260 C  
HETATM    9  C   UNL     1      -8.873  14.847  67.268  1.00  0.00    -0.216 C  
HETATM   10  C   UNL     1      -7.856  13.873  66.753  1.00  0.00     0.487 C  
BRANCH   8  11
HETATM   11  C   UNL     1     -10.218  13.457  65.531  1.00  0.00    -0.300 A  
HETATM   12  C   UNL     1     -11.047  14.560  65.255  1.00  0.00    -0.355 A  
HETATM   13  C   UNL     1     -12.042  14.500  64.276  1.00  0.00    -0.448 A  
HETATM   14  C   UNL     1     -10.356  12.329  64.704  1.00  0.00    -0.330 A  
HETATM   15  C   UNL     1     -12.217  13.337  63.536  1.00  0.00    -0.513 A  
HETATM   16  C   UNL     1     -11.359  12.258  63.732  1.00  0.00    -0.534 A  
ENDBRANCH   8  11
BRANCH  10  17
HETATM   17  C   UNL     1      -6.857  13.237  67.674  1.00  0.00    -0.163 C  
HETATM   18  N   UNL     1      -6.271  12.060  67.055  1.00  0.00    -0.228 NA 
HETATM   19  H2  UNL     1      -5.864  12.274  66.144  1.00  0.00     0.000 HD 
HETATM   20  H1  UNL     1      -5.592  11.628  67.681  1.00  0.00     0.000 HD 
ENDBRANCH  10  17
ENDBRANCH   5   8
ENDBRANCH   2   3
TORSDOF 5
ENDMDL
MODEL      215
REMARK 921   NORMALIZED FREE ENERGY PREDICTED BY IDOCK:   -2.34 KCAL/MOL
REMARK 922        TOTAL FREE ENERGY PREDICTED BY IDOCK:   -3.52 KCAL/MOL
REMARK 923 INTER-LIGAND FREE ENERGY PREDICTED BY IDOCK:   -3.88 KCAL/MOL
REMARK 924 INTRA-LIGAND FREE ENERGY PREDICTED BY IDOCK:    0.36 KCAL/MOL
REMARK 927      BINDING AFFINITY PREDICTED BY RF-SCORE:    0.00 PKD
ROOT
HETATM    1  C   UNL     1      -7.436  10.449  66.453  1.00  0.00    -0.120 C  
HETATM    2  C   UNL     1      -8.045  11.154  67.651  1.00  0.00    -0.117 C  
ENDROOT
BRANCH   2   3
HETATM    3  N   UNL     1      -9.331  11.792  67.363  1.00  0.00    -0.171 N  
HETATM    4  O   UNL     1      -8.717  13.628  68.643  1.00  0.00    -0.134 OA 
HETATM    5  C   UNL     1      -9.551  13.051  67.951  1.00  0.00    -0.215 C  
BRANCH   3   6
HETATM    6  C   UNL     1     -10.434  10.994  66.820  1.00  0.00    -0.251 C  
HETATM    7  C   UNL     1     -10.855   9.756  67.590  1.00  0.00    -0.301 C  
ENDBRANCH   3   6
BRANCH   5   8
HETATM    8  C   UNL     1     -10.881  13.747  67.685  1.00  0.00    -0.264 C  
HETATM    9  C   UNL     1     -12.141  12.887  67.849  1.00  0.00    -0.209 C  
HETATM   10  C   UNL     1     -11.846  13.947  68.867  1.00  0.00    -0.393 C  
BRANCH   8  11
HETATM   11  C   UNL     1     -10.870  14.688  66.471  1.00  0.00    -0.315 A  
HETATM   12  C   UNL     1     -10.375  15.997  66.612  1.00  0.00    -0.299 A  
HETATM   13  C   UNL     1     -10.573  16.965  65.624  1.00  0.00    -0.231 A  
HETATM   14  C   UNL     1     -11.476  14.360  65.246  1.00  0.00    -0.350 A  
HETATM   15  C   UNL     1     -11.259  16.636  64.460  1.00  0.00     0.072 A  
HETATM   16  C   UNL     1     -11.690  15.327  64.259  1.00  0.00    -0.223 A  
ENDBRANCH   8  11
BRANCH  10  17
HETATM   17  C   UNL     1     -11.439  13.585  70.266  1.00  0.00     0.055 C  
HETATM   18  N   UNL     1     -11.606  12.159  70.492  1.00  0.00    -0.411 NA 
HETATM   19  H2  UNL     1     -11.108  11.604  69.796  1.00  0.00     0.000 HD 
HETATM   20  H1  UNL     1     -11.330  11.913  71.442  1.00  0.00     0.000 HD 
ENDBRANCH  10  17
ENDBRANCH   5   8
ENDBRANCH   2   3
TORSDOF 5
ENDMDL
MODEL      216
REMARK 921   NORMALIZED FREE ENERGY PREDICTED BY IDOCK:   -2.28 KCAL/MOL
REMARK 922        TOTAL FREE ENERGY PREDICTED BY IDOCK:   -3.43 KCAL/MOL
REMARK 923 INTER-LIGAND FREE ENERGY PREDICTED BY IDOCK:   -2.84 KCAL/MOL
REMARK 924 INTRA-LIGAND FREE ENERGY PREDICTED BY IDOCK:   -0.59 KCAL/MOL
REMARK 927      BINDING AFFINITY PREDICTED BY RF-SCORE:    0.00 PKD
ROOT
HETATM    1  C   UNL     1     -10.040   7.142  71.908  1.00  0.00    -0.197 C  
HETATM    2  C   UNL     1      -9.504   6.803  70.529  1.00  0.00    -0.169 C  
ENDROOT
BRANCH   2   3
HETATM    3  N   UNL     1      -9.241   7.980  69.698  1.00  0.00    -0.152 N  
HETATM    4  O   UNL     1     -11.115   7.503  68.415  1.00  0.00     0.044 OA 
HETATM    5  C   UNL     1     -10.136   8.210  68.638  1.00  0.00    -0.196 C  
BRANCH   3   6
HETATM    6  C   UNL     1      -7.929   8.631  69.751  1.00  0.00    -0.095 C  
HETATM    7  C   UNL     1      -6.708   7.782  69.444  1.00  0.00    -0.040 C  
ENDBRANCH   3   6
BRANCH   5   8
HETATM    8  C   UNL     1      -9.895   9.419  67.742  1.00  0.00    -0.207 C  
HETATM    9  C   UNL     1     -11.146  10.101  67.171  1.00  0.00    -0.122 C  
HETATM   10  C   UNL     1     -10.361  10.799  68.241  1.00  0.00    -0.195 C  
BRANCH   8  11
HETATM   11  C   UNL     1      -8.720   9.258  66.765  1.00  0.00    -0.138 A  
HETATM   12  C   UNL     1      -7.896  10.362  66.482  1.00  0.00    -0.124 A  
HETATM   13  C   UNL     1      -6.984  10.342  65.424  1.00  0.00    -0.139 A  
HETATM   14  C   UNL     1      -8.511   8.091  66.010  1.00  0.00    -0.144 A  
HETATM   15  C   UNL     1      -6.864   9.204  64.634  1.00  0.00    -0.086 A  
HETATM   16  C   UNL     1      -7.609   8.069  64.941  1.00  0.00    -0.106 A  
ENDBRANCH   8  11
BRANCH  10  17
HETATM   17  C   UNL     1     -10.919  10.971  69.623  1.00  0.00    -0.225 C  
HETATM   18  N   UNL     1     -12.287  10.484  69.684  1.00  0.00    -0.550 NA 
HETATM   19  H2  UNL     1     -12.360   9.519  69.363  1.00  0.00     0.000 HD 
HETATM   20  H1  UNL     1     -12.666  10.602  70.623  1.00  0.00     0.000 HD 
ENDBRANCH  10  17
ENDBRANCH   5   8
ENDBRANCH   2   3
TORSDOF 5
ENDMDL
MODEL      217
REMARK 921   NORMALIZED FREE ENERGY PREDICTED BY IDOCK:   -2.24 KCAL/MOL
REMARK 922        TOTAL FREE ENERGY PREDICTED BY IDOCK:   -3.39 KCAL/MOL
REMARK 923 INTER-LIGAND FREE ENERGY PREDICTED BY IDOCK:   -4.41 KCAL/MOL
REMARK 924 INTRA-LIGAND FREE ENERGY PREDICTED BY IDOCK:    1.02 KCAL/MOL
REMARK 927      BINDING AFFINITY PREDICTED BY RF-SCORE:    0.00 PKD
ROOT
HETATM    1  C   UNL     1     -11.932  14.238  67.705  1.00  0.00    -0.384 C  
HETATM    2  C   UNL     1     -11.023  15.221  66.991  1.00  0.00    -0.324 C  
ENDROOT
BRANCH   2   3
HETATM    3  N   UNL     1      -9.938  15.731  67.832  1.00  0.00    -0.225 N  
HETATM    4  O   UNL     1      -8.560  15.890  65.970  1.00  0.00    -0.307 OA 
HETATM    5  C   UNL     1      -8.724  16.016  67.180  1.00  0.00    -0.190 C  
BRANCH   3   6
HETATM    6  C   UNL     1     -10.013  15.584  69.288  1.00  0.00    -0.264 C  
HETATM    7  C   UNL     1     -10.991  16.471  70.036  1.00  0.00    -0.245 C  
ENDBRANCH   3   6
BRANCH   5   8
HETATM    8  C   UNL     1      -7.564  16.541  68.019  1.00  0.00    -0.166 C  
HETATM    9  C   UNL     1      -7.528  16.091  69.486  1.00  0.00    -0.125 C  
HETATM   10  C   UNL     1      -6.519  15.532  68.528  1.00  0.00    -0.103 C  
BRANCH   8  11
HETATM   11  C   UNL     1      -7.219  18.017  67.767  1.00  0.00    -0.211 A  
HETATM   12  C   UNL     1      -6.732  18.807  68.825  1.00  0.00    -0.292 A  
HETATM   13  C   UNL     1      -6.646  20.197  68.720  1.00  0.00    -0.339 A  
HETATM   14  C   UNL     1      -7.509  18.672  66.558  1.00  0.00    -0.267 A  
HETATM   15  C   UNL     1      -7.029  20.828  67.542  1.00  0.00    -0.406 A  
HETATM   16  C   UNL     1      -7.438  20.065  66.451  1.00  0.00    -0.313 A  
ENDBRANCH   8  11
BRANCH  10  17
HETATM   17  C   UNL     1      -6.567  14.092  68.105  1.00  0.00    -0.124 C  
HETATM   18  N   UNL     1      -5.566  13.828  67.085  1.00  0.00    -0.128 NA 
HETATM   19  H2  UNL     1      -4.633  14.103  67.390  1.00  0.00     0.000 HD 
HETATM   20  H1  UNL     1      -5.599  12.850  66.798  1.00  0.00     0.000 HD 
ENDBRANCH  10  17
ENDBRANCH   5   8
ENDBRANCH   2   3
TORSDOF 5
ENDMDL
MODEL      218
REMARK 921   NORMALIZED FREE ENERGY PREDICTED BY IDOCK:   -2.22 KCAL/MOL
REMARK 922        TOTAL FREE ENERGY PREDICTED BY IDOCK:   -3.36 KCAL/MOL
REMARK 923 INTER-LIGAND FREE ENERGY PREDICTED BY IDOCK:   -2.74 KCAL/MOL
REMARK 924 INTRA-LIGAND FREE ENERGY PREDICTED BY IDOCK:   -0.62 KCAL/MOL
REMARK 927      BINDING AFFINITY PREDICTED BY RF-SCORE:    0.00 PKD
ROOT
HETATM    1  C   UNL     1      -9.158   7.978  73.790  1.00  0.00    -0.242 C  
HETATM    2  C   UNL     1      -8.212   6.928  73.236  1.00  0.00    -0.112 C  
ENDROOT
BRANCH   2   3
HETATM    3  N   UNL     1      -8.648   6.363  71.958  1.00  0.00    -0.126 N  
HETATM    4  O   UNL     1      -6.534   6.720  71.069  1.00  0.00    -0.046 OA 
HETATM    5  C   UNL     1      -7.691   6.334  70.927  1.00  0.00    -0.098 C  
BRANCH   3   6
HETATM    6  C   UNL     1     -10.078   6.202  71.683  1.00  0.00    -0.187 C  
HETATM    7  C   UNL     1     -10.762   4.954  72.212  1.00  0.00    -0.218 C  
ENDBRANCH   3   6
BRANCH   5   8
HETATM    8  C   UNL     1      -8.105   5.762  69.576  1.00  0.00    -0.108 C  
HETATM    9  C   UNL     1      -7.004   5.060  68.771  1.00  0.00    -0.052 C  
HETATM   10  C   UNL     1      -8.087   4.233  69.397  1.00  0.00    -0.062 C  
BRANCH   8  11
HETATM   11  C   UNL     1      -9.046   6.669  68.768  1.00  0.00    -0.131 A  
HETATM   12  C   UNL     1      -9.996   6.091  67.907  1.00  0.00    -0.151 A  
HETATM   13  C   UNL     1     -10.694   6.855  66.969  1.00  0.00    -0.432 A  
HETATM   14  C   UNL     1      -8.907   8.066  68.724  1.00  0.00    -0.138 A  
HETATM   15  C   UNL     1     -10.468   8.224  66.885  1.00  0.00    -0.365 A  
HETATM   16  C   UNL     1      -9.593   8.835  67.779  1.00  0.00    -0.177 A  
ENDBRANCH   8  11
BRANCH  10  17
HETATM   17  C   UNL     1      -7.796   3.324  70.555  1.00  0.00    -0.043 C  
HETATM   18  N   UNL     1      -8.772   2.250  70.616  1.00  0.00    -0.054 NA 
HETATM   19  H2  UNL     1      -8.827   1.737  69.736  1.00  0.00     0.000 HD 
HETATM   20  H1  UNL     1      -8.575   1.632  71.404  1.00  0.00     0.000 HD 
ENDBRANCH  10  17
ENDBRANCH   5   8
ENDBRANCH   2   3
TORSDOF 5
ENDMDL
MODEL      219
REMARK 921   NORMALIZED FREE ENERGY PREDICTED BY IDOCK:   -2.22 KCAL/MOL
REMARK 922        TOTAL FREE ENERGY PREDICTED BY IDOCK:   -3.35 KCAL/MOL
REMARK 923 INTER-LIGAND FREE ENERGY PREDICTED BY IDOCK:   -3.25 KCAL/MOL
REMARK 924 INTRA-LIGAND FREE ENERGY PREDICTED BY IDOCK:   -0.11 KCAL/MOL
REMARK 927      BINDING AFFINITY PREDICTED BY RF-SCORE:    0.00 PKD
ROOT
HETATM    1  C   UNL     1      -6.033   8.439  70.623  1.00  0.00    -0.032 C  
HETATM    2  C   UNL     1      -7.178   9.431  70.535  1.00  0.00    -0.123 C  
ENDROOT
BRANCH   2   3
HETATM    3  N   UNL     1      -8.313   8.946  69.748  1.00  0.00    -0.119 N  
HETATM    4  O   UNL     1      -7.454   9.981  67.856  1.00  0.00    -0.088 OA 
HETATM    5  C   UNL     1      -8.338   9.318  68.391  1.00  0.00    -0.119 C  
BRANCH   3   6
HETATM    6  C   UNL     1      -9.508   8.440  70.428  1.00  0.00    -0.168 C  
HETATM    7  C   UNL     1      -9.547   6.964  70.781  1.00  0.00    -0.167 C  
ENDBRANCH   3   6
BRANCH   5   8
HETATM    8  C   UNL     1      -9.507   8.842  67.536  1.00  0.00    -0.172 C  
HETATM    9  C   UNL     1     -10.894   9.369  67.929  1.00  0.00    -0.215 C  
HETATM   10  C   UNL     1     -10.249   9.881  66.676  1.00  0.00    -0.293 C  
BRANCH   8  11
HETATM   11  C   UNL     1      -9.444   7.357  67.150  1.00  0.00    -0.187 A  
HETATM   12  C   UNL     1     -10.638   6.635  66.968  1.00  0.00    -0.404 A  
HETATM   13  C   UNL     1     -10.643   5.242  66.869  1.00  0.00    -0.283 A  
HETATM   14  C   UNL     1      -8.242   6.628  67.114  1.00  0.00    -0.113 A  
HETATM   15  C   UNL     1      -9.445   4.539  66.931  1.00  0.00    -0.190 A  
HETATM   16  C   UNL     1      -8.242   5.232  67.029  1.00  0.00    -0.108 A  
ENDBRANCH   8  11
BRANCH  10  17
HETATM   17  C   UNL     1      -9.758  11.296  66.580  1.00  0.00    -0.196 C  
HETATM   18  N   UNL     1     -10.820  12.173  66.115  1.00  0.00    -0.271 NA 
HETATM   19  H2  UNL     1     -11.654  12.100  66.697  1.00  0.00     0.000 HD 
HETATM   20  H1  UNL     1     -10.486  13.134  66.049  1.00  0.00     0.000 HD 
ENDBRANCH  10  17
ENDBRANCH   5   8
ENDBRANCH   2   3
TORSDOF 5
ENDMDL
MODEL      220
REMARK 921   NORMALIZED FREE ENERGY PREDICTED BY IDOCK:   -2.19 KCAL/MOL
REMARK 922        TOTAL FREE ENERGY PREDICTED BY IDOCK:   -3.33 KCAL/MOL
REMARK 923 INTER-LIGAND FREE ENERGY PREDICTED BY IDOCK:   -2.97 KCAL/MOL
REMARK 924 INTRA-LIGAND FREE ENERGY PREDICTED BY IDOCK:   -0.35 KCAL/MOL
REMARK 927      BINDING AFFINITY PREDICTED BY RF-SCORE:    0.00 PKD
ROOT
HETATM    1  C   UNL     1     -11.245  10.067  70.913  1.00  0.00    -0.415 C  
HETATM    2  C   UNL     1     -11.539   8.582  70.814  1.00  0.00    -0.231 C  
ENDROOT
BRANCH   2   3
HETATM    3  N   UNL     1     -10.335   7.751  70.738  1.00  0.00    -0.202 N  
HETATM    4  O   UNL     1     -10.215   8.120  68.449  1.00  0.00    -0.199 OA 
HETATM    5  C   UNL     1      -9.770   7.584  69.460  1.00  0.00    -0.164 C  
BRANCH   3   6
HETATM    6  C   UNL     1      -9.990   6.865  71.853  1.00  0.00    -0.171 C  
HETATM    7  C   UNL     1     -11.009   5.818  72.264  1.00  0.00    -0.314 C  
ENDBRANCH   3   6
BRANCH   5   8
HETATM    8  C   UNL     1      -8.521   6.719  69.333  1.00  0.00    -0.132 C  
HETATM    9  C   UNL     1      -7.446   7.219  68.359  1.00  0.00    -0.106 C  
HETATM   10  C   UNL     1      -7.184   7.295  69.834  1.00  0.00    -0.081 C  
BRANCH   8  11
HETATM   11  C   UNL     1      -8.799   5.208  69.300  1.00  0.00    -0.115 A  
HETATM   12  C   UNL     1      -8.201   4.371  70.259  1.00  0.00    -0.071 A  
HETATM   13  C   UNL     1      -8.212   2.981  70.124  1.00  0.00    -0.067 A  
HETATM   14  C   UNL     1      -9.507   4.586  68.257  1.00  0.00    -0.205 A  
HETATM   15  C   UNL     1      -8.841   2.395  69.032  1.00  0.00    -0.149 A  
HETATM   16  C   UNL     1      -9.510   3.195  68.110  1.00  0.00    -0.217 A  
ENDBRANCH   8  11
BRANCH  10  17
HETATM   17  C   UNL     1      -7.131   8.615  70.545  1.00  0.00    -0.044 C  
HETATM   18  N   UNL     1      -6.965   8.417  71.975  1.00  0.00    -0.087 NA 
HETATM   19  H2  UNL     1      -6.151   7.840  72.186  1.00  0.00     0.000 HD 
HETATM   20  H1  UNL     1      -6.930   9.315  72.458  1.00  0.00     0.000 HD 
ENDBRANCH  10  17
ENDBRANCH   5   8
ENDBRANCH   2   3
TORSDOF 5
ENDMDL
MODEL      221
REMARK 921   NORMALIZED FREE ENERGY PREDICTED BY IDOCK:   -2.16 KCAL/MOL
REMARK 922        TOTAL FREE ENERGY PREDICTED BY IDOCK:   -3.29 KCAL/MOL
REMARK 923 INTER-LIGAND FREE ENERGY PREDICTED BY IDOCK:   -3.55 KCAL/MOL
REMARK 924 INTRA-LIGAND FREE ENERGY PREDICTED BY IDOCK:    0.26 KCAL/MOL
REMARK 927      BINDING AFFINITY PREDICTED BY RF-SCORE:    0.00 PKD
ROOT
HETATM    1  C   UNL     1     -11.719   9.544  70.996  1.00  0.00    -0.419 C  
HETATM    2  C   UNL     1     -10.732  10.333  70.154  1.00  0.00    -0.278 C  
ENDROOT
BRANCH   2   3
HETATM    3  N   UNL     1      -9.796   9.492  69.407  1.00  0.00    -0.177 N  
HETATM    4  O   UNL     1     -11.032   9.821  67.471  1.00  0.00    -0.275 OA 
HETATM    5  C   UNL     1     -10.080   9.298  68.043  1.00  0.00    -0.193 C  
BRANCH   3   6
HETATM    6  C   UNL     1      -8.862   8.622  70.129  1.00  0.00    -0.141 C  
HETATM    7  C   UNL     1      -7.872   9.280  71.073  1.00  0.00    -0.109 C  
ENDBRANCH   3   6
BRANCH   5   8
HETATM    8  C   UNL     1      -9.135   8.422  67.229  1.00  0.00    -0.156 C  
HETATM    9  C   UNL     1      -8.569   7.187  67.944  1.00  0.00    -0.123 C  
HETATM   10  C   UNL     1      -9.594   6.998  66.866  1.00  0.00    -0.214 C  
BRANCH   8  11
HETATM   11  C   UNL     1      -8.137   9.204  66.361  1.00  0.00    -0.107 A  
HETATM   12  C   UNL     1      -8.346   9.294  64.973  1.00  0.00    -0.160 A  
HETATM   13  C   UNL     1      -7.353   9.767  64.112  1.00  0.00    -0.128 A  
HETATM   14  C   UNL     1      -6.928   9.715  66.862  1.00  0.00    -0.085 A  
HETATM   15  C   UNL     1      -6.129  10.180  64.628  1.00  0.00    -0.128 A  
HETATM   16  C   UNL     1      -5.924  10.177  66.005  1.00  0.00    -0.081 A  
ENDBRANCH   8  11
BRANCH  10  17
HETATM   17  C   UNL     1     -10.982   6.529  67.192  1.00  0.00    -0.408 C  
HETATM   18  N   UNL     1     -11.068   6.121  68.584  1.00  0.00    -0.363 NA 
HETATM   19  H2  UNL     1     -10.760   6.860  69.215  1.00  0.00     0.000 HD 
HETATM   20  H1  UNL     1     -12.011   5.802  68.805  1.00  0.00     0.000 HD 
ENDBRANCH  10  17
ENDBRANCH   5   8
ENDBRANCH   2   3
TORSDOF 5
ENDMDL
MODEL      222
REMARK 921   NORMALIZED FREE ENERGY PREDICTED BY IDOCK:   -2.12 KCAL/MOL
REMARK 922        TOTAL FREE ENERGY PREDICTED BY IDOCK:   -3.24 KCAL/MOL
REMARK 923 INTER-LIGAND FREE ENERGY PREDICTED BY IDOCK:   -3.32 KCAL/MOL
REMARK 924 INTRA-LIGAND FREE ENERGY PREDICTED BY IDOCK:    0.09 KCAL/MOL
REMARK 927      BINDING AFFINITY PREDICTED BY RF-SCORE:    0.00 PKD
ROOT
HETATM    1  C   UNL     1      -7.519  14.895  67.103  1.00  0.00    -0.111 C  
HETATM    2  C   UNL     1      -7.943  14.330  68.447  1.00  0.00    -0.143 C  
ENDROOT
BRANCH   2   3
HETATM    3  N   UNL     1      -7.971  12.867  68.485  1.00  0.00    -0.129 N  
HETATM    4  O   UNL     1     -10.260  12.893  68.101  1.00  0.00    -0.226 OA 
HETATM    5  C   UNL     1      -9.229  12.261  68.311  1.00  0.00    -0.189 C  
BRANCH   3   6
HETATM    6  C   UNL     1      -6.833  12.131  69.042  1.00  0.00    -0.098 C  
HETATM    7  C   UNL     1      -6.015  12.811  70.125  1.00  0.00    -0.135 C  
ENDBRANCH   3   6
BRANCH   5   8
HETATM    8  C   UNL     1      -9.305  10.739  68.352  1.00  0.00    -0.167 C  
HETATM    9  C   UNL     1      -8.953  10.077  69.692  1.00  0.00    -0.221 C  
HETATM   10  C   UNL     1     -10.382  10.088  69.239  1.00  0.00    -0.237 C  
BRANCH   8  11
HETATM   11  C   UNL     1      -8.750  10.044  67.100  1.00  0.00    -0.132 A  
HETATM   12  C   UNL     1      -8.419  10.812  65.969  1.00  0.00    -0.169 A  
HETATM   13  C   UNL     1      -8.155  10.218  64.732  1.00  0.00    -0.151 A  
HETATM   14  C   UNL     1      -8.694   8.646  66.965  1.00  0.00    -0.135 A  
HETATM   15  C   UNL     1      -8.198   8.834  64.606  1.00  0.00    -0.166 A  
HETATM   16  C   UNL     1      -8.444   8.046  65.727  1.00  0.00    -0.159 A  
ENDBRANCH   8  11
BRANCH  10  17
HETATM   17  C   UNL     1     -11.411  10.925  69.943  1.00  0.00    -0.305 C  
HETATM   18  N   UNL     1     -12.586  11.098  69.105  1.00  0.00    -0.454 NA 
HETATM   19  H2  UNL     1     -12.969  10.203  68.801  1.00  0.00     0.000 HD 
HETATM   20  H1  UNL     1     -13.285  11.666  69.583  1.00  0.00     0.000 HD 
ENDBRANCH  10  17
ENDBRANCH   5   8
ENDBRANCH   2   3
TORSDOF 5
ENDMDL
MODEL      223
REMARK 921   NORMALIZED FREE ENERGY PREDICTED BY IDOCK:   -2.08 KCAL/MOL
REMARK 922        TOTAL FREE ENERGY PREDICTED BY IDOCK:   -3.18 KCAL/MOL
REMARK 923 INTER-LIGAND FREE ENERGY PREDICTED BY IDOCK:   -4.45 KCAL/MOL
REMARK 924 INTRA-LIGAND FREE ENERGY PREDICTED BY IDOCK:    1.27 KCAL/MOL
REMARK 927      BINDING AFFINITY PREDICTED BY RF-SCORE:    0.00 PKD
ROOT
HETATM    1  C   UNL     1     -11.376   6.871  70.724  1.00  0.00    -0.355 C  
HETATM    2  C   UNL     1     -10.802   7.003  69.325  1.00  0.00    -0.214 C  
ENDROOT
BRANCH   2   3
HETATM    3  N   UNL     1     -10.576   8.390  68.914  1.00  0.00    -0.185 N  
HETATM    4  O   UNL     1      -8.724   7.731  67.680  1.00  0.00    -0.125 OA 
HETATM    5  C   UNL     1      -9.464   8.623  68.085  1.00  0.00    -0.141 C  
BRANCH   3   6
HETATM    6  C   UNL     1     -11.242   9.481  69.631  1.00  0.00    -0.108 C  
HETATM    7  C   UNL     1     -10.774   9.786  71.042  1.00  0.00    -0.342 C  
ENDBRANCH   3   6
BRANCH   5   8
HETATM    8  C   UNL     1      -9.186  10.055  67.639  1.00  0.00    -0.148 C  
HETATM    9  C   UNL     1      -9.300  11.136  68.722  1.00  0.00    -0.156 C  
HETATM   10  C   UNL     1      -7.942  10.764  68.205  1.00  0.00    -0.118 C  
BRANCH   8  11
HETATM   11  C   UNL     1      -9.781  10.418  66.271  1.00  0.00    -0.256 A  
HETATM   12  C   UNL     1      -9.203   9.892  65.101  1.00  0.00    -0.288 A  
HETATM   13  C   UNL     1      -9.537  10.383  63.836  1.00  0.00    -0.370 A  
HETATM   14  C   UNL     1     -10.793  11.380  66.110  1.00  0.00    -0.310 A  
HETATM   15  C   UNL     1     -10.474  11.402  63.713  1.00  0.00    -0.456 A  
HETATM   16  C   UNL     1     -11.121  11.885  64.848  1.00  0.00    -0.363 A  
ENDBRANCH   8  11
BRANCH  10  17
HETATM   17  C   UNL     1      -6.960  10.027  69.069  1.00  0.00    -0.056 C  
HETATM   18  N   UNL     1      -7.045  10.489  70.444  1.00  0.00    -0.462 NA 
HETATM   19  H2  UNL     1      -7.996  10.421  70.808  1.00  0.00     0.000 HD 
HETATM   20  H1  UNL     1      -6.378   9.989  71.030  1.00  0.00     0.000 HD 
ENDBRANCH  10  17
ENDBRANCH   5   8
ENDBRANCH   2   3
TORSDOF 5
ENDMDL
MODEL      224
REMARK 921   NORMALIZED FREE ENERGY PREDICTED BY IDOCK:   -2.02 KCAL/MOL
REMARK 922        TOTAL FREE ENERGY PREDICTED BY IDOCK:   -3.10 KCAL/MOL
REMARK 923 INTER-LIGAND FREE ENERGY PREDICTED BY IDOCK:   -2.82 KCAL/MOL
REMARK 924 INTRA-LIGAND FREE ENERGY PREDICTED BY IDOCK:   -0.28 KCAL/MOL
REMARK 927      BINDING AFFINITY PREDICTED BY RF-SCORE:    0.00 PKD
ROOT
HETATM    1  C   UNL     1     -12.458   8.976  70.976  1.00  0.00    -0.210 C  
HETATM    2  C   UNL     1     -10.957   9.147  70.827  1.00  0.00    -0.270 C  
ENDROOT
BRANCH   2   3
HETATM    3  N   UNL     1     -10.191   7.963  71.220  1.00  0.00    -0.187 N  
HETATM    4  O   UNL     1      -8.209   9.123  70.885  1.00  0.00    -0.171 OA 
HETATM    5  C   UNL     1      -8.790   8.084  71.187  1.00  0.00    -0.140 C  
BRANCH   3   6
HETATM    6  C   UNL     1     -10.848   6.654  71.270  1.00  0.00    -0.238 C  
HETATM    7  C   UNL     1     -11.324   6.053  69.960  1.00  0.00    -0.354 C  
ENDBRANCH   3   6
BRANCH   5   8
HETATM    8  C   UNL     1      -7.953   6.873  71.581  1.00  0.00    -0.101 C  
HETATM    9  C   UNL     1      -6.622   7.168  72.286  1.00  0.00    -0.056 C  
HETATM   10  C   UNL     1      -7.752   6.583  73.079  1.00  0.00    -0.097 C  
BRANCH   8  11
HETATM   11  C   UNL     1      -7.913   5.761  70.521  1.00  0.00    -0.105 A  
HETATM   12  C   UNL     1      -7.726   4.426  70.923  1.00  0.00    -0.060 A  
HETATM   13  C   UNL     1      -7.430   3.419  70.000  1.00  0.00    -0.044 A  
HETATM   14  C   UNL     1      -7.901   6.024  69.141  1.00  0.00    -0.099 A  
HETATM   15  C   UNL     1      -7.332   3.726  68.648  1.00  0.00    -0.054 A  
HETATM   16  C   UNL     1      -7.591   5.023  68.214  1.00  0.00    -0.079 A  
ENDBRANCH   8  11
BRANCH  10  17
HETATM   17  C   UNL     1      -8.465   7.392  74.124  1.00  0.00    -0.202 C  
HETATM   18  N   UNL     1      -7.637   8.504  74.558  1.00  0.00    -0.353 NA 
HETATM   19  H2  UNL     1      -7.335   9.081  73.773  1.00  0.00     0.000 HD 
HETATM   20  H1  UNL     1      -8.122   9.053  75.268  1.00  0.00     0.000 HD 
ENDBRANCH  10  17
ENDBRANCH   5   8
ENDBRANCH   2   3
TORSDOF 5
ENDMDL
MODEL      225
REMARK 921   NORMALIZED FREE ENERGY PREDICTED BY IDOCK:   -1.97 KCAL/MOL
REMARK 922        TOTAL FREE ENERGY PREDICTED BY IDOCK:   -3.04 KCAL/MOL
REMARK 923 INTER-LIGAND FREE ENERGY PREDICTED BY IDOCK:   -3.66 KCAL/MOL
REMARK 924 INTRA-LIGAND FREE ENERGY PREDICTED BY IDOCK:    0.62 KCAL/MOL
REMARK 927      BINDING AFFINITY PREDICTED BY RF-SCORE:    0.00 PKD
ROOT
HETATM    1  C   UNL     1     -10.949   6.899  73.255  1.00  0.00    -0.270 C  
HETATM    2  C   UNL     1     -11.114   8.152  72.415  1.00  0.00    -0.369 C  
ENDROOT
BRANCH   2   3
HETATM    3  N   UNL     1     -10.319   8.143  71.186  1.00  0.00    -0.196 N  
HETATM    4  O   UNL     1     -11.951   6.874  70.130  1.00  0.00    -0.271 OA 
HETATM    5  C   UNL     1     -10.859   7.434  70.097  1.00  0.00    -0.256 C  
BRANCH   3   6
HETATM    6  C   UNL     1      -8.904   8.522  71.231  1.00  0.00    -0.190 C  
HETATM    7  C   UNL     1      -8.086   8.056  72.421  1.00  0.00    -0.175 C  
ENDBRANCH   3   6
BRANCH   5   8
HETATM    8  C   UNL     1     -10.059   7.391  68.800  1.00  0.00    -0.184 C  
HETATM    9  C   UNL     1     -10.819   7.772  67.522  1.00  0.00    -0.182 C  
HETATM   10  C   UNL     1      -9.790   8.717  68.066  1.00  0.00    -0.201 C  
BRANCH   8  11
HETATM   11  C   UNL     1      -9.116   6.184  68.678  1.00  0.00    -0.125 A  
HETATM   12  C   UNL     1      -8.112   6.185  67.694  1.00  0.00    -0.113 A  
HETATM   13  C   UNL     1      -7.400   5.026  67.374  1.00  0.00    -0.082 A  
HETATM   14  C   UNL     1      -9.299   4.997  69.407  1.00  0.00    -0.179 A  
HETATM   15  C   UNL     1      -7.668   3.840  68.048  1.00  0.00    -0.066 A  
HETATM   16  C   UNL     1      -8.600   3.830  69.082  1.00  0.00    -0.115 A  
ENDBRANCH   8  11
BRANCH  10  17
HETATM   17  C   UNL     1     -10.189  10.030  68.675  1.00  0.00    -0.180 C  
HETATM   18  N   UNL     1     -11.637  10.144  68.735  1.00  0.00    -0.512 NA 
HETATM   19  H2  UNL     1     -12.058   9.355  69.225  1.00  0.00     0.000 HD 
HETATM   20  H1  UNL     1     -11.908  11.036  69.148  1.00  0.00     0.000 HD 
ENDBRANCH  10  17
ENDBRANCH   5   8
ENDBRANCH   2   3
TORSDOF 5
ENDMDL
MODEL      226
REMARK 921   NORMALIZED FREE ENERGY PREDICTED BY IDOCK:   -1.92 KCAL/MOL
REMARK 922        TOTAL FREE ENERGY PREDICTED BY IDOCK:   -2.98 KCAL/MOL
REMARK 923 INTER-LIGAND FREE ENERGY PREDICTED BY IDOCK:   -3.78 KCAL/MOL
REMARK 924 INTRA-LIGAND FREE ENERGY PREDICTED BY IDOCK:    0.80 KCAL/MOL
REMARK 927      BINDING AFFINITY PREDICTED BY RF-SCORE:    0.00 PKD
ROOT
HETATM    1  C   UNL     1     -10.646   5.375  68.508  1.00  0.00    -0.153 C  
HETATM    2  C   UNL     1     -10.225   4.925  69.895  1.00  0.00    -0.229 C  
ENDROOT
BRANCH   2   3
HETATM    3  N   UNL     1     -10.159   6.016  70.869  1.00  0.00    -0.190 N  
HETATM    4  O   UNL     1      -9.248   7.413  69.254  1.00  0.00    -0.148 OA 
HETATM    5  C   UNL     1      -9.619   7.232  70.411  1.00  0.00    -0.165 C  
BRANCH   3   6
HETATM    6  C   UNL     1     -10.293   5.726  72.299  1.00  0.00    -0.202 C  
HETATM    7  C   UNL     1     -11.380   4.754  72.722  1.00  0.00    -0.178 C  
ENDBRANCH   3   6
BRANCH   5   8
HETATM    8  C   UNL     1      -9.523   8.393  71.394  1.00  0.00    -0.251 C  
HETATM    9  C   UNL     1     -10.032   9.751  70.893  1.00  0.00    -0.071 C  
HETATM   10  C   UNL     1     -10.831   9.009  71.922  1.00  0.00    -0.413 C  
BRANCH   8  11
HETATM   11  C   UNL     1      -8.217   8.429  72.203  1.00  0.00    -0.207 A  
HETATM   12  C   UNL     1      -8.256   8.214  73.593  1.00  0.00    -0.292 A  
HETATM   13  C   UNL     1      -7.153   8.485  74.406  1.00  0.00    -0.195 A  
HETATM   14  C   UNL     1      -6.987   8.819  71.649  1.00  0.00    -0.085 A  
HETATM   15  C   UNL     1      -5.975   8.960  73.841  1.00  0.00    -0.081 A  
HETATM   16  C   UNL     1      -5.883   9.104  72.459  1.00  0.00    -0.007 A  
ENDBRANCH   8  11
BRANCH  10  17
HETATM   17  C   UNL     1     -12.161   8.404  71.582  1.00  0.00    -0.315 C  
HETATM   18  N   UNL     1     -13.169   8.818  72.543  1.00  0.00    -0.594 NA 
HETATM   19  H2  UNL     1     -13.224   9.833  72.622  1.00  0.00     0.000 HD 
HETATM   20  H1  UNL     1     -14.074   8.406  72.312  1.00  0.00     0.000 HD 
ENDBRANCH  10  17
ENDBRANCH   5   8
ENDBRANCH   2   3
TORSDOF 5
ENDMDL
MODEL      227
REMARK 921   NORMALIZED FREE ENERGY PREDICTED BY IDOCK:   -1.89 KCAL/MOL
REMARK 922        TOTAL FREE ENERGY PREDICTED BY IDOCK:   -2.93 KCAL/MOL
REMARK 923 INTER-LIGAND FREE ENERGY PREDICTED BY IDOCK:   -4.33 KCAL/MOL
REMARK 924 INTRA-LIGAND FREE ENERGY PREDICTED BY IDOCK:    1.40 KCAL/MOL
REMARK 927      BINDING AFFINITY PREDICTED BY RF-SCORE:    0.00 PKD
ROOT
HETATM    1  C   UNL     1      -6.543  10.374  68.081  1.00  0.00    -0.060 C  
HETATM    2  C   UNL     1      -6.809  11.439  67.033  1.00  0.00    -0.137 C  
ENDROOT
BRANCH   2   3
HETATM    3  N   UNL     1      -8.145  12.030  67.125  1.00  0.00    -0.172 N  
HETATM    4  O   UNL     1      -7.210  14.152  67.222  1.00  0.00    -0.148 OA 
HETATM    5  C   UNL     1      -8.204  13.431  67.235  1.00  0.00    -0.154 C  
BRANCH   3   6
HETATM    6  C   UNL     1      -9.294  11.184  67.458  1.00  0.00    -0.168 C  
HETATM    7  C   UNL     1      -9.633  11.002  68.927  1.00  0.00    -0.174 C  
ENDBRANCH   3   6
BRANCH   5   8
HETATM    8  C   UNL     1      -9.576  14.088  67.341  1.00  0.00    -0.227 C  
HETATM    9  C   UNL     1     -10.130  14.276  68.760  1.00  0.00    -0.217 C  
HETATM   10  C   UNL     1      -9.668  15.479  67.994  1.00  0.00    -0.207 C  
BRANCH   8  11
HETATM   11  C   UNL     1     -10.588  13.610  66.289  1.00  0.00    -0.289 A  
HETATM   12  C   UNL     1     -10.142  13.280  64.996  1.00  0.00    -0.247 A  
HETATM   13  C   UNL     1     -11.037  13.089  63.941  1.00  0.00    -0.411 A  
HETATM   14  C   UNL     1     -11.977  13.629  66.504  1.00  0.00    -0.465 A  
HETATM   15  C   UNL     1     -12.405  13.206  64.162  1.00  0.00    -0.418 A  
HETATM   16  C   UNL     1     -12.877  13.452  65.448  1.00  0.00    -0.388 A  
ENDBRANCH   8  11
BRANCH  10  17
HETATM   17  C   UNL     1      -8.429  16.225  68.397  1.00  0.00    -0.195 C  
HETATM   18  N   UNL     1      -8.570  17.641  68.103  1.00  0.00    -0.253 NA 
HETATM   19  H2  UNL     1      -9.407  18.036  68.532  1.00  0.00     0.000 HD 
HETATM   20  H1  UNL     1      -7.729  18.148  68.376  1.00  0.00     0.000 HD 
ENDBRANCH  10  17
ENDBRANCH   5   8
ENDBRANCH   2   3
TORSDOF 5
ENDMDL
MODEL      228
REMARK 921   NORMALIZED FREE ENERGY PREDICTED BY IDOCK:   -1.86 KCAL/MOL
REMARK 922        TOTAL FREE ENERGY PREDICTED BY IDOCK:   -2.90 KCAL/MOL
REMARK 923 INTER-LIGAND FREE ENERGY PREDICTED BY IDOCK:   -3.23 KCAL/MOL
REMARK 924 INTRA-LIGAND FREE ENERGY PREDICTED BY IDOCK:    0.33 KCAL/MOL
REMARK 927      BINDING AFFINITY PREDICTED BY RF-SCORE:    0.00 PKD
ROOT
HETATM    1  C   UNL     1      -6.266  13.695  70.429  1.00  0.00    -0.053 C  
HETATM    2  C   UNL     1      -6.341  13.896  68.927  1.00  0.00    -0.094 C  
ENDROOT
BRANCH   2   3
HETATM    3  N   UNL     1      -7.636  14.403  68.468  1.00  0.00    -0.118 N  
HETATM    4  O   UNL     1      -8.246  12.265  67.801  1.00  0.00    -0.139 OA 
HETATM    5  C   UNL     1      -8.509  13.460  67.895  1.00  0.00    -0.173 C  
BRANCH   3   6
HETATM    6  C   UNL     1      -7.831  15.843  68.282  1.00  0.00    -0.138 C  
HETATM    7  C   UNL     1      -6.651  16.655  67.777  1.00  0.00    -0.158 C  
ENDBRANCH   3   6
BRANCH   5   8
HETATM    8  C   UNL     1      -9.865  13.946  67.396  1.00  0.00    -0.237 C  
HETATM    9  C   UNL     1      -9.851  14.813  66.129  1.00  0.00    -0.335 C  
HETATM   10  C   UNL     1     -10.378  13.412  66.046  1.00  0.00    -0.297 C  
BRANCH   8  11
HETATM   11  C   UNL     1     -10.820  14.407  68.507  1.00  0.00    -0.260 A  
HETATM   12  C   UNL     1     -11.515  13.448  69.267  1.00  0.00    -0.345 A  
HETATM   13  C   UNL     1     -12.572  13.806  70.106  1.00  0.00    -0.253 A  
HETATM   14  C   UNL     1     -11.159  15.755  68.711  1.00  0.00    -0.321 A  
HETATM   15  C   UNL     1     -12.947  15.140  70.217  1.00  0.00    -0.220 A  
HETATM   16  C   UNL     1     -12.226  16.119  69.539  1.00  0.00     0.171 A  
ENDBRANCH   8  11
BRANCH  10  17
HETATM   17  C   UNL     1      -9.627  12.345  65.303  1.00  0.00     0.012 C  
HETATM   18  N   UNL     1     -10.391  11.110  65.276  1.00  0.00    -0.268 NA 
HETATM   19  H2  UNL     1     -11.326  11.251  64.894  1.00  0.00     0.000 HD 
HETATM   20  H1  UNL     1      -9.881  10.385  64.771  1.00  0.00     0.000 HD 
ENDBRANCH  10  17
ENDBRANCH   5   8
ENDBRANCH   2   3
TORSDOF 5
ENDMDL
MODEL      229
REMARK 921   NORMALIZED FREE ENERGY PREDICTED BY IDOCK:   -1.71 KCAL/MOL
REMARK 922        TOTAL FREE ENERGY PREDICTED BY IDOCK:   -2.70 KCAL/MOL
REMARK 923 INTER-LIGAND FREE ENERGY PREDICTED BY IDOCK:   -3.28 KCAL/MOL
REMARK 924 INTRA-LIGAND FREE ENERGY PREDICTED BY IDOCK:    0.59 KCAL/MOL
REMARK 927      BINDING AFFINITY PREDICTED BY RF-SCORE:    0.00 PKD
ROOT
HETATM    1  C   UNL     1     -11.181   7.501  71.813  1.00  0.00    -0.281 C  
HETATM    2  C   UNL     1     -10.580   8.892  71.903  1.00  0.00    -0.349 C  
ENDROOT
BRANCH   2   3
HETATM    3  N   UNL     1      -9.428   9.090  71.023  1.00  0.00    -0.253 N  
HETATM    4  O   UNL     1     -10.849   9.338  69.204  1.00  0.00    -0.213 OA 
HETATM    5  C   UNL     1      -9.709   9.291  69.659  1.00  0.00    -0.182 C  
BRANCH   3   6
HETATM    6  C   UNL     1      -8.086   8.724  71.485  1.00  0.00    -0.122 C  
HETATM    7  C   UNL     1      -7.954   7.488  72.356  1.00  0.00    -0.118 C  
ENDBRANCH   3   6
BRANCH   5   8
HETATM    8  C   UNL     1      -8.538   9.493  68.705  1.00  0.00    -0.119 C  
HETATM    9  C   UNL     1      -7.372   8.505  68.843  1.00  0.00    -0.086 C  
HETATM   10  C   UNL     1      -8.268   8.410  67.645  1.00  0.00    -0.126 C  
BRANCH   8  11
HETATM   11  C   UNL     1      -8.144  10.962  68.490  1.00  0.00    -0.137 A  
HETATM   12  C   UNL     1      -8.913  11.769  67.631  1.00  0.00    -0.169 A  
HETATM   13  C   UNL     1      -8.462  13.020  67.204  1.00  0.00    -0.176 A  
HETATM   14  C   UNL     1      -6.953  11.513  68.992  1.00  0.00    -0.112 A  
HETATM   15  C   UNL     1      -7.234  13.501  67.645  1.00  0.00    -0.175 A  
HETATM   16  C   UNL     1      -6.490  12.759  68.558  1.00  0.00    -0.082 A  
ENDBRANCH   8  11
BRANCH  10  17
HETATM   17  C   UNL     1      -9.206   7.251  67.469  1.00  0.00    -0.130 C  
HETATM   18  N   UNL     1      -9.968   7.395  66.240  1.00  0.00    -0.457 NA 
HETATM   19  H2  UNL     1      -9.361   7.517  65.430  1.00  0.00     0.000 HD 
HETATM   20  H1  UNL     1     -10.606   6.608  66.121  1.00  0.00     0.000 HD 
ENDBRANCH  10  17
ENDBRANCH   5   8
ENDBRANCH   2   3
TORSDOF 5
ENDMDL
MODEL      230
REMARK 921   NORMALIZED FREE ENERGY PREDICTED BY IDOCK:   -1.65 KCAL/MOL
REMARK 922        TOTAL FREE ENERGY PREDICTED BY IDOCK:   -2.63 KCAL/MOL
REMARK 923 INTER-LIGAND FREE ENERGY PREDICTED BY IDOCK:   -3.50 KCAL/MOL
REMARK 924 INTRA-LIGAND FREE ENERGY PREDICTED BY IDOCK:    0.87 KCAL/MOL
REMARK 927      BINDING AFFINITY PREDICTED BY RF-SCORE:    0.00 PKD
ROOT
HETATM    1  C   UNL     1     -10.579  11.853  63.676  1.00  0.00    -0.500 C  
HETATM    2  C   UNL     1     -10.544  10.868  64.830  1.00  0.00    -0.246 C  
ENDROOT
BRANCH   2   3
HETATM    3  N   UNL     1      -9.986  11.428  66.062  1.00  0.00    -0.222 N  
HETATM    4  O   UNL     1      -7.852  10.818  65.382  1.00  0.00    -0.111 OA 
HETATM    5  C   UNL     1      -8.593  11.318  66.224  1.00  0.00    -0.172 C  
BRANCH   3   6
HETATM    6  C   UNL     1     -10.870  11.729  67.191  1.00  0.00    -0.258 C  
HETATM    7  C   UNL     1     -11.365  10.564  68.030  1.00  0.00    -0.319 C  
ENDBRANCH   3   6
BRANCH   5   8
HETATM    8  C   UNL     1      -7.970  11.880  67.497  1.00  0.00    -0.155 C  
HETATM    9  C   UNL     1      -6.954  13.015  67.311  1.00  0.00    -0.047 C  
HETATM   10  C   UNL     1      -8.301  13.332  67.889  1.00  0.00    -0.163 C  
BRANCH   8  11
HETATM   11  C   UNL     1      -7.597  10.817  68.541  1.00  0.00    -0.104 A  
HETATM   12  C   UNL     1      -8.242   9.567  68.520  1.00  0.00    -0.113 A  
HETATM   13  C   UNL     1      -8.130   8.668  69.583  1.00  0.00    -0.112 A  
HETATM   14  C   UNL     1      -6.744  11.081  69.627  1.00  0.00    -0.137 A  
HETATM   15  C   UNL     1      -7.352   8.995  70.688  1.00  0.00    -0.099 A  
HETATM   16  C   UNL     1      -6.639  10.191  70.701  1.00  0.00    -0.068 A  
ENDBRANCH   8  11
BRANCH  10  17
HETATM   17  C   UNL     1      -9.308  14.130  67.113  1.00  0.00    -0.237 C  
HETATM   18  N   UNL     1      -8.642  15.107  66.268  1.00  0.00    -0.439 NA 
HETATM   19  H2  UNL     1      -7.951  14.671  65.657  1.00  0.00     0.000 HD 
HETATM   20  H1  UNL     1      -9.326  15.649  65.742  1.00  0.00     0.000 HD 
ENDBRANCH  10  17
ENDBRANCH   5   8
ENDBRANCH   2   3
TORSDOF 5
ENDMDL
MODEL      231
REMARK 921   NORMALIZED FREE ENERGY PREDICTED BY IDOCK:   -1.51 KCAL/MOL
REMARK 922        TOTAL FREE ENERGY PREDICTED BY IDOCK:   -2.44 KCAL/MOL
REMARK 923 INTER-LIGAND FREE ENERGY PREDICTED BY IDOCK:   -3.94 KCAL/MOL
REMARK 924 INTRA-LIGAND FREE ENERGY PREDICTED BY IDOCK:    1.50 KCAL/MOL
REMARK 927      BINDING AFFINITY PREDICTED BY RF-SCORE:    0.00 PKD
ROOT
HETATM    1  C   UNL     1      -6.611   9.682  65.883  1.00  0.00    -0.080 C  
HETATM    2  C   UNL     1      -6.821  10.603  67.071  1.00  0.00    -0.091 C  
ENDROOT
BRANCH   2   3
HETATM    3  N   UNL     1      -7.830  11.637  66.839  1.00  0.00    -0.162 N  
HETATM    4  O   UNL     1      -7.337  12.591  68.897  1.00  0.00    -0.096 OA 
HETATM    5  C   UNL     1      -8.004  12.583  67.866  1.00  0.00    -0.157 C  
BRANCH   3   6
HETATM    6  C   UNL     1      -8.832  11.454  65.785  1.00  0.00    -0.111 C  
HETATM    7  C   UNL     1      -9.646  10.173  65.800  1.00  0.00    -0.288 C  
ENDBRANCH   3   6
BRANCH   5   8
HETATM    8  C   UNL     1      -9.052  13.673  67.670  1.00  0.00    -0.207 C  
HETATM    9  C   UNL     1     -10.180  13.359  66.679  1.00  0.00    -0.274 C  
HETATM   10  C   UNL     1     -10.489  13.394  68.146  1.00  0.00    -0.250 C  
BRANCH   8  11
HETATM   11  C   UNL     1      -8.477  15.096  67.596  1.00  0.00    -0.171 A  
HETATM   12  C   UNL     1      -7.981  15.706  68.763  1.00  0.00    -0.172 A  
HETATM   13  C   UNL     1      -7.687  17.071  68.806  1.00  0.00    -0.249 A  
HETATM   14  C   UNL     1      -8.559  15.892  66.441  1.00  0.00    -0.364 A  
HETATM   15  C   UNL     1      -7.866  17.854  67.672  1.00  0.00    -0.219 A  
HETATM   16  C   UNL     1      -8.279  17.262  66.482  1.00  0.00    -0.311 A  
ENDBRANCH   8  11
BRANCH  10  17
HETATM   17  C   UNL     1     -10.823  12.139  68.897  1.00  0.00    -0.200 C  
HETATM   18  N   UNL     1     -11.721  11.303  68.118  1.00  0.00    -0.539 NA 
HETATM   19  H2  UNL     1     -11.343  11.102  67.192  1.00  0.00     0.000 HD 
HETATM   20  H1  UNL     1     -11.948  10.450  68.629  1.00  0.00     0.000 HD 
ENDBRANCH  10  17
ENDBRANCH   5   8
ENDBRANCH   2   3
TORSDOF 5
ENDMDL
MODEL      232
REMARK 921   NORMALIZED FREE ENERGY PREDICTED BY IDOCK:   -1.50 KCAL/MOL
REMARK 922        TOTAL FREE ENERGY PREDICTED BY IDOCK:   -2.43 KCAL/MOL
REMARK 923 INTER-LIGAND FREE ENERGY PREDICTED BY IDOCK:   -2.08 KCAL/MOL
REMARK 924 INTRA-LIGAND FREE ENERGY PREDICTED BY IDOCK:   -0.34 KCAL/MOL
REMARK 927      BINDING AFFINITY PREDICTED BY RF-SCORE:    0.00 PKD
ROOT
HETATM    1  C   UNL     1      -5.853  10.194  65.506  1.00  0.00    -0.094 C  
HETATM    2  C   UNL     1      -7.294  10.391  65.937  1.00  0.00    -0.135 C  
ENDROOT
BRANCH   2   3
HETATM    3  N   UNL     1      -7.871   9.221  66.603  1.00  0.00    -0.103 N  
HETATM    4  O   UNL     1      -6.581   9.647  68.486  1.00  0.00    -0.052 OA 
HETATM    5  C   UNL     1      -7.402   8.946  67.901  1.00  0.00    -0.084 C  
BRANCH   3   6
HETATM    6  C   UNL     1      -8.591   8.217  65.817  1.00  0.00    -0.154 C  
HETATM    7  C   UNL     1      -7.833   7.516  64.703  1.00  0.00    -0.130 C  
ENDBRANCH   3   6
BRANCH   5   8
HETATM    8  C   UNL     1      -7.969   7.732  68.628  1.00  0.00    -0.122 C  
HETATM    9  C   UNL     1      -8.050   7.834  70.157  1.00  0.00    -0.117 C  
HETATM   10  C   UNL     1      -9.317   7.885  69.357  1.00  0.00    -0.152 C  
BRANCH   8  11
HETATM   11  C   UNL     1      -7.488   6.382  68.075  1.00  0.00    -0.094 A  
HETATM   12  C   UNL     1      -6.158   6.245  67.639  1.00  0.00    -0.021 A  
HETATM   13  C   UNL     1      -5.740   5.134  66.901  1.00  0.00    -0.018 A  
HETATM   14  C   UNL     1      -8.356   5.303  67.836  1.00  0.00    -0.098 A  
HETATM   15  C   UNL     1      -6.646   4.124  66.599  1.00  0.00    -0.046 A  
HETATM   16  C   UNL     1      -7.948   4.195  67.086  1.00  0.00    -0.096 A  
ENDBRANCH   8  11
BRANCH  10  17
HETATM   17  C   UNL     1     -10.113   9.152  69.248  1.00  0.00    -0.194 C  
HETATM   18  N   UNL     1      -9.996   9.933  70.467  1.00  0.00    -0.375 NA 
HETATM   19  H2  UNL     1      -9.022  10.117  70.707  1.00  0.00     0.000 HD 
HETATM   20  H1  UNL     1     -10.538  10.794  70.393  1.00  0.00     0.000 HD 
ENDBRANCH  10  17
ENDBRANCH   5   8
ENDBRANCH   2   3
TORSDOF 5
ENDMDL
MODEL      233
REMARK 921   NORMALIZED FREE ENERGY PREDICTED BY IDOCK:   -1.39 KCAL/MOL
REMARK 922        TOTAL FREE ENERGY PREDICTED BY IDOCK:   -2.29 KCAL/MOL
REMARK 923 INTER-LIGAND FREE ENERGY PREDICTED BY IDOCK:   -3.03 KCAL/MOL
REMARK 924 INTRA-LIGAND FREE ENERGY PREDICTED BY IDOCK:    0.74 KCAL/MOL
REMARK 927      BINDING AFFINITY PREDICTED BY RF-SCORE:    0.00 PKD
ROOT
HETATM    1  C   UNL     1     -12.307  13.250  64.742  1.00  0.00    -0.454 C  
HETATM    2  C   UNL     1     -12.628  13.836  66.105  1.00  0.00    -0.371 C  
ENDROOT
BRANCH   2   3
HETATM    3  N   UNL     1     -11.447  14.299  66.836  1.00  0.00    -0.346 N  
HETATM    4  O   UNL     1     -11.517  12.400  68.169  1.00  0.00    -0.271 OA 
HETATM    5  C   UNL     1     -10.995  13.474  67.882  1.00  0.00    -0.256 C  
BRANCH   3   6
HETATM    6  C   UNL     1     -11.021  15.696  66.720  1.00  0.00    -0.230 C  
HETATM    7  C   UNL     1     -10.134  16.067  65.544  1.00  0.00    -0.336 C  
ENDBRANCH   3   6
BRANCH   5   8
HETATM    8  C   UNL     1      -9.773  13.923  68.675  1.00  0.00    -0.160 C  
HETATM    9  C   UNL     1      -9.538  15.437  68.760  1.00  0.00    -0.209 C  
HETATM   10  C   UNL     1     -10.001  14.703  69.982  1.00  0.00     0.406 C  
BRANCH   8  11
HETATM   11  C   UNL     1      -8.519  13.066  68.443  1.00  0.00    -0.118 A  
HETATM   12  C   UNL     1      -7.561  13.479  67.499  1.00  0.00    -0.176 A  
HETATM   13  C   UNL     1      -6.544  12.625  67.068  1.00  0.00     0.139 A  
HETATM   14  C   UNL     1      -8.346  11.796  69.019  1.00  0.00     0.180 A  
HETATM   15  C   UNL     1      -6.452  11.339  67.588  1.00  0.00    -0.067 A  
HETATM   16  C   UNL     1      -7.338  10.931  68.582  1.00  0.00    -0.101 A  
ENDBRANCH   8  11
BRANCH  10  17
HETATM   17  C   UNL     1     -11.384  14.905  70.529  1.00  0.00    -0.235 C  
HETATM   18  N   UNL     1     -11.424  16.072  71.393  1.00  0.00    -0.419 NA 
HETATM   19  H2  UNL     1     -11.079  16.907  70.919  1.00  0.00     0.000 HD 
HETATM   20  H1  UNL     1     -12.364  16.209  71.765  1.00  0.00     0.000 HD 
ENDBRANCH  10  17
ENDBRANCH   5   8
ENDBRANCH   2   3
TORSDOF 5
ENDMDL
MODEL      234
REMARK 921   NORMALIZED FREE ENERGY PREDICTED BY IDOCK:   -0.74 KCAL/MOL
REMARK 922        TOTAL FREE ENERGY PREDICTED BY IDOCK:   -1.45 KCAL/MOL
REMARK 923 INTER-LIGAND FREE ENERGY PREDICTED BY IDOCK:   -2.94 KCAL/MOL
REMARK 924 INTRA-LIGAND FREE ENERGY PREDICTED BY IDOCK:    1.49 KCAL/MOL
REMARK 927      BINDING AFFINITY PREDICTED BY RF-SCORE:    0.00 PKD
ROOT
HETATM    1  C   UNL     1     -11.076   5.639  69.046  1.00  0.00    -0.024 C  
HETATM    2  C   UNL     1      -9.852   6.249  68.388  1.00  0.00    -0.130 C  
ENDROOT
BRANCH   2   3
HETATM    3  N   UNL     1      -9.551   7.604  68.853  1.00  0.00    -0.150 N  
HETATM    4  O   UNL     1      -8.990   8.231  66.689  1.00  0.00    -0.135 OA 
HETATM    5  C   UNL     1      -9.101   8.514  67.879  1.00  0.00    -0.140 C  
BRANCH   3   6
HETATM    6  C   UNL     1      -9.374   7.861  70.285  1.00  0.00    -0.159 C  
HETATM    7  C   UNL     1      -9.321   6.662  71.215  1.00  0.00    -0.159 C  
ENDBRANCH   3   6
BRANCH   5   8
HETATM    8  C   UNL     1      -8.768   9.934  68.321  1.00  0.00    -0.119 C  
HETATM    9  C   UNL     1      -8.288  10.099  69.770  1.00  0.00    -0.154 C  
HETATM   10  C   UNL     1      -7.302  10.268  68.653  1.00  0.00    -0.083 C  
BRANCH   8  11
HETATM   11  C   UNL     1      -9.755  11.000  67.821  1.00  0.00    -0.183 A  
HETATM   12  C   UNL     1     -10.164  12.029  68.689  1.00  0.00    -0.189 A  
HETATM   13  C   UNL     1     -11.239  12.865  68.377  1.00  0.00    -0.305 A  
HETATM   14  C   UNL     1     -10.400  10.918  66.575  1.00  0.00    -0.299 A  
HETATM   15  C   UNL     1     -11.919  12.700  67.176  1.00  0.00    -0.326 A  
HETATM   16  C   UNL     1     -11.485  11.743  66.263  1.00  0.00    -0.296 A  
ENDBRANCH   8  11
BRANCH  10  17
HETATM   17  C   UNL     1      -6.211   9.263  68.424  1.00  0.00    -0.053 C  
HETATM   18  N   UNL     1      -5.142   9.444  69.391  1.00  0.00    -0.035 NA 
HETATM   19  H2  UNL     1      -5.489   9.415  70.350  1.00  0.00     0.000 HD 
HETATM   20  H1  UNL     1      -4.400   8.761  69.236  1.00  0.00     0.000 HD 
ENDBRANCH  10  17
ENDBRANCH   5   8
ENDBRANCH   2   3
TORSDOF 5
ENDMDL
MODEL      235
REMARK 921   NORMALIZED FREE ENERGY PREDICTED BY IDOCK:   -0.52 KCAL/MOL
REMARK 922        TOTAL FREE ENERGY PREDICTED BY IDOCK:   -1.17 KCAL/MOL
REMARK 923 INTER-LIGAND FREE ENERGY PREDICTED BY IDOCK:   -3.02 KCAL/MOL
REMARK 924 INTRA-LIGAND FREE ENERGY PREDICTED BY IDOCK:    1.85 KCAL/MOL
REMARK 927      BINDING AFFINITY PREDICTED BY RF-SCORE:    0.00 PKD
ROOT
HETATM    1  C   UNL     1      -6.184  11.450  69.145  1.00  0.00    -0.064 C  
HETATM    2  C   UNL     1      -7.408  11.634  68.266  1.00  0.00    -0.093 C  
ENDROOT
BRANCH   2   3
HETATM    3  N   UNL     1      -8.339  10.505  68.314  1.00  0.00    -0.118 N  
HETATM    4  O   UNL     1      -7.008   9.465  69.906  1.00  0.00    -0.057 OA 
HETATM    5  C   UNL     1      -8.002   9.453  69.185  1.00  0.00    -0.091 C  
BRANCH   3   6
HETATM    6  C   UNL     1      -9.333  10.334  67.251  1.00  0.00    -0.149 C  
HETATM    7  C   UNL     1      -9.034  10.958  65.900  1.00  0.00    -0.206 C  
ENDBRANCH   3   6
BRANCH   5   8
HETATM    8  C   UNL     1      -8.939   8.253  69.261  1.00  0.00    -0.147 C  
HETATM    9  C   UNL     1      -9.524   7.764  67.929  1.00  0.00    -0.158 C  
HETATM   10  C   UNL     1      -8.483   6.932  68.617  1.00  0.00    -0.121 C  
BRANCH   8  11
HETATM   11  C   UNL     1      -9.919   8.290  70.444  1.00  0.00    -0.196 A  
HETATM   12  C   UNL     1      -9.435   8.103  71.752  1.00  0.00    -0.249 A  
HETATM   13  C   UNL     1     -10.299   7.874  72.825  1.00  0.00    -0.399 A  
HETATM   14  C   UNL     1     -11.313   8.350  70.278  1.00  0.00    -0.131 A  
HETATM   15  C   UNL     1     -11.672   7.847  72.616  1.00  0.00    -0.398 A  
HETATM   16  C   UNL     1     -12.182   8.109  71.347  1.00  0.00    -0.324 A  
ENDBRANCH   8  11
BRANCH  10  17
HETATM   17  C   UNL     1      -7.103   6.789  68.044  1.00  0.00    -0.085 C  
HETATM   18  N   UNL     1      -6.369   5.746  68.740  1.00  0.00    -0.036 NA 
HETATM   19  H2  UNL     1      -6.874   4.860  68.737  1.00  0.00     0.000 HD 
HETATM   20  H1  UNL     1      -5.431   5.649  68.352  1.00  0.00     0.000 HD 
ENDBRANCH  10  17
ENDBRANCH   5   8
ENDBRANCH   2   3
TORSDOF 5
ENDMDL
MODEL      236
REMARK 921   NORMALIZED FREE ENERGY PREDICTED BY IDOCK:   -0.19 KCAL/MOL
REMARK 922        TOTAL FREE ENERGY PREDICTED BY IDOCK:   -0.74 KCAL/MOL
REMARK 923 INTER-LIGAND FREE ENERGY PREDICTED BY IDOCK:   -1.28 KCAL/MOL
REMARK 924 INTRA-LIGAND FREE ENERGY PREDICTED BY IDOCK:    0.54 KCAL/MOL
REMARK 927      BINDING AFFINITY PREDICTED BY RF-SCORE:    0.00 PKD
ROOT
HETATM    1  C   UNL     1     -12.529  13.390  68.854  1.00  0.00     0.247 C  
HETATM    2  C   UNL     1     -11.080  13.657  69.215  1.00  0.00    -0.193 C  
ENDROOT
BRANCH   2   3
HETATM    3  N   UNL     1     -10.512  14.821  68.533  1.00  0.00    -0.243 N  
HETATM    4  O   UNL     1      -8.813  13.497  67.669  1.00  0.00    -0.179 OA 
HETATM    5  C   UNL     1      -9.338  14.600  67.790  1.00  0.00    -0.197 C  
BRANCH   3   6
HETATM    6  C   UNL     1     -10.933  16.170  68.921  1.00  0.00    -0.324 C  
HETATM    7  C   UNL     1     -11.296  16.404  70.376  1.00  0.00    -0.209 C  
ENDBRANCH   3   6
BRANCH   5   8
HETATM    8  C   UNL     1      -8.707  15.787  67.070  1.00  0.00    -0.251 C  
HETATM    9  C   UNL     1      -8.287  15.552  65.613  1.00  0.00     1.614 C  
HETATM   10  C   UNL     1      -9.477  16.419  65.896  1.00  0.00    -0.289 C  
BRANCH   8  11
HETATM   11  C   UNL     1      -7.719  16.593  67.927  1.00  0.00    -0.170 A  
HETATM   12  C   UNL     1      -8.005  16.824  69.284  1.00  0.00    -0.024 A  
HETATM   13  C   UNL     1      -7.281  17.752  70.037  1.00  0.00     1.091 A  
HETATM   14  C   UNL     1      -6.601  17.251  67.385  1.00  0.00    -0.173 A  
HETATM   15  C   UNL     1      -6.238  18.458  69.448  1.00  0.00    -0.266 A  
HETATM   16  C   UNL     1      -5.881  18.191  68.129  1.00  0.00    -0.172 A  
ENDBRANCH   8  11
BRANCH  10  17
HETATM   17  C   UNL     1     -10.865  15.965  65.551  1.00  0.00    -0.315 C  
HETATM   18  N   UNL     1     -11.346  16.653  64.365  1.00  0.00    -1.225 NA 
HETATM   19  H2  UNL     1     -10.705  16.546  63.578  1.00  0.00     0.000 HD 
HETATM   20  H1  UNL     1     -12.289  16.345  64.130  1.00  0.00     0.000 HD 
ENDBRANCH  10  17
ENDBRANCH   5   8
ENDBRANCH   2   3
TORSDOF 5
ENDMDL
MODEL      237
REMARK 921   NORMALIZED FREE ENERGY PREDICTED BY IDOCK:    2.99 KCAL/MOL
REMARK 922        TOTAL FREE ENERGY PREDICTED BY IDOCK:    3.37 KCAL/MOL
REMARK 923 INTER-LIGAND FREE ENERGY PREDICTED BY IDOCK:   -2.73 KCAL/MOL
REMARK 924 INTRA-LIGAND FREE ENERGY PREDICTED BY IDOCK:    6.10 KCAL/MOL
REMARK 927      BINDING AFFINITY PREDICTED BY RF-SCORE:    0.00 PKD
ROOT
HETATM    1  C   UNL     1     -11.456  16.405  68.124  1.00  0.00    -0.108 C  
HETATM    2  C   UNL     1     -10.539  15.490  68.914  1.00  0.00    -0.240 C  
ENDROOT
BRANCH   2   3
HETATM    3  N   UNL     1     -11.250  14.440  69.647  1.00  0.00    -0.249 N  
HETATM    4  O   UNL     1     -11.451  15.847  71.483  1.00  0.00    -0.402 OA 
HETATM    5  C   UNL     1     -11.644  14.752  70.961  1.00  0.00    -0.265 C  
BRANCH   3   6
HETATM    6  C   UNL     1     -11.203  13.057  69.167  1.00  0.00    -0.241 C  
HETATM    7  C   UNL     1     -11.005  12.833  67.678  1.00  0.00    -0.274 C  
ENDBRANCH   3   6
BRANCH   5   8
HETATM    8  C   UNL     1     -12.379  13.685  71.764  1.00  0.00    -0.094 C  
HETATM    9  C   UNL     1     -12.468  13.917  73.279  1.00  0.00     0.478 C  
HETATM   10  C   UNL     1     -13.705  14.072  72.445  1.00  0.00    -0.669 C  
BRANCH   8  11
HETATM   11  C   UNL     1     -12.075  12.244  71.328  1.00  0.00     0.266 A  
HETATM   12  C   UNL     1     -12.849  11.186  71.838  1.00  0.00    -0.400 A  
HETATM   13  C   UNL     1     -12.462   9.853  71.679  1.00  0.00    -0.507 A  
HETATM   14  C   UNL     1     -10.952  11.902  70.555  1.00  0.00     1.461 A  
HETATM   15  C   UNL     1     -11.295   9.549  70.988  1.00  0.00    -0.423 A  
HETATM   16  C   UNL     1     -10.552  10.571  70.404  1.00  0.00     0.027 A  
ENDBRANCH   8  11
BRANCH  10  17
HETATM   17  C   UNL     1     -14.323  15.421  72.220  1.00  0.00    -0.483 C  
HETATM   18  N   UNL     1     -13.958  16.333  73.290  1.00  0.00    -0.606 NA 
HETATM   19  H2  UNL     1     -12.947  16.394  73.407  1.00  0.00     0.000 HD 
HETATM   20  H1  UNL     1     -14.379  17.250  73.137  1.00  0.00     0.000 HD 
ENDBRANCH  10  17
ENDBRANCH   5   8
ENDBRANCH   2   3
TORSDOF 5
ENDMDL
MODEL      238
REMARK 921   NORMALIZED FREE ENERGY PREDICTED BY IDOCK:    3.18 KCAL/MOL
REMARK 922        TOTAL FREE ENERGY PREDICTED BY IDOCK:    3.62 KCAL/MOL
REMARK 923 INTER-LIGAND FREE ENERGY PREDICTED BY IDOCK:    0.78 KCAL/MOL
REMARK 924 INTRA-LIGAND FREE ENERGY PREDICTED BY IDOCK:    2.83 KCAL/MOL
REMARK 927      BINDING AFFINITY PREDICTED BY RF-SCORE:    0.00 PKD
ROOT
HETATM    1  C   UNL     1      -5.216  14.237  70.691  1.00  0.00    -0.116 C  
HETATM    2  C   UNL     1      -6.609  14.761  70.987  1.00  0.00     0.451 C  
ENDROOT
BRANCH   2   3
HETATM    3  N   UNL     1      -7.484  14.794  69.814  1.00  0.00    -0.096 N  
HETATM    4  O   UNL     1      -8.369  16.820  70.519  1.00  0.00     2.640 OA 
HETATM    5  C   UNL     1      -8.349  15.898  69.708  1.00  0.00     0.236 C  
BRANCH   3   6
HETATM    6  C   UNL     1      -7.696  13.574  69.029  1.00  0.00     0.118 C  
HETATM    7  C   UNL     1      -6.975  13.459  67.698  1.00  0.00    -0.168 C  
ENDBRANCH   3   6
BRANCH   5   8
HETATM    8  C   UNL     1      -9.284  15.968  68.506  1.00  0.00    -0.206 C  
HETATM    9  C   UNL     1      -9.343  14.717  67.619  1.00  0.00    -0.200 C  
HETATM   10  C   UNL     1     -10.518  15.047  68.490  1.00  0.00    -0.232 C  
BRANCH   8  11
HETATM   11  C   UNL     1      -9.258  17.311  67.762  1.00  0.00    -0.239 A  
HETATM   12  C   UNL     1      -9.004  17.333  66.378  1.00  0.00    -0.282 A  
HETATM   13  C   UNL     1      -8.719  18.524  65.706  1.00  0.00     0.424 A  
HETATM   14  C   UNL     1      -9.323  18.550  68.422  1.00  0.00    -0.359 A  
HETATM   15  C   UNL     1      -8.699  19.726  66.404  1.00  0.00    -0.412 A  
HETATM   16  C   UNL     1      -9.025  19.744  67.757  1.00  0.00    -0.396 A  
ENDBRANCH   8  11
BRANCH  10  17
HETATM   17  C   UNL     1     -10.863  14.199  69.679  1.00  0.00    -0.019 C  
HETATM   18  N   UNL     1     -11.317  12.886  69.253  1.00  0.00    -0.360 NA 
HETATM   19  H2  UNL     1     -10.637  12.428  68.646  1.00  0.00     0.000 HD 
HETATM   20  H1  UNL     1     -11.552  12.309  70.061  1.00  0.00     0.000 HD 
ENDBRANCH  10  17
ENDBRANCH   5   8
ENDBRANCH   2   3
TORSDOF 5
ENDMDL
MODEL      239
REMARK 921   NORMALIZED FREE ENERGY PREDICTED BY IDOCK:    4.01 KCAL/MOL
REMARK 922        TOTAL FREE ENERGY PREDICTED BY IDOCK:    4.70 KCAL/MOL
REMARK 923 INTER-LIGAND FREE ENERGY PREDICTED BY IDOCK:    4.23 KCAL/MOL
REMARK 924 INTRA-LIGAND FREE ENERGY PREDICTED BY IDOCK:    0.47 KCAL/MOL
REMARK 927      BINDING AFFINITY PREDICTED BY RF-SCORE:    0.00 PKD
ROOT
HETATM    1  C   UNL     1     -11.644   9.012  65.866  1.00  0.00     5.306 C  
HETATM    2  C   UNL     1     -10.956   8.839  67.208  1.00  0.00     0.181 C  
ENDROOT
BRANCH   2   3
HETATM    3  N   UNL     1      -9.495   8.799  67.116  1.00  0.00    -0.155 N  
HETATM    4  O   UNL     1      -9.621   6.883  65.811  1.00  0.00     0.162 OA 
HETATM    5  C   UNL     1      -8.943   7.731  66.384  1.00  0.00    -0.163 C  
BRANCH   3   6
HETATM    6  C   UNL     1      -8.685   9.598  68.039  1.00  0.00    -0.119 C  
HETATM    7  C   UNL     1      -8.561  11.086  67.762  1.00  0.00    -0.130 C  
ENDBRANCH   3   6
BRANCH   5   8
HETATM    8  C   UNL     1      -7.426   7.646  66.270  1.00  0.00    -0.083 C  
HETATM    9  C   UNL     1      -6.639   7.763  67.582  1.00  0.00    -0.063 C  
HETATM   10  C   UNL     1      -6.716   6.432  66.896  1.00  0.00    -0.060 C  
BRANCH   8  11
HETATM   11  C   UNL     1      -6.838   8.407  65.072  1.00  0.00    -0.067 A  
HETATM   12  C   UNL     1      -6.577   7.719  63.873  1.00  0.00    -0.061 A  
HETATM   13  C   UNL     1      -5.817   8.294  62.850  1.00  0.00    -0.074 A  
HETATM   14  C   UNL     1      -6.399   9.740  65.156  1.00  0.00    -0.094 A  
HETATM   15  C   UNL     1      -5.316   9.582  63.000  1.00  0.00    -0.078 A  
HETATM   16  C   UNL     1      -5.627  10.315  64.142  1.00  0.00    -0.140 A  
ENDBRANCH   8  11
BRANCH  10  17
HETATM   17  C   UNL     1      -7.503   5.299  67.488  1.00  0.00    -0.084 C  
HETATM   18  N   UNL     1      -7.024   4.991  68.825  1.00  0.00    -0.051 NA 
HETATM   19  H2  UNL     1      -7.030   5.814  69.428  1.00  0.00     0.000 HD 
HETATM   20  H1  UNL     1      -7.559   4.221  69.227  1.00  0.00     0.000 HD 
ENDBRANCH  10  17
ENDBRANCH   5   8
ENDBRANCH   2   3
TORSDOF 5
ENDMDL
MODEL      240
REMARK 921   NORMALIZED FREE ENERGY PREDICTED BY IDOCK:    4.79 KCAL/MOL
REMARK 922        TOTAL FREE ENERGY PREDICTED BY IDOCK:    5.69 KCAL/MOL
REMARK 923 INTER-LIGAND FREE ENERGY PREDICTED BY IDOCK:    4.14 KCAL/MOL
REMARK 924 INTRA-LIGAND FREE ENERGY PREDICTED BY IDOCK:    1.55 KCAL/MOL
REMARK 927      BINDING AFFINITY PREDICTED BY RF-SCORE:    0.00 PKD
ROOT
HETATM    1  C   UNL     1     -10.738   9.213  66.937  1.00  0.00    -0.149 C  
HETATM    2  C   UNL     1     -10.945   9.551  68.402  1.00  0.00    -0.069 C  
ENDROOT
BRANCH   2   3
HETATM    3  N   UNL     1     -10.116  10.663  68.869  1.00  0.00    -0.193 N  
HETATM    4  O   UNL     1      -8.199   9.483  68.304  1.00  0.00    -0.111 OA 
HETATM    5  C   UNL     1      -8.724  10.487  68.778  1.00  0.00    -0.154 C  
BRANCH   3   6
HETATM    6  C   UNL     1     -10.705  11.707  69.713  1.00  0.00     0.298 C  
HETATM    7  C   UNL     1     -11.462  11.267  70.953  1.00  0.00     0.435 C  
ENDBRANCH   3   6
BRANCH   5   8
HETATM    8  C   UNL     1      -7.822  11.617  69.261  1.00  0.00     0.213 C  
HETATM    9  C   UNL     1      -7.699  11.784  70.782  1.00  0.00     4.808 C  
HETATM   10  C   UNL     1      -6.530  11.247  70.012  1.00  0.00    -0.114 C  
BRANCH   8  11
HETATM   11  C   UNL     1      -7.955  12.920  68.457  1.00  0.00    -0.095 A  
HETATM   12  C   UNL     1      -9.006  13.061  67.533  1.00  0.00    -0.193 A  
HETATM   13  C   UNL     1      -9.028  14.103  66.604  1.00  0.00    -0.193 A  
HETATM   14  C   UNL     1      -6.983  13.935  68.484  1.00  0.00    -0.101 A  
HETATM   15  C   UNL     1      -8.003  15.042  66.592  1.00  0.00     0.164 A  
HETATM   16  C   UNL     1      -6.992  14.973  67.547  1.00  0.00    -0.214 A  
ENDBRANCH   8  11
BRANCH  10  17
HETATM   17  C   UNL     1      -6.102   9.815  70.151  1.00  0.00    -0.058 C  
HETATM   18  N   UNL     1      -5.810   9.504  71.540  1.00  0.00    -0.133 NA 
HETATM   19  H2  UNL     1      -6.595   9.727  72.152  1.00  0.00     0.000 HD 
HETATM   20  H1  UNL     1      -5.519   8.531  71.635  1.00  0.00     0.000 HD 
ENDBRANCH  10  17
ENDBRANCH   5   8
ENDBRANCH   2   3
TORSDOF 5
ENDMDL
MODEL      241
REMARK 921   NORMALIZED FREE ENERGY PREDICTED BY IDOCK:    5.13 KCAL/MOL
REMARK 922        TOTAL FREE ENERGY PREDICTED BY IDOCK:    6.14 KCAL/MOL
REMARK 923 INTER-LIGAND FREE ENERGY PREDICTED BY IDOCK:    3.67 KCAL/MOL
REMARK 924 INTRA-LIGAND FREE ENERGY PREDICTED BY IDOCK:    2.47 KCAL/MOL
REMARK 927      BINDING AFFINITY PREDICTED BY RF-SCORE:    0.00 PKD
ROOT
HETATM    1  C   UNL     1      -6.064  11.432  69.139  1.00  0.00    -0.055 C  
HETATM    2  C   UNL     1      -6.968  11.770  67.968  1.00  0.00    -0.076 C  
ENDROOT
BRANCH   2   3
HETATM    3  N   UNL     1      -8.039  10.794  67.754  1.00  0.00    -0.110 N  
HETATM    4  O   UNL     1      -7.773  10.992  65.457  1.00  0.00    -0.012 OA 
HETATM    5  C   UNL     1      -8.361  10.501  66.416  1.00  0.00    -0.145 C  
BRANCH   3   6
HETATM    6  C   UNL     1      -8.944  10.452  68.855  1.00  0.00    -0.169 C  
HETATM    7  C   UNL     1      -9.007  11.404  70.037  1.00  0.00     2.070 C  
ENDBRANCH   3   6
BRANCH   5   8
HETATM    8  C   UNL     1      -9.476   9.497  66.148  1.00  0.00    -0.281 C  
HETATM    9  C   UNL     1     -10.206   8.948  67.382  1.00  0.00    -0.313 C  
HETATM   10  C   UNL     1     -10.922   9.909  66.479  1.00  0.00     0.148 C  
BRANCH   8  11
HETATM   11  C   UNL     1      -9.150   8.468  65.055  1.00  0.00     0.095 A  
HETATM   12  C   UNL     1      -8.874   8.907  63.748  1.00  0.00     0.055 A  
HETATM   13  C   UNL     1      -8.823   8.017  62.672  1.00  0.00     0.409 A  
HETATM   14  C   UNL     1      -9.261   7.081  65.256  1.00  0.00     0.532 A  
HETATM   15  C   UNL     1      -9.030   6.659  62.886  1.00  0.00     0.912 A  
HETATM   16  C   UNL     1      -9.225   6.187  64.181  1.00  0.00     1.137 A  
ENDBRANCH   8  11
BRANCH  10  17
HETATM   17  C   UNL     1     -11.242  11.304  66.931  1.00  0.00    -0.230 C  
HETATM   18  N   UNL     1     -12.170  11.937  66.009  1.00  0.00    -0.299 NA 
HETATM   19  H2  UNL     1     -13.013  11.378  65.877  1.00  0.00     0.000 HD 
HETATM   20  H1  UNL     1     -12.387  12.885  66.316  1.00  0.00     0.000 HD 
ENDBRANCH  10  17
ENDBRANCH   5   8
ENDBRANCH   2   3
TORSDOF 5
ENDMDL
MODEL      242
REMARK 921   NORMALIZED FREE ENERGY PREDICTED BY IDOCK:    5.67 KCAL/MOL
REMARK 922        TOTAL FREE ENERGY PREDICTED BY IDOCK:    6.83 KCAL/MOL
REMARK 923 INTER-LIGAND FREE ENERGY PREDICTED BY IDOCK:    6.52 KCAL/MOL
REMARK 924 INTRA-LIGAND FREE ENERGY PREDICTED BY IDOCK:    0.31 KCAL/MOL
REMARK 927      BINDING AFFINITY PREDICTED BY RF-SCORE:    0.00 PKD
ROOT
HETATM    1  C   UNL     1      -6.378  13.267  70.369  1.00  0.00     0.125 C  
HETATM    2  C   UNL     1      -6.960  12.425  69.248  1.00  0.00     0.021 C  
ENDROOT
BRANCH   2   3
HETATM    3  N   UNL     1      -8.318  12.816  68.867  1.00  0.00     0.173 N  
HETATM    4  O   UNL     1      -9.106  10.725  69.495  1.00  0.00    -0.048 OA 
HETATM    5  C   UNL     1      -9.319  11.841  69.029  1.00  0.00     0.213 C  
BRANCH   3   6
HETATM    6  C   UNL     1      -8.527  14.000  68.029  1.00  0.00    -0.171 C  
HETATM    7  C   UNL     1      -8.915  15.295  68.722  1.00  0.00    -0.200 C  
ENDBRANCH   3   6
BRANCH   5   8
HETATM    8  C   UNL     1     -10.747  12.203  68.636  1.00  0.00    -0.261 C  
HETATM    9  C   UNL     1     -10.930  12.829  67.247  1.00  0.00    -0.294 C  
HETATM   10  C   UNL     1     -11.403  11.425  67.481  1.00  0.00    -0.362 C  
BRANCH   8  11
HETATM   11  C   UNL     1     -11.572  12.837  69.766  1.00  0.00    -0.288 A  
HETATM   12  C   UNL     1     -11.166  12.665  71.103  1.00  0.00     2.826 A  
HETATM   13  C   UNL     1     -12.004  12.996  72.170  1.00  0.00     1.734 A  
HETATM   14  C   UNL     1     -12.811  13.461  69.548  1.00  0.00     0.690 A  
HETATM   15  C   UNL     1     -13.265  13.527  71.922  1.00  0.00    -0.510 A  
HETATM   16  C   UNL     1     -13.661  13.783  70.612  1.00  0.00     0.408 A  
ENDBRANCH   8  11
BRANCH  10  17
HETATM   17  C   UNL     1     -10.707  10.257  66.844  1.00  0.00    -0.184 C  
HETATM   18  N   UNL     1     -11.674   9.262  66.414  1.00  0.00     2.650 NA 
HETATM   19  H2  UNL     1     -12.383   9.662  65.799  1.00  0.00     0.000 HD 
HETATM   20  H1  UNL     1     -11.202   8.468  65.981  1.00  0.00     0.000 HD 
ENDBRANCH  10  17
ENDBRANCH   5   8
ENDBRANCH   2   3
TORSDOF 5
ENDMDL
MODEL      243
REMARK 921   NORMALIZED FREE ENERGY PREDICTED BY IDOCK:    7.17 KCAL/MOL
REMARK 922        TOTAL FREE ENERGY PREDICTED BY IDOCK:    8.78 KCAL/MOL
REMARK 923 INTER-LIGAND FREE ENERGY PREDICTED BY IDOCK:    8.11 KCAL/MOL
REMARK 924 INTRA-LIGAND FREE ENERGY PREDICTED BY IDOCK:    0.67 KCAL/MOL
REMARK 927      BINDING AFFINITY PREDICTED BY RF-SCORE:    0.00 PKD
ROOT
HETATM    1  C   UNL     1      -5.757  14.071  71.478  1.00  0.00    -0.226 C  
HETATM    2  C   UNL     1      -7.006  14.873  71.793  1.00  0.00     2.092 C  
ENDROOT
BRANCH   2   3
HETATM    3  N   UNL     1      -7.254  15.964  70.849  1.00  0.00     1.871 N  
HETATM    4  O   UNL     1      -5.149  16.836  71.289  1.00  0.00    -0.307 OA 
HETATM    5  C   UNL     1      -6.224  16.911  70.701  1.00  0.00     0.764 C  
BRANCH   3   6
HETATM    6  C   UNL     1      -8.621  16.239  70.396  1.00  0.00     2.217 C  
HETATM    7  C   UNL     1      -9.508  15.051  70.071  1.00  0.00     0.258 C  
ENDBRANCH   3   6
BRANCH   5   8
HETATM    8  C   UNL     1      -6.444  18.069  69.735  1.00  0.00    -0.054 C  
HETATM    9  C   UNL     1      -7.653  18.970  70.020  1.00  0.00     0.779 C  
HETATM   10  C   UNL     1      -6.274  19.503  70.268  1.00  0.00    -0.227 C  
BRANCH   8  11
HETATM   11  C   UNL     1      -6.212  17.713  68.259  1.00  0.00    -0.177 A  
HETATM   12  C   UNL     1      -7.109  18.182  67.282  1.00  0.00    -0.208 A  
HETATM   13  C   UNL     1      -7.094  17.686  65.976  1.00  0.00    -0.318 A  
HETATM   14  C   UNL     1      -5.223  16.806  67.839  1.00  0.00    -0.128 A  
HETATM   15  C   UNL     1      -6.164  16.720  65.613  1.00  0.00     1.805 A  
HETATM   16  C   UNL     1      -5.212  16.296  66.537  1.00  0.00     0.733 A  
ENDBRANCH   8  11
BRANCH  10  17
HETATM   17  C   UNL     1      -5.780  19.754  71.663  1.00  0.00    -0.314 C  
HETATM   18  N   UNL     1      -5.337  21.131  71.806  1.00  0.00    -0.450 NA 
HETATM   19  H2  UNL     1      -6.064  21.793  71.536  1.00  0.00     0.000 HD 
HETATM   20  H1  UNL     1      -5.001  21.302  72.754  1.00  0.00     0.000 HD 
ENDBRANCH  10  17
ENDBRANCH   5   8
ENDBRANCH   2   3
TORSDOF 5
ENDMDL
MODEL      244
REMARK 921   NORMALIZED FREE ENERGY PREDICTED BY IDOCK:    7.81 KCAL/MOL
REMARK 922        TOTAL FREE ENERGY PREDICTED BY IDOCK:    9.60 KCAL/MOL
REMARK 923 INTER-LIGAND FREE ENERGY PREDICTED BY IDOCK:    6.20 KCAL/MOL
REMARK 924 INTRA-LIGAND FREE ENERGY PREDICTED BY IDOCK:    3.40 KCAL/MOL
REMARK 927      BINDING AFFINITY PREDICTED BY RF-SCORE:    0.00 PKD
ROOT
HETATM    1  C   UNL     1      -6.370  12.206  72.260  1.00  0.00     3.976 C  
HETATM    2  C   UNL     1      -6.034  10.754  72.543  1.00  0.00     1.622 C  
ENDROOT
BRANCH   2   3
HETATM    3  N   UNL     1      -6.261   9.867  71.401  1.00  0.00     0.069 N  
HETATM    4  O   UNL     1      -8.555  10.130  71.642  1.00  0.00     1.774 OA 
HETATM    5  C   UNL     1      -7.603   9.618  71.059  1.00  0.00     0.226 C  
BRANCH   3   6
HETATM    6  C   UNL     1      -5.173   9.016  70.912  1.00  0.00    -0.028 C  
HETATM    7  C   UNL     1      -5.146   8.689  69.429  1.00  0.00    -0.031 C  
ENDBRANCH   3   6
BRANCH   5   8
HETATM    8  C   UNL     1      -7.886   8.693  69.881  1.00  0.00    -0.093 C  
HETATM    9  C   UNL     1      -7.409   7.242  70.028  1.00  0.00    -0.083 C  
HETATM   10  C   UNL     1      -8.879   7.535  70.087  1.00  0.00    -0.147 C  
BRANCH   8  11
HETATM   11  C   UNL     1      -7.653   9.334  68.504  1.00  0.00    -0.085 A  
HETATM   12  C   UNL     1      -7.642  10.735  68.383  1.00  0.00    -0.102 A  
HETATM   13  C   UNL     1      -7.689  11.363  67.136  1.00  0.00    -0.152 A  
HETATM   14  C   UNL     1      -7.601   8.587  67.315  1.00  0.00    -0.097 A  
HETATM   15  C   UNL     1      -7.731  10.597  65.977  1.00  0.00    -0.151 A  
HETATM   16  C   UNL     1      -7.663   9.209  66.063  1.00  0.00    -0.095 A  
ENDBRANCH   8  11
BRANCH  10  17
HETATM   17  C   UNL     1      -9.645   7.395  71.370  1.00  0.00    -0.159 C  
HETATM   18  N   UNL     1     -10.924   6.748  71.131  1.00  0.00    -0.248 NA 
HETATM   19  H2  UNL     1     -10.812   5.852  70.657  1.00  0.00     0.000 HD 
HETATM   20  H1  UNL     1     -11.445   6.654  72.003  1.00  0.00     0.000 HD 
ENDBRANCH  10  17
ENDBRANCH   5   8
ENDBRANCH   2   3
TORSDOF 5
ENDMDL
