MODEL        1
REMARK 921   NORMALIZED FREE ENERGY PREDICTED BY IDOCK:   -6.97 KCAL/MOL
REMARK 922        TOTAL FREE ENERGY PREDICTED BY IDOCK:   -9.74 KCAL/MOL
REMARK 923 INTER-LIGAND FREE ENERGY PREDICTED BY IDOCK:   -9.01 KCAL/MOL
REMARK 924 INTRA-LIGAND FREE ENERGY PREDICTED BY IDOCK:   -0.73 KCAL/MOL
REMARK 927      BINDING AFFINITY PREDICTED BY RF-SCORE:    0.00 PKD
ROOT
HETATM    1  C   UNL     1      -8.232  18.646  66.670  1.00  0.00    -0.289 C  
HETATM    2  C   UNL     1      -9.768  18.622  66.768  1.00  0.00    -0.329 C  
HETATM    3  C   UNL     1     -10.280  20.066  66.577  1.00  0.00    -0.598 C  
HETATM    4  C   UNL     1     -10.207  18.136  68.158  1.00  0.00    -0.400 C  
HETATM    5  N   UNL     1     -10.373  17.810  65.690  1.00  0.00    -0.635 NA 
HETATM    6  H   UNL     1     -10.173  18.228  64.781  1.00  0.00     0.000 HD 
ENDROOT
BRANCH   5   7
HETATM    7  C   UNL     1      -9.992  16.390  65.688  1.00  0.00    -0.238 C  
BRANCH   7   8
HETATM    8  C   UNL     1     -10.912  15.477  64.851  1.00  0.00    -0.436 C  
HETATM    9  O   UNL     1     -11.637  16.302  63.926  1.00  0.00    -1.489 OA 
HETATM   10  H   UNL     1     -12.204  15.740  63.410  1.00  0.00     0.000 HD 
BRANCH   8  11
HETATM   11  C   UNL     1     -11.910  14.710  65.723  1.00  0.00    -0.274 C  
BRANCH  11  12
HETATM   12  O   UNL     1     -11.585  14.932  67.104  1.00  0.00    -0.362 OA 
BRANCH  12  13
HETATM   13  C   UNL     1     -11.728  13.819  67.897  1.00  0.00    -0.360 A  
HETATM   14  C   UNL     1     -11.435  12.524  67.447  1.00  0.00    -0.404 A  
HETATM   15  C   UNL     1     -11.654  11.422  68.270  1.00  0.00    -0.376 A  
HETATM   16  C   UNL     1     -12.129  11.614  69.564  1.00  0.00    -0.336 A  
HETATM   17  C   UNL     1     -12.363  12.909  70.041  1.00  0.00    -0.199 A  
HETATM   18  C   UNL     1     -12.177  14.030  69.212  1.00  0.00    -0.319 A  
HETATM   19  C   UNL     1     -12.410  15.431  69.728  1.00  0.00    -0.288 C  
HETATM   20  C   UNL     1     -13.306  15.460  70.960  1.00  0.00    -0.545 C  
HETATM   21  C   UNL     1     -12.815  14.481  72.010  1.00  0.00    -0.409 C  
HETATM   22  C   UNL     1     -12.793  13.077  71.453  1.00  0.00    -0.292 C  
HETATM   23  O   UNL     1     -13.054  12.101  72.150  1.00  0.00    -0.434 OA 
ENDBRANCH  12  13
ENDBRANCH  11  12
ENDBRANCH   8  11
ENDBRANCH   7   8
ENDBRANCH   5   7
TORSDOF 5
ENDMDL
MODEL        2
REMARK 921   NORMALIZED FREE ENERGY PREDICTED BY IDOCK:   -6.67 KCAL/MOL
REMARK 922        TOTAL FREE ENERGY PREDICTED BY IDOCK:   -9.36 KCAL/MOL
REMARK 923 INTER-LIGAND FREE ENERGY PREDICTED BY IDOCK:   -8.69 KCAL/MOL
REMARK 924 INTRA-LIGAND FREE ENERGY PREDICTED BY IDOCK:   -0.67 KCAL/MOL
REMARK 927      BINDING AFFINITY PREDICTED BY RF-SCORE:    0.00 PKD
ROOT
HETATM    1  C   UNL     1     -10.089   5.350  69.653  1.00  0.00    -0.319 C  
HETATM    2  C   UNL     1     -10.808   6.636  69.209  1.00  0.00    -0.289 C  
HETATM    3  C   UNL     1     -11.034   6.552  67.685  1.00  0.00    -0.426 C  
HETATM    4  C   UNL     1      -9.933   7.864  69.499  1.00  0.00    -0.189 C  
HETATM    5  N   UNL     1     -12.144   6.758  69.832  1.00  0.00    -0.625 NA 
HETATM    6  H   UNL     1     -12.748   5.998  69.521  1.00  0.00     0.000 HD 
ENDROOT
BRANCH   5   7
HETATM    7  C   UNL     1     -12.145   6.837  71.301  1.00  0.00    -0.370 C  
BRANCH   7   8
HETATM    8  C   UNL     1     -13.016   7.968  71.884  1.00  0.00    -0.312 C  
HETATM    9  O   UNL     1     -14.119   8.189  70.992  1.00  0.00    -0.618 OA 
HETATM   10  H   UNL     1     -14.656   8.886  71.352  1.00  0.00     0.000 HD 
BRANCH   8  11
HETATM   11  C   UNL     1     -12.234   9.275  72.042  1.00  0.00    -0.348 C  
BRANCH  11  12
HETATM   12  O   UNL     1     -13.118  10.378  71.788  1.00  0.00    -0.420 OA 
BRANCH  12  13
HETATM   13  C   UNL     1     -12.628  11.289  70.883  1.00  0.00    -0.371 A  
HETATM   14  C   UNL     1     -12.005  10.909  69.686  1.00  0.00    -0.414 A  
HETATM   15  C   UNL     1     -11.472  11.869  68.830  1.00  0.00    -0.358 A  
HETATM   16  C   UNL     1     -11.596  13.218  69.147  1.00  0.00    -0.370 A  
HETATM   17  C   UNL     1     -12.272  13.607  70.309  1.00  0.00    -0.423 A  
HETATM   18  C   UNL     1     -12.790  12.648  71.200  1.00  0.00    -0.311 A  
HETATM   19  C   UNL     1     -13.538  13.062  72.445  1.00  0.00    -0.628 C  
HETATM   20  C   UNL     1     -13.226  14.493  72.868  1.00  0.00    -0.612 C  
HETATM   21  C   UNL     1     -13.380  15.449  71.699  1.00  0.00    -0.578 C  
HETATM   22  C   UNL     1     -12.454  15.057  70.573  1.00  0.00    -0.371 C  
HETATM   23  O   UNL     1     -11.920  15.896  69.854  1.00  0.00    -0.334 OA 
ENDBRANCH  12  13
ENDBRANCH  11  12
ENDBRANCH   8  11
ENDBRANCH   7   8
ENDBRANCH   5   7
TORSDOF 5
ENDMDL
MODEL        3
REMARK 921   NORMALIZED FREE ENERGY PREDICTED BY IDOCK:   -6.43 KCAL/MOL
REMARK 922        TOTAL FREE ENERGY PREDICTED BY IDOCK:   -9.05 KCAL/MOL
REMARK 923 INTER-LIGAND FREE ENERGY PREDICTED BY IDOCK:   -8.50 KCAL/MOL
REMARK 924 INTRA-LIGAND FREE ENERGY PREDICTED BY IDOCK:   -0.55 KCAL/MOL
REMARK 927      BINDING AFFINITY PREDICTED BY RF-SCORE:    0.00 PKD
ROOT
HETATM    1  C   UNL     1      -8.389  18.126  66.483  1.00  0.00    -0.288 C  
HETATM    2  C   UNL     1      -9.919  18.275  66.547  1.00  0.00    -0.373 C  
HETATM    3  C   UNL     1     -10.262  19.764  66.329  1.00  0.00    -0.615 C  
HETATM    4  C   UNL     1     -10.439  17.859  67.931  1.00  0.00    -0.404 C  
HETATM    5  N   UNL     1     -10.588  17.521  65.464  1.00  0.00    -0.610 NA 
HETATM    6  H   UNL     1     -10.324  17.902  64.556  1.00  0.00     0.000 HD 
ENDROOT
BRANCH   5   7
HETATM    7  C   UNL     1     -10.368  16.067  65.486  1.00  0.00    -0.390 C  
BRANCH   7   8
HETATM    8  C   UNL     1     -11.380  15.251  64.656  1.00  0.00    -0.358 C  
HETATM    9  O   UNL     1     -12.069  16.153  63.777  1.00  0.00    -1.355 OA 
HETATM   10  H   UNL     1     -12.692  15.650  63.266  1.00  0.00     0.000 HD 
BRANCH   8  11
HETATM   11  C   UNL     1     -12.406  14.535  65.540  1.00  0.00    -0.267 C  
BRANCH  11  12
HETATM   12  O   UNL     1     -12.550  13.182  65.080  1.00  0.00    -0.497 OA 
BRANCH  12  13
HETATM   13  C   UNL     1     -11.719  12.287  65.711  1.00  0.00    -0.385 A  
HETATM   14  C   UNL     1     -11.729  12.092  67.099  1.00  0.00    -0.372 A  
HETATM   15  C   UNL     1     -10.826  11.217  67.697  1.00  0.00    -0.286 A  
HETATM   16  C   UNL     1      -9.935  10.500  66.904  1.00  0.00    -0.246 A  
HETATM   17  C   UNL     1      -9.963  10.643  65.512  1.00  0.00    -0.333 A  
HETATM   18  C   UNL     1     -10.848  11.546  64.896  1.00  0.00    -0.345 A  
HETATM   19  C   UNL     1     -10.895  11.690  63.392  1.00  0.00    -0.453 C  
HETATM   20  C   UNL     1      -9.623  11.194  62.715  1.00  0.00    -0.334 C  
HETATM   21  C   UNL     1      -9.260   9.802  63.199  1.00  0.00    -0.221 C  
HETATM   22  C   UNL     1      -9.051   9.802  64.695  1.00  0.00    -0.245 C  
HETATM   23  O   UNL     1      -8.209   9.087  65.230  1.00  0.00    -0.122 OA 
ENDBRANCH  12  13
ENDBRANCH  11  12
ENDBRANCH   8  11
ENDBRANCH   7   8
ENDBRANCH   5   7
TORSDOF 5
ENDMDL
MODEL        4
REMARK 921   NORMALIZED FREE ENERGY PREDICTED BY IDOCK:   -6.41 KCAL/MOL
REMARK 922        TOTAL FREE ENERGY PREDICTED BY IDOCK:   -9.02 KCAL/MOL
REMARK 923 INTER-LIGAND FREE ENERGY PREDICTED BY IDOCK:   -8.36 KCAL/MOL
REMARK 924 INTRA-LIGAND FREE ENERGY PREDICTED BY IDOCK:   -0.66 KCAL/MOL
REMARK 927      BINDING AFFINITY PREDICTED BY RF-SCORE:    0.00 PKD
ROOT
HETATM    1  C   UNL     1     -12.255  12.081  63.479  1.00  0.00    -0.653 C  
HETATM    2  C   UNL     1     -10.828  12.128  64.054  1.00  0.00    -0.383 C  
HETATM    3  C   UNL     1      -9.928  11.242  63.167  1.00  0.00    -0.398 C  
HETATM    4  C   UNL     1     -10.808  11.558  65.480  1.00  0.00    -0.313 C  
HETATM    5  N   UNL     1     -10.263  13.494  64.004  1.00  0.00    -0.713 NA 
HETATM    6  H   UNL     1     -10.167  13.799  63.036  1.00  0.00     0.000 HD 
ENDROOT
BRANCH   5   7
HETATM    7  C   UNL     1     -10.996  14.503  64.783  1.00  0.00    -0.391 C  
BRANCH   7   8
HETATM    8  C   UNL     1     -10.131  15.299  65.782  1.00  0.00    -0.356 C  
HETATM    9  O   UNL     1      -8.941  14.539  66.047  1.00  0.00    -0.488 OA 
HETATM   10  H   UNL     1      -8.408  15.030  66.662  1.00  0.00     0.000 HD 
BRANCH   8  11
HETATM   11  C   UNL     1     -10.863  15.554  67.102  1.00  0.00    -0.316 C  
BRANCH  11  12
HETATM   12  O   UNL     1     -10.568  14.482  68.011  1.00  0.00    -0.233 OA 
BRANCH  12  13
HETATM   13  C   UNL     1     -11.381  14.450  69.119  1.00  0.00    -0.277 A  
HETATM   14  C   UNL     1     -11.898  15.609  69.714  1.00  0.00    -0.376 A  
HETATM   15  C   UNL     1     -12.668  15.527  70.871  1.00  0.00    -0.525 A  
HETATM   16  C   UNL     1     -12.960  14.280  71.416  1.00  0.00    -0.411 A  
HETATM   17  C   UNL     1     -12.500  13.116  70.791  1.00  0.00    -0.389 A  
HETATM   18  C   UNL     1     -11.695  13.183  69.639  1.00  0.00    -0.370 A  
HETATM   19  C   UNL     1     -11.212  11.929  68.949  1.00  0.00    -0.310 C  
HETATM   20  C   UNL     1     -11.238  10.709  69.863  1.00  0.00    -0.378 C  
HETATM   21  C   UNL     1     -12.590  10.570  70.540  1.00  0.00    -0.423 C  
HETATM   22  C   UNL     1     -12.899  11.802  71.357  1.00  0.00    -0.335 C  
HETATM   23  O   UNL     1     -13.516  11.737  72.415  1.00  0.00    -0.326 OA 
ENDBRANCH  12  13
ENDBRANCH  11  12
ENDBRANCH   8  11
ENDBRANCH   7   8
ENDBRANCH   5   7
TORSDOF 5
ENDMDL
MODEL        5
REMARK 921   NORMALIZED FREE ENERGY PREDICTED BY IDOCK:   -6.41 KCAL/MOL
REMARK 922        TOTAL FREE ENERGY PREDICTED BY IDOCK:   -9.02 KCAL/MOL
REMARK 923 INTER-LIGAND FREE ENERGY PREDICTED BY IDOCK:   -8.13 KCAL/MOL
REMARK 924 INTRA-LIGAND FREE ENERGY PREDICTED BY IDOCK:   -0.89 KCAL/MOL
REMARK 927      BINDING AFFINITY PREDICTED BY RF-SCORE:    0.00 PKD
ROOT
HETATM    1  C   UNL     1     -11.954  13.049  63.551  1.00  0.00    -0.615 C  
HETATM    2  C   UNL     1     -11.564  13.443  64.987  1.00  0.00    -0.317 C  
HETATM    3  C   UNL     1     -12.749  14.214  65.607  1.00  0.00    -0.469 C  
HETATM    4  C   UNL     1     -10.341  14.372  64.972  1.00  0.00    -0.449 C  
HETATM    5  N   UNL     1     -11.337  12.255  65.837  1.00  0.00    -0.344 NA 
HETATM    6  H   UNL     1     -12.201  11.722  65.935  1.00  0.00     0.000 HD 
ENDROOT
BRANCH   5   7
HETATM    7  C   UNL     1     -10.246  11.372  65.399  1.00  0.00    -0.270 C  
BRANCH   7   8
HETATM    8  C   UNL     1      -9.902  10.236  66.385  1.00  0.00    -0.217 C  
HETATM    9  O   UNL     1      -9.920   8.995  65.662  1.00  0.00    -0.457 OA 
HETATM   10  H   UNL     1      -9.709   8.296  66.270  1.00  0.00     0.000 HD 
BRANCH   8  11
HETATM   11  C   UNL     1     -10.904  10.153  67.541  1.00  0.00    -0.290 C  
BRANCH  11  12
HETATM   12  O   UNL     1     -10.478  11.042  68.586  1.00  0.00    -0.175 OA 
BRANCH  12  13
HETATM   13  C   UNL     1     -11.285  11.021  69.699  1.00  0.00    -0.278 A  
HETATM   14  C   UNL     1     -11.582   9.843  70.398  1.00  0.00    -0.356 A  
HETATM   15  C   UNL     1     -12.453   9.865  71.484  1.00  0.00    -0.506 A  
HETATM   16  C   UNL     1     -12.999  11.074  71.903  1.00  0.00    -0.485 A  
HETATM   17  C   UNL     1     -12.656  12.263  71.249  1.00  0.00    -0.336 A  
HETATM   18  C   UNL     1     -11.802  12.253  70.131  1.00  0.00    -0.352 A  
HETATM   19  C   UNL     1     -11.414  13.536  69.433  1.00  0.00    -0.340 C  
HETATM   20  C   UNL     1     -12.388  14.675  69.714  1.00  0.00    -0.306 C  
HETATM   21  C   UNL     1     -12.633  14.822  71.204  1.00  0.00    -0.407 C  
HETATM   22  C   UNL     1     -13.196  13.543  71.775  1.00  0.00    -0.404 C  
HETATM   23  O   UNL     1     -14.018  13.550  72.686  1.00  0.00    -0.752 OA 
ENDBRANCH  12  13
ENDBRANCH  11  12
ENDBRANCH   8  11
ENDBRANCH   7   8
ENDBRANCH   5   7
TORSDOF 5
ENDMDL
MODEL        6
REMARK 921   NORMALIZED FREE ENERGY PREDICTED BY IDOCK:   -6.41 KCAL/MOL
REMARK 922        TOTAL FREE ENERGY PREDICTED BY IDOCK:   -9.01 KCAL/MOL
REMARK 923 INTER-LIGAND FREE ENERGY PREDICTED BY IDOCK:   -8.51 KCAL/MOL
REMARK 924 INTRA-LIGAND FREE ENERGY PREDICTED BY IDOCK:   -0.51 KCAL/MOL
REMARK 927      BINDING AFFINITY PREDICTED BY RF-SCORE:    0.00 PKD
ROOT
HETATM    1  C   UNL     1      -9.954  18.029  68.129  1.00  0.00    -0.356 C  
HETATM    2  C   UNL     1      -9.595  18.197  66.642  1.00  0.00    -0.306 C  
HETATM    3  C   UNL     1      -8.216  18.885  66.561  1.00  0.00    -0.306 C  
HETATM    4  C   UNL     1     -10.624  19.099  65.944  1.00  0.00    -0.495 C  
HETATM    5  N   UNL     1      -9.461  16.892  65.960  1.00  0.00    -0.480 NA 
HETATM    6  H   UNL     1      -8.685  16.364  66.361  1.00  0.00     0.000 HD 
ENDROOT
BRANCH   5   7
HETATM    7  C   UNL     1     -10.678  16.067  65.944  1.00  0.00    -0.280 C  
BRANCH   7   8
HETATM    8  C   UNL     1     -10.992  15.412  64.582  1.00  0.00    -0.314 C  
HETATM    9  O   UNL     1     -11.630  16.393  63.750  1.00  0.00    -1.605 OA 
HETATM   10  H   UNL     1     -11.824  15.989  62.912  1.00  0.00     0.000 HD 
BRANCH   8  11
HETATM   11  C   UNL     1     -11.920  14.202  64.726  1.00  0.00    -0.431 C  
BRANCH  11  12
HETATM   12  O   UNL     1     -11.743  13.636  66.035  1.00  0.00    -0.330 OA 
BRANCH  12  13
HETATM   13  C   UNL     1     -11.189  12.378  66.029  1.00  0.00    -0.335 A  
HETATM   14  C   UNL     1     -10.611  11.810  64.885  1.00  0.00    -0.344 A  
HETATM   15  C   UNL     1     -10.116  10.509  64.914  1.00  0.00    -0.403 A  
HETATM   16  C   UNL     1     -10.158   9.783  66.101  1.00  0.00    -0.315 A  
HETATM   17  C   UNL     1     -10.675  10.368  67.263  1.00  0.00    -0.331 A  
HETATM   18  C   UNL     1     -11.208  11.670  67.241  1.00  0.00    -0.365 A  
HETATM   19  C   UNL     1     -11.750  12.313  68.497  1.00  0.00    -0.381 C  
HETATM   20  C   UNL     1     -12.118  11.291  69.567  1.00  0.00    -0.386 C  
HETATM   21  C   UNL     1     -10.975  10.321  69.804  1.00  0.00    -0.338 C  
HETATM   22  C   UNL     1     -10.630   9.591  68.528  1.00  0.00    -0.212 C  
HETATM   23  O   UNL     1     -10.259   8.422  68.533  1.00  0.00    -0.194 OA 
ENDBRANCH  12  13
ENDBRANCH  11  12
ENDBRANCH   8  11
ENDBRANCH   7   8
ENDBRANCH   5   7
TORSDOF 5
ENDMDL
MODEL        7
REMARK 921   NORMALIZED FREE ENERGY PREDICTED BY IDOCK:   -6.40 KCAL/MOL
REMARK 922        TOTAL FREE ENERGY PREDICTED BY IDOCK:   -9.00 KCAL/MOL
REMARK 923 INTER-LIGAND FREE ENERGY PREDICTED BY IDOCK:   -8.16 KCAL/MOL
REMARK 924 INTRA-LIGAND FREE ENERGY PREDICTED BY IDOCK:   -0.84 KCAL/MOL
REMARK 927      BINDING AFFINITY PREDICTED BY RF-SCORE:    0.00 PKD
ROOT
HETATM    1  C   UNL     1     -10.345  19.306  68.250  1.00  0.00    -0.478 C  
HETATM    2  C   UNL     1      -9.172  18.867  67.356  1.00  0.00    -0.286 C  
HETATM    3  C   UNL     1      -7.922  18.720  68.249  1.00  0.00    -0.346 C  
HETATM    4  C   UNL     1      -8.880  19.938  66.294  1.00  0.00    -0.402 C  
HETATM    5  N   UNL     1      -9.416  17.543  66.744  1.00  0.00    -0.266 NA 
HETATM    6  H   UNL     1      -9.478  16.827  67.467  1.00  0.00     0.000 HD 
ENDROOT
BRANCH   5   7
HETATM    7  C   UNL     1     -10.588  17.470  65.858  1.00  0.00    -0.203 C  
BRANCH   7   8
HETATM    8  C   UNL     1     -10.745  16.131  65.108  1.00  0.00    -0.371 C  
HETATM    9  O   UNL     1     -11.506  16.374  63.914  1.00  0.00    -1.569 OA 
HETATM   10  H   UNL     1     -11.603  15.549  63.453  1.00  0.00     0.000 HD 
BRANCH   8  11
HETATM   11  C   UNL     1     -11.466  15.078  65.954  1.00  0.00    -0.224 C  
BRANCH  11  12
HETATM   12  O   UNL     1     -10.624  14.718  67.061  1.00  0.00    -0.280 OA 
BRANCH  12  13
HETATM   13  C   UNL     1     -11.287  14.632  68.261  1.00  0.00    -0.297 A  
HETATM   14  C   UNL     1     -11.767  15.759  68.944  1.00  0.00    -0.404 A  
HETATM   15  C   UNL     1     -12.380  15.625  70.187  1.00  0.00    -0.366 A  
HETATM   16  C   UNL     1     -12.554  14.357  70.735  1.00  0.00    -0.426 A  
HETATM   17  C   UNL     1     -12.136  13.224  70.029  1.00  0.00    -0.385 A  
HETATM   18  C   UNL     1     -11.487  13.345  68.787  1.00  0.00    -0.344 A  
HETATM   19  C   UNL     1     -11.049  12.124  68.012  1.00  0.00    -0.292 C  
HETATM   20  C   UNL     1     -10.915  10.887  68.892  1.00  0.00    -0.278 C  
HETATM   21  C   UNL     1     -12.163  10.682  69.731  1.00  0.00    -0.318 C  
HETATM   22  C   UNL     1     -12.411  11.885  70.610  1.00  0.00    -0.257 C  
HETATM   23  O   UNL     1     -12.886  11.775  71.736  1.00  0.00    -0.369 OA 
ENDBRANCH  12  13
ENDBRANCH  11  12
ENDBRANCH   8  11
ENDBRANCH   7   8
ENDBRANCH   5   7
TORSDOF 5
ENDMDL
MODEL        8
REMARK 921   NORMALIZED FREE ENERGY PREDICTED BY IDOCK:   -6.31 KCAL/MOL
REMARK 922        TOTAL FREE ENERGY PREDICTED BY IDOCK:   -8.88 KCAL/MOL
REMARK 923 INTER-LIGAND FREE ENERGY PREDICTED BY IDOCK:   -8.28 KCAL/MOL
REMARK 924 INTRA-LIGAND FREE ENERGY PREDICTED BY IDOCK:   -0.61 KCAL/MOL
REMARK 927      BINDING AFFINITY PREDICTED BY RF-SCORE:    0.00 PKD
ROOT
HETATM    1  C   UNL     1     -10.001  19.825  69.200  1.00  0.00    -0.391 C  
HETATM    2  C   UNL     1      -8.899  19.326  68.250  1.00  0.00    -0.337 C  
HETATM    3  C   UNL     1      -7.554  19.392  69.004  1.00  0.00    -0.369 C  
HETATM    4  C   UNL     1      -8.804  20.237  67.017  1.00  0.00    -0.427 C  
HETATM    5  N   UNL     1      -9.104  17.911  67.869  1.00  0.00    -0.255 NA 
HETATM    6  H   UNL     1      -9.035  17.312  68.691  1.00  0.00     0.000 HD 
ENDROOT
BRANCH   5   7
HETATM    7  C   UNL     1     -10.354  17.634  67.145  1.00  0.00    -0.343 C  
BRANCH   7   8
HETATM    8  C   UNL     1     -10.289  16.424  66.190  1.00  0.00    -0.344 C  
HETATM    9  O   UNL     1     -10.872  16.813  64.936  1.00  0.00    -0.707 OA 
HETATM   10  H   UNL     1     -10.832  16.068  64.348  1.00  0.00     0.000 HD 
BRANCH   8  11
HETATM   11  C   UNL     1     -11.051  15.215  66.739  1.00  0.00    -0.307 C  
BRANCH  11  12
HETATM   12  O   UNL     1     -11.035  15.271  68.174  1.00  0.00    -0.270 OA 
BRANCH  12  13
HETATM   13  C   UNL     1     -11.280  14.063  68.783  1.00  0.00    -0.271 A  
HETATM   14  C   UNL     1     -10.755  12.854  68.307  1.00  0.00    -0.261 A  
HETATM   15  C   UNL     1     -11.081  11.649  68.924  1.00  0.00    -0.287 A  
HETATM   16  C   UNL     1     -11.902  11.652  70.048  1.00  0.00    -0.435 A  
HETATM   17  C   UNL     1     -12.377  12.862  70.567  1.00  0.00    -0.362 A  
HETATM   18  C   UNL     1     -12.082  14.085  69.936  1.00  0.00    -0.406 A  
HETATM   19  C   UNL     1     -12.577  15.395  70.503  1.00  0.00    -0.471 C  
HETATM   20  C   UNL     1     -13.770  15.218  71.436  1.00  0.00    -0.602 C  
HETATM   21  C   UNL     1     -13.487  14.152  72.479  1.00  0.00    -0.634 C  
HETATM   22  C   UNL     1     -13.184  12.831  71.814  1.00  0.00    -0.374 C  
HETATM   23  O   UNL     1     -13.528  11.763  72.311  1.00  0.00    -0.423 OA 
ENDBRANCH  12  13
ENDBRANCH  11  12
ENDBRANCH   8  11
ENDBRANCH   7   8
ENDBRANCH   5   7
TORSDOF 5
ENDMDL
MODEL        9
REMARK 921   NORMALIZED FREE ENERGY PREDICTED BY IDOCK:   -6.31 KCAL/MOL
REMARK 922        TOTAL FREE ENERGY PREDICTED BY IDOCK:   -8.88 KCAL/MOL
REMARK 923 INTER-LIGAND FREE ENERGY PREDICTED BY IDOCK:   -8.00 KCAL/MOL
REMARK 924 INTRA-LIGAND FREE ENERGY PREDICTED BY IDOCK:   -0.88 KCAL/MOL
REMARK 927      BINDING AFFINITY PREDICTED BY RF-SCORE:    0.00 PKD
ROOT
HETATM    1  C   UNL     1     -10.289   5.231  69.940  1.00  0.00    -0.374 C  
HETATM    2  C   UNL     1     -10.892   6.557  69.441  1.00  0.00    -0.308 C  
HETATM    3  C   UNL     1     -11.006   6.479  67.904  1.00  0.00    -0.382 C  
HETATM    4  C   UNL     1      -9.967   7.731  69.796  1.00  0.00    -0.189 C  
HETATM    5  N   UNL     1     -12.262   6.764  69.959  1.00  0.00    -0.589 NA 
HETATM    6  H   UNL     1     -12.885   6.041  69.603  1.00  0.00     0.000 HD 
ENDROOT
BRANCH   5   7
HETATM    7  C   UNL     1     -12.369   6.850  71.423  1.00  0.00    -0.376 C  
BRANCH   7   8
HETATM    8  C   UNL     1     -13.315   7.957  71.935  1.00  0.00    -0.282 C  
HETATM    9  O   UNL     1     -14.374   8.119  70.978  1.00  0.00    -0.661 OA 
HETATM   10  H   UNL     1     -14.955   8.800  71.294  1.00  0.00     0.000 HD 
BRANCH   8  11
HETATM   11  C   UNL     1     -12.593   9.296  72.110  1.00  0.00    -0.371 C  
BRANCH  11  12
HETATM   12  O   UNL     1     -12.500   9.943  70.831  1.00  0.00    -0.308 OA 
BRANCH  12  13
HETATM   13  C   UNL     1     -12.588  11.313  70.892  1.00  0.00    -0.371 A  
HETATM   14  C   UNL     1     -13.188  11.988  71.963  1.00  0.00    -0.481 A  
HETATM   15  C   UNL     1     -13.306  13.376  71.949  1.00  0.00    -0.539 A  
HETATM   16  C   UNL     1     -12.784  14.099  70.881  1.00  0.00    -0.432 A  
HETATM   17  C   UNL     1     -12.127  13.436  69.839  1.00  0.00    -0.389 A  
HETATM   18  C   UNL     1     -12.028  12.033  69.823  1.00  0.00    -0.370 A  
HETATM   19  C   UNL     1     -11.302  11.313  68.710  1.00  0.00    -0.335 C  
HETATM   20  C   UNL     1     -11.175  12.160  67.449  1.00  0.00    -0.362 C  
HETATM   21  C   UNL     1     -10.617  13.534  67.774  1.00  0.00    -0.252 C  
HETATM   22  C   UNL     1     -11.514  14.248  68.756  1.00  0.00    -0.296 C  
HETATM   23  O   UNL     1     -11.683  15.463  68.712  1.00  0.00    -0.341 OA 
ENDBRANCH  12  13
ENDBRANCH  11  12
ENDBRANCH   8  11
ENDBRANCH   7   8
ENDBRANCH   5   7
TORSDOF 5
ENDMDL
MODEL       10
REMARK 921   NORMALIZED FREE ENERGY PREDICTED BY IDOCK:   -6.31 KCAL/MOL
REMARK 922        TOTAL FREE ENERGY PREDICTED BY IDOCK:   -8.88 KCAL/MOL
REMARK 923 INTER-LIGAND FREE ENERGY PREDICTED BY IDOCK:   -8.33 KCAL/MOL
REMARK 924 INTRA-LIGAND FREE ENERGY PREDICTED BY IDOCK:   -0.55 KCAL/MOL
REMARK 927      BINDING AFFINITY PREDICTED BY RF-SCORE:    0.00 PKD
ROOT
HETATM    1  C   UNL     1     -12.480  14.748  73.323  1.00  0.00    -0.503 C  
HETATM    2  C   UNL     1     -12.709  14.749  71.801  1.00  0.00    -0.328 C  
HETATM    3  C   UNL     1     -11.860  15.885  71.193  1.00  0.00    -0.483 C  
HETATM    4  C   UNL     1     -14.186  15.030  71.484  1.00  0.00    -0.633 C  
HETATM    5  N   UNL     1     -12.246  13.491  71.177  1.00  0.00    -0.413 NA 
HETATM    6  H   UNL     1     -11.238  13.392  71.292  1.00  0.00     0.000 HD 
ENDROOT
BRANCH   5   7
HETATM    7  C   UNL     1     -12.930  12.274  71.641  1.00  0.00    -0.311 C  
BRANCH   7   8
HETATM    8  C   UNL     1     -12.767  11.051  70.714  1.00  0.00    -0.323 C  
HETATM    9  O   UNL     1     -12.542   9.895  71.535  1.00  0.00    -0.353 OA 
HETATM   10  H   UNL     1     -12.441   9.142  70.964  1.00  0.00     0.000 HD 
BRANCH   8  11
HETATM   11  C   UNL     1     -11.590  11.214  69.748  1.00  0.00    -0.334 C  
BRANCH  11  12
HETATM   12  O   UNL     1     -12.102  11.545  68.447  1.00  0.00    -0.556 OA 
BRANCH  12  13
HETATM   13  C   UNL     1     -11.370  11.019  67.409  1.00  0.00    -0.230 A  
HETATM   14  C   UNL     1     -10.658   9.816  67.516  1.00  0.00    -0.335 A  
HETATM   15  C   UNL     1      -9.882   9.356  66.455  1.00  0.00    -0.325 A  
HETATM   16  C   UNL     1      -9.848  10.077  65.265  1.00  0.00    -0.388 A  
HETATM   17  C   UNL     1     -10.606  11.246  65.130  1.00  0.00    -0.343 A  
HETATM   18  C   UNL     1     -11.370  11.740  66.204  1.00  0.00    -0.342 A  
HETATM   19  C   UNL     1     -12.205  12.991  66.057  1.00  0.00    -0.463 C  
HETATM   20  C   UNL     1     -11.746  13.871  64.901  1.00  0.00    -0.378 C  
HETATM   21  C   UNL     1     -11.604  13.060  63.626  1.00  0.00    -0.507 C  
HETATM   22  C   UNL     1     -10.606  11.944  63.819  1.00  0.00    -0.422 C  
HETATM   23  O   UNL     1      -9.865  11.575  62.913  1.00  0.00    -0.358 OA 
ENDBRANCH  12  13
ENDBRANCH  11  12
ENDBRANCH   8  11
ENDBRANCH   7   8
ENDBRANCH   5   7
TORSDOF 5
ENDMDL
MODEL       11
REMARK 921   NORMALIZED FREE ENERGY PREDICTED BY IDOCK:   -6.28 KCAL/MOL
REMARK 922        TOTAL FREE ENERGY PREDICTED BY IDOCK:   -8.84 KCAL/MOL
REMARK 923 INTER-LIGAND FREE ENERGY PREDICTED BY IDOCK:   -8.38 KCAL/MOL
REMARK 924 INTRA-LIGAND FREE ENERGY PREDICTED BY IDOCK:   -0.46 KCAL/MOL
REMARK 927      BINDING AFFINITY PREDICTED BY RF-SCORE:    0.00 PKD
ROOT
HETATM    1  C   UNL     1      -9.243  18.234  68.253  1.00  0.00    -0.322 C  
HETATM    2  C   UNL     1      -9.072  18.497  66.746  1.00  0.00    -0.297 C  
HETATM    3  C   UNL     1      -7.640  19.023  66.515  1.00  0.00    -0.264 C  
HETATM    4  C   UNL     1     -10.061  19.573  66.276  1.00  0.00    -0.560 C  
HETATM    5  N   UNL     1      -9.202  17.253  65.956  1.00  0.00    -0.514 NA 
HETATM    6  H   UNL     1      -8.454  16.604  66.197  1.00  0.00     0.000 HD 
ENDROOT
BRANCH   5   7
HETATM    7  C   UNL     1     -10.507  16.582  66.056  1.00  0.00    -0.310 C  
BRANCH   7   8
HETATM    8  C   UNL     1     -10.859  15.677  64.858  1.00  0.00    -0.418 C  
HETATM    9  O   UNL     1     -11.522  16.480  63.870  1.00  0.00    -1.608 OA 
HETATM   10  H   UNL     1     -11.739  15.922  63.132  1.00  0.00     0.000 HD 
BRANCH   8  11
HETATM   11  C   UNL     1     -11.779  14.520  65.260  1.00  0.00    -0.361 C  
BRANCH  11  12
HETATM   12  O   UNL     1     -10.978  13.352  65.495  1.00  0.00    -0.280 OA 
BRANCH  12  13
HETATM   13  C   UNL     1     -11.184  12.773  66.725  1.00  0.00    -0.295 A  
HETATM   14  C   UNL     1     -11.737  13.470  67.808  1.00  0.00    -0.394 A  
HETATM   15  C   UNL     1     -11.870  12.856  69.051  1.00  0.00    -0.352 A  
HETATM   16  C   UNL     1     -11.489  11.526  69.205  1.00  0.00    -0.370 A  
HETATM   17  C   UNL     1     -10.996  10.806  68.112  1.00  0.00    -0.308 A  
HETATM   18  C   UNL     1     -10.826  11.421  66.858  1.00  0.00    -0.335 A  
HETATM   19  C   UNL     1     -10.312  10.642  65.669  1.00  0.00    -0.285 C  
HETATM   20  C   UNL     1      -9.557   9.382  66.075  1.00  0.00    -0.328 C  
HETATM   21  C   UNL     1     -10.369   8.559  67.059  1.00  0.00    -0.379 C  
HETATM   22  C   UNL     1     -10.675   9.367  68.297  1.00  0.00    -0.171 C  
HETATM   23  O   UNL     1     -10.726   8.852  69.409  1.00  0.00    -0.228 OA 
ENDBRANCH  12  13
ENDBRANCH  11  12
ENDBRANCH   8  11
ENDBRANCH   7   8
ENDBRANCH   5   7
TORSDOF 5
ENDMDL
MODEL       12
REMARK 921   NORMALIZED FREE ENERGY PREDICTED BY IDOCK:   -6.28 KCAL/MOL
REMARK 922        TOTAL FREE ENERGY PREDICTED BY IDOCK:   -8.84 KCAL/MOL
REMARK 923 INTER-LIGAND FREE ENERGY PREDICTED BY IDOCK:   -8.49 KCAL/MOL
REMARK 924 INTRA-LIGAND FREE ENERGY PREDICTED BY IDOCK:   -0.36 KCAL/MOL
REMARK 927      BINDING AFFINITY PREDICTED BY RF-SCORE:    0.00 PKD
ROOT
HETATM    1  C   UNL     1     -12.389  11.723  63.471  1.00  0.00    -0.495 C  
HETATM    2  C   UNL     1     -11.009  12.137  64.012  1.00  0.00    -0.380 C  
HETATM    3  C   UNL     1      -9.934  11.525  63.090  1.00  0.00    -0.404 C  
HETATM    4  C   UNL     1     -10.802  11.579  65.428  1.00  0.00    -0.318 C  
HETATM    5  N   UNL     1     -10.823  13.603  63.970  1.00  0.00    -0.534 NA 
HETATM    6  H   UNL     1     -10.837  13.932  63.005  1.00  0.00     0.000 HD 
ENDROOT
BRANCH   5   7
HETATM    7  C   UNL     1     -11.773  14.378  64.783  1.00  0.00    -0.416 C  
BRANCH   7   8
HETATM    8  C   UNL     1     -11.335  15.828  65.076  1.00  0.00    -0.220 C  
HETATM    9  O   UNL     1     -11.296  16.544  63.832  1.00  0.00    -1.557 OA 
HETATM   10  H   UNL     1     -11.027  17.437  64.013  1.00  0.00     0.000 HD 
BRANCH   8  11
HETATM   11  C   UNL     1      -9.952  15.891  65.731  1.00  0.00    -0.360 C  
BRANCH  11  12
HETATM   12  O   UNL     1      -9.383  17.187  65.487  1.00  0.00    -0.421 OA 
BRANCH  12  13
HETATM   13  C   UNL     1      -9.341  17.996  66.597  1.00  0.00    -0.291 A  
HETATM   14  C   UNL     1     -10.494  18.520  67.198  1.00  0.00    -0.446 A  
HETATM   15  C   UNL     1     -10.395  19.384  68.285  1.00  0.00    -0.500 A  
HETATM   16  C   UNL     1      -9.142  19.695  68.805  1.00  0.00    -0.322 A  
HETATM   17  C   UNL     1      -7.991  19.125  68.250  1.00  0.00    -0.361 A  
HETATM   18  C   UNL     1      -8.072  18.275  67.131  1.00  0.00    -0.232 A  
HETATM   19  C   UNL     1      -6.834  17.642  66.540  1.00  0.00    -0.277 C  
HETATM   20  C   UNL     1      -5.557  18.385  66.917  1.00  0.00    -0.157 C  
HETATM   21  C   UNL     1      -5.488  18.615  68.416  1.00  0.00    -0.191 C  
HETATM   22  C   UNL     1      -6.679  19.418  68.882  1.00  0.00    -0.313 C  
HETATM   23  O   UNL     1      -6.591  20.235  69.793  1.00  0.00    -0.292 OA 
ENDBRANCH  12  13
ENDBRANCH  11  12
ENDBRANCH   8  11
ENDBRANCH   7   8
ENDBRANCH   5   7
TORSDOF 5
ENDMDL
MODEL       13
REMARK 921   NORMALIZED FREE ENERGY PREDICTED BY IDOCK:   -6.25 KCAL/MOL
REMARK 922        TOTAL FREE ENERGY PREDICTED BY IDOCK:   -8.80 KCAL/MOL
REMARK 923 INTER-LIGAND FREE ENERGY PREDICTED BY IDOCK:   -8.39 KCAL/MOL
REMARK 924 INTRA-LIGAND FREE ENERGY PREDICTED BY IDOCK:   -0.41 KCAL/MOL
REMARK 927      BINDING AFFINITY PREDICTED BY RF-SCORE:    0.00 PKD
ROOT
HETATM    1  C   UNL     1     -10.521   8.543  72.180  1.00  0.00    -0.412 C  
HETATM    2  C   UNL     1     -11.729   8.314  71.255  1.00  0.00    -0.283 C  
HETATM    3  C   UNL     1     -13.008   8.386  72.115  1.00  0.00    -0.370 C  
HETATM    4  C   UNL     1     -11.656   6.919  70.617  1.00  0.00    -0.402 C  
HETATM    5  N   UNL     1     -11.843   9.377  70.232  1.00  0.00    -0.466 NA 
HETATM    6  H   UNL     1     -12.019  10.277  70.678  1.00  0.00     0.000 HD 
ENDROOT
BRANCH   5   7
HETATM    7  C   UNL     1     -10.701   9.484  69.311  1.00  0.00    -0.222 C  
BRANCH   7   8
HETATM    8  C   UNL     1     -10.795  10.648  68.303  1.00  0.00    -0.241 C  
HETATM    9  O   UNL     1     -12.184  10.943  68.087  1.00  0.00    -0.781 OA 
HETATM   10  H   UNL     1     -12.241  11.659  67.466  1.00  0.00     0.000 HD 
BRANCH   8  11
HETATM   11  C   UNL     1     -10.145  10.301  66.960  1.00  0.00    -0.218 C  
BRANCH  11  12
HETATM   12  O   UNL     1      -9.535  11.485  66.421  1.00  0.00    -0.200 OA 
BRANCH  12  13
HETATM   13  C   UNL     1     -10.345  12.187  65.561  1.00  0.00    -0.263 A  
HETATM   14  C   UNL     1     -11.258  11.563  64.700  1.00  0.00    -0.276 A  
HETATM   15  C   UNL     1     -12.013  12.316  63.804  1.00  0.00    -0.609 A  
HETATM   16  C   UNL     1     -11.890  13.702  63.795  1.00  0.00    -0.373 A  
HETATM   17  C   UNL     1     -11.027  14.335  64.697  1.00  0.00    -0.379 A  
HETATM   18  C   UNL     1     -10.234  13.587  65.586  1.00  0.00    -0.306 A  
HETATM   19  C   UNL     1      -9.315  14.267  66.575  1.00  0.00    -0.292 C  
HETATM   20  C   UNL     1      -8.972  15.696  66.170  1.00  0.00    -0.362 C  
HETATM   21  C   UNL     1     -10.227  16.482  65.840  1.00  0.00    -0.368 C  
HETATM   22  C   UNL     1     -10.982  15.820  64.712  1.00  0.00    -0.393 C  
HETATM   23  O   UNL     1     -11.595  16.474  63.873  1.00  0.00    -1.175 OA 
ENDBRANCH  12  13
ENDBRANCH  11  12
ENDBRANCH   8  11
ENDBRANCH   7   8
ENDBRANCH   5   7
TORSDOF 5
ENDMDL
MODEL       14
REMARK 921   NORMALIZED FREE ENERGY PREDICTED BY IDOCK:   -6.23 KCAL/MOL
REMARK 922        TOTAL FREE ENERGY PREDICTED BY IDOCK:   -8.78 KCAL/MOL
REMARK 923 INTER-LIGAND FREE ENERGY PREDICTED BY IDOCK:   -7.92 KCAL/MOL
REMARK 924 INTRA-LIGAND FREE ENERGY PREDICTED BY IDOCK:   -0.86 KCAL/MOL
REMARK 927      BINDING AFFINITY PREDICTED BY RF-SCORE:    0.00 PKD
ROOT
HETATM    1  C   UNL     1     -10.241   6.301  70.770  1.00  0.00    -0.238 C  
HETATM    2  C   UNL     1     -10.604   7.748  70.392  1.00  0.00    -0.227 C  
HETATM    3  C   UNL     1     -10.272   7.946  68.898  1.00  0.00    -0.215 C  
HETATM    4  C   UNL     1      -9.762   8.741  71.207  1.00  0.00    -0.335 C  
HETATM    5  N   UNL     1     -12.052   8.006  70.544  1.00  0.00    -0.480 NA 
HETATM    6  H   UNL     1     -12.583   7.423  69.897  1.00  0.00     0.000 HD 
ENDROOT
BRANCH   5   7
HETATM    7  C   UNL     1     -12.575   7.852  71.910  1.00  0.00    -0.319 C  
BRANCH   7   8
HETATM    8  C   UNL     1     -13.109   9.152  72.545  1.00  0.00    -0.377 C  
HETATM    9  O   UNL     1     -14.272   8.826  73.323  1.00  0.00    -1.164 OA 
HETATM   10  H   UNL     1     -14.600   9.627  73.714  1.00  0.00     0.000 HD 
BRANCH   8  11
HETATM   11  C   UNL     1     -13.492  10.194  71.490  1.00  0.00    -0.264 C  
BRANCH  11  12
HETATM   12  O   UNL     1     -12.323  10.956  71.147  1.00  0.00    -0.357 OA 
BRANCH  12  13
HETATM   13  C   UNL     1     -12.542  12.311  71.072  1.00  0.00    -0.257 A  
HETATM   14  C   UNL     1     -13.300  13.009  72.023  1.00  0.00    -0.588 A  
HETATM   15  C   UNL     1     -13.543  14.372  71.870  1.00  0.00    -0.491 A  
HETATM   16  C   UNL     1     -12.994  15.052  70.787  1.00  0.00    -0.442 A  
HETATM   17  C   UNL     1     -12.184  14.373  69.870  1.00  0.00    -0.394 A  
HETATM   18  C   UNL     1     -11.955  12.990  69.992  1.00  0.00    -0.383 A  
HETATM   19  C   UNL     1     -11.066  12.256  69.015  1.00  0.00    -0.289 C  
HETATM   20  C   UNL     1     -10.901  13.003  67.697  1.00  0.00    -0.256 C  
HETATM   21  C   UNL     1     -10.505  14.448  67.939  1.00  0.00    -0.239 C  
HETATM   22  C   UNL     1     -11.551  15.149  68.772  1.00  0.00    -0.349 C  
HETATM   23  O   UNL     1     -11.826  16.332  68.602  1.00  0.00    -0.255 OA 
ENDBRANCH  12  13
ENDBRANCH  11  12
ENDBRANCH   8  11
ENDBRANCH   7   8
ENDBRANCH   5   7
TORSDOF 5
ENDMDL
MODEL       15
REMARK 921   NORMALIZED FREE ENERGY PREDICTED BY IDOCK:   -6.23 KCAL/MOL
REMARK 922        TOTAL FREE ENERGY PREDICTED BY IDOCK:   -8.78 KCAL/MOL
REMARK 923 INTER-LIGAND FREE ENERGY PREDICTED BY IDOCK:   -7.37 KCAL/MOL
REMARK 924 INTRA-LIGAND FREE ENERGY PREDICTED BY IDOCK:   -1.42 KCAL/MOL
REMARK 927      BINDING AFFINITY PREDICTED BY RF-SCORE:    0.00 PKD
ROOT
HETATM    1  C   UNL     1      -8.904  15.288  67.316  1.00  0.00    -0.212 C  
HETATM    2  C   UNL     1      -9.805  16.518  67.529  1.00  0.00    -0.248 C  
HETATM    3  C   UNL     1     -10.343  16.959  66.152  1.00  0.00    -0.327 C  
HETATM    4  C   UNL     1      -8.992  17.679  68.122  1.00  0.00    -0.269 C  
HETATM    5  N   UNL     1     -10.983  16.195  68.363  1.00  0.00    -0.326 NA 
HETATM    6  H   UNL     1     -11.575  15.514  67.887  1.00  0.00     0.000 HD 
ENDROOT
BRANCH   5   7
HETATM    7  C   UNL     1     -10.677  15.734  69.726  1.00  0.00    -0.316 C  
BRANCH   7   8
HETATM    8  C   UNL     1     -11.793  14.898  70.388  1.00  0.00    -0.300 C  
HETATM    9  O   UNL     1     -11.501  14.795  71.791  1.00  0.00    -0.494 OA 
HETATM   10  H   UNL     1     -12.188  14.280  72.198  1.00  0.00     0.000 HD 
BRANCH   8  11
HETATM   11  C   UNL     1     -11.887  13.490  69.794  1.00  0.00    -0.329 C  
BRANCH  11  12
HETATM   12  O   UNL     1     -12.263  13.595  68.411  1.00  0.00    -0.332 OA 
BRANCH  12  13
HETATM   13  C   UNL     1     -11.565  12.755  67.578  1.00  0.00    -0.356 A  
HETATM   14  C   UNL     1     -10.786  11.691  68.053  1.00  0.00    -0.246 A  
HETATM   15  C   UNL     1     -10.048  10.905  67.171  1.00  0.00    -0.235 A  
HETATM   16  C   UNL     1     -10.120  11.153  65.804  1.00  0.00    -0.299 A  
HETATM   17  C   UNL     1     -10.946  12.174  65.318  1.00  0.00    -0.349 A  
HETATM   18  C   UNL     1     -11.672  12.996  66.198  1.00  0.00    -0.445 A  
HETATM   19  C   UNL     1     -12.580  14.087  65.678  1.00  0.00    -0.542 C  
HETATM   20  C   UNL     1     -12.235  14.509  64.255  1.00  0.00    -0.441 C  
HETATM   21  C   UNL     1     -12.123  13.300  63.344  1.00  0.00    -0.508 C  
HETATM   22  C   UNL     1     -11.058  12.356  63.848  1.00  0.00    -0.415 C  
HETATM   23  O   UNL     1     -10.352  11.709  63.081  1.00  0.00    -0.376 OA 
ENDBRANCH  12  13
ENDBRANCH  11  12
ENDBRANCH   8  11
ENDBRANCH   7   8
ENDBRANCH   5   7
TORSDOF 5
ENDMDL
MODEL       16
REMARK 921   NORMALIZED FREE ENERGY PREDICTED BY IDOCK:   -6.20 KCAL/MOL
REMARK 922        TOTAL FREE ENERGY PREDICTED BY IDOCK:   -8.74 KCAL/MOL
REMARK 923 INTER-LIGAND FREE ENERGY PREDICTED BY IDOCK:   -8.24 KCAL/MOL
REMARK 924 INTRA-LIGAND FREE ENERGY PREDICTED BY IDOCK:   -0.51 KCAL/MOL
REMARK 927      BINDING AFFINITY PREDICTED BY RF-SCORE:    0.00 PKD
ROOT
HETATM    1  C   UNL     1     -12.258  12.099  63.271  1.00  0.00    -0.533 C  
HETATM    2  C   UNL     1     -10.953  12.307  64.059  1.00  0.00    -0.383 C  
HETATM    3  C   UNL     1      -9.802  11.674  63.249  1.00  0.00    -0.428 C  
HETATM    4  C   UNL     1     -11.031  11.596  65.418  1.00  0.00    -0.328 C  
HETATM    5  N   UNL     1     -10.628  13.742  64.210  1.00  0.00    -0.573 NA 
HETATM    6  H   UNL     1     -10.455  14.161  63.297  1.00  0.00     0.000 HD 
ENDROOT
BRANCH   5   7
HETATM    7  C   UNL     1     -11.623  14.533  64.950  1.00  0.00    -0.401 C  
BRANCH   7   8
HETATM    8  C   UNL     1     -11.026  15.530  65.966  1.00  0.00    -0.251 C  
HETATM    9  O   UNL     1     -10.290  16.524  65.237  1.00  0.00    -0.596 OA 
HETATM   10  H   UNL     1      -9.922  17.137  65.863  1.00  0.00     0.000 HD 
BRANCH   8  11
HETATM   11  C   UNL     1     -10.087  14.844  66.962  1.00  0.00    -0.244 C  
BRANCH  11  12
HETATM   12  O   UNL     1     -10.596  15.043  68.290  1.00  0.00    -0.239 OA 
BRANCH  12  13
HETATM   13  C   UNL     1     -10.988  13.885  68.918  1.00  0.00    -0.263 A  
HETATM   14  C   UNL     1     -10.528  12.619  68.528  1.00  0.00    -0.249 A  
HETATM   15  C   UNL     1     -11.001  11.470  69.156  1.00  0.00    -0.276 A  
HETATM   16  C   UNL     1     -11.906  11.584  70.208  1.00  0.00    -0.431 A  
HETATM   17  C   UNL     1     -12.320  12.848  70.644  1.00  0.00    -0.385 A  
HETATM   18  C   UNL     1     -11.875  14.017  69.998  1.00  0.00    -0.388 A  
HETATM   19  C   UNL     1     -12.304  15.385  70.477  1.00  0.00    -0.452 C  
HETATM   20  C   UNL     1     -13.577  15.342  71.313  1.00  0.00    -0.584 C  
HETATM   21  C   UNL     1     -13.468  14.300  72.412  1.00  0.00    -0.586 C  
HETATM   22  C   UNL     1     -13.223  12.933  71.820  1.00  0.00    -0.384 C  
HETATM   23  O   UNL     1     -13.693  11.917  72.323  1.00  0.00    -0.260 OA 
ENDBRANCH  12  13
ENDBRANCH  11  12
ENDBRANCH   8  11
ENDBRANCH   7   8
ENDBRANCH   5   7
TORSDOF 5
ENDMDL
MODEL       17
REMARK 921   NORMALIZED FREE ENERGY PREDICTED BY IDOCK:   -6.19 KCAL/MOL
REMARK 922        TOTAL FREE ENERGY PREDICTED BY IDOCK:   -8.73 KCAL/MOL
REMARK 923 INTER-LIGAND FREE ENERGY PREDICTED BY IDOCK:   -7.97 KCAL/MOL
REMARK 924 INTRA-LIGAND FREE ENERGY PREDICTED BY IDOCK:   -0.77 KCAL/MOL
REMARK 927      BINDING AFFINITY PREDICTED BY RF-SCORE:    0.00 PKD
ROOT
HETATM    1  C   UNL     1     -11.517  15.886  64.407  1.00  0.00    -0.268 C  
HETATM    2  C   UNL     1     -11.231  14.745  65.400  1.00  0.00    -0.347 C  
HETATM    3  C   UNL     1     -10.631  13.565  64.607  1.00  0.00    -0.441 C  
HETATM    4  C   UNL     1     -12.535  14.269  66.057  1.00  0.00    -0.392 C  
HETATM    5  N   UNL     1     -10.223  15.138  66.408  1.00  0.00    -0.270 NA 
HETATM    6  H   UNL     1      -9.328  15.325  65.956  1.00  0.00     0.000 HD 
ENDROOT
BRANCH   5   7
HETATM    7  C   UNL     1     -10.604  16.271  67.265  1.00  0.00    -0.298 C  
BRANCH   7   8
HETATM    8  C   UNL     1      -9.835  16.354  68.601  1.00  0.00    -0.234 C  
HETATM    9  O   UNL     1      -8.968  15.213  68.690  1.00  0.00    -0.174 OA 
HETATM   10  H   UNL     1      -8.495  15.265  69.512  1.00  0.00     0.000 HD 
BRANCH   8  11
HETATM   11  C   UNL     1     -10.777  16.360  69.808  1.00  0.00    -0.324 C  
BRANCH  11  12
HETATM   12  O   UNL     1     -12.009  15.720  69.437  1.00  0.00    -0.370 OA 
BRANCH  12  13
HETATM   13  C   UNL     1     -12.555  14.944  70.431  1.00  0.00    -0.343 A  
HETATM   14  C   UNL     1     -13.270  15.484  71.509  1.00  0.00    -0.589 A  
HETATM   15  C   UNL     1     -13.753  14.661  72.522  1.00  0.00    -0.572 A  
HETATM   16  C   UNL     1     -13.559  13.285  72.441  1.00  0.00    -0.694 A  
HETATM   17  C   UNL     1     -12.902  12.733  71.336  1.00  0.00    -0.371 A  
HETATM   18  C   UNL     1     -12.381  13.555  70.319  1.00  0.00    -0.370 A  
HETATM   19  C   UNL     1     -11.686  12.963  69.115  1.00  0.00    -0.376 C  
HETATM   20  C   UNL     1     -11.183  11.546  69.365  1.00  0.00    -0.324 C  
HETATM   21  C   UNL     1     -12.283  10.675  69.944  1.00  0.00    -0.346 C  
HETATM   22  C   UNL     1     -12.784  11.255  71.246  1.00  0.00    -0.405 C  
HETATM   23  O   UNL     1     -13.147  10.539  72.174  1.00  0.00    -0.459 OA 
ENDBRANCH  12  13
ENDBRANCH  11  12
ENDBRANCH   8  11
ENDBRANCH   7   8
ENDBRANCH   5   7
TORSDOF 5
ENDMDL
MODEL       18
REMARK 921   NORMALIZED FREE ENERGY PREDICTED BY IDOCK:   -6.08 KCAL/MOL
REMARK 922        TOTAL FREE ENERGY PREDICTED BY IDOCK:   -8.59 KCAL/MOL
REMARK 923 INTER-LIGAND FREE ENERGY PREDICTED BY IDOCK:   -7.74 KCAL/MOL
REMARK 924 INTRA-LIGAND FREE ENERGY PREDICTED BY IDOCK:   -0.85 KCAL/MOL
REMARK 927      BINDING AFFINITY PREDICTED BY RF-SCORE:    0.00 PKD
ROOT
HETATM    1  C   UNL     1     -10.890   5.318  70.871  1.00  0.00    -0.119 C  
HETATM    2  C   UNL     1     -11.103   6.710  70.248  1.00  0.00    -0.326 C  
HETATM    3  C   UNL     1     -10.946   6.576  68.719  1.00  0.00    -0.371 C  
HETATM    4  C   UNL     1     -10.037   7.691  70.757  1.00  0.00    -0.189 C  
HETATM    5  N   UNL     1     -12.472   7.215  70.492  1.00  0.00    -0.614 NA 
HETATM    6  H   UNL     1     -13.156   6.613  70.034  1.00  0.00     0.000 HD 
ENDROOT
BRANCH   5   7
HETATM    7  C   UNL     1     -12.827   7.397  71.907  1.00  0.00    -0.272 C  
BRANCH   7   8
HETATM    8  C   UNL     1     -13.070   8.863  72.326  1.00  0.00    -0.436 C  
HETATM    9  O   UNL     1     -14.250   8.905  73.143  1.00  0.00    -1.144 OA 
HETATM   10  H   UNL     1     -14.399   9.807  73.400  1.00  0.00     0.000 HD 
BRANCH   8  11
HETATM   11  C   UNL     1     -13.267   9.782  71.117  1.00  0.00    -0.331 C  
BRANCH  11  12
HETATM   12  O   UNL     1     -11.981  10.228  70.659  1.00  0.00    -0.291 OA 
BRANCH  12  13
HETATM   13  C   UNL     1     -11.974  11.518  70.185  1.00  0.00    -0.369 A  
HETATM   14  C   UNL     1     -12.478  12.599  70.922  1.00  0.00    -0.368 A  
HETATM   15  C   UNL     1     -12.502  13.878  70.373  1.00  0.00    -0.404 A  
HETATM   16  C   UNL     1     -11.983  14.091  69.100  1.00  0.00    -0.400 A  
HETATM   17  C   UNL     1     -11.420  13.027  68.385  1.00  0.00    -0.345 A  
HETATM   18  C   UNL     1     -11.416  11.723  68.912  1.00  0.00    -0.357 A  
HETATM   19  C   UNL     1     -10.793  10.575  68.153  1.00  0.00    -0.300 C  
HETATM   20  C   UNL     1     -10.667  10.859  66.660  1.00  0.00    -0.289 C  
HETATM   21  C   UNL     1     -10.004  12.202  66.419  1.00  0.00    -0.243 C  
HETATM   22  C   UNL     1     -10.805  13.309  67.062  1.00  0.00    -0.269 C  
HETATM   23  O   UNL     1     -10.893  14.422  66.554  1.00  0.00    -0.301 OA 
ENDBRANCH  12  13
ENDBRANCH  11  12
ENDBRANCH   8  11
ENDBRANCH   7   8
ENDBRANCH   5   7
TORSDOF 5
ENDMDL
MODEL       19
REMARK 921   NORMALIZED FREE ENERGY PREDICTED BY IDOCK:   -6.08 KCAL/MOL
REMARK 922        TOTAL FREE ENERGY PREDICTED BY IDOCK:   -8.59 KCAL/MOL
REMARK 923 INTER-LIGAND FREE ENERGY PREDICTED BY IDOCK:   -8.09 KCAL/MOL
REMARK 924 INTRA-LIGAND FREE ENERGY PREDICTED BY IDOCK:   -0.50 KCAL/MOL
REMARK 927      BINDING AFFINITY PREDICTED BY RF-SCORE:    0.00 PKD
ROOT
HETATM    1  C   UNL     1      -8.936   6.998  72.771  1.00  0.00    -0.149 C  
HETATM    2  C   UNL     1     -10.219   6.148  72.824  1.00  0.00    -0.185 C  
HETATM    3  C   UNL     1     -10.040   5.086  73.929  1.00  0.00    -0.227 C  
HETATM    4  C   UNL     1     -10.433   5.422  71.488  1.00  0.00    -0.289 C  
HETATM    5  N   UNL     1     -11.397   6.960  73.200  1.00  0.00    -0.519 NA 
HETATM    6  H   UNL     1     -11.284   7.326  74.145  1.00  0.00     0.000 HD 
ENDROOT
BRANCH   5   7
HETATM    7  C   UNL     1     -11.728   8.050  72.270  1.00  0.00    -0.371 C  
BRANCH   7   8
HETATM    8  C   UNL     1     -13.182   8.037  71.754  1.00  0.00    -0.341 C  
HETATM    9  O   UNL     1     -13.245   7.165  70.615  1.00  0.00    -0.561 OA 
HETATM   10  H   UNL     1     -14.141   7.158  70.298  1.00  0.00     0.000 HD 
BRANCH   8  11
HETATM   11  C   UNL     1     -13.659   9.432  71.342  1.00  0.00    -0.294 C  
BRANCH  11  12
HETATM   12  O   UNL     1     -12.730  10.406  71.843  1.00  0.00    -0.420 OA 
BRANCH  12  13
HETATM   13  C   UNL     1     -12.342  11.339  70.911  1.00  0.00    -0.388 A  
HETATM   14  C   UNL     1     -11.666  10.996  69.732  1.00  0.00    -0.410 A  
HETATM   15  C   UNL     1     -11.241  11.984  68.848  1.00  0.00    -0.315 A  
HETATM   16  C   UNL     1     -11.527  13.319  69.118  1.00  0.00    -0.357 A  
HETATM   17  C   UNL     1     -12.258  13.662  70.261  1.00  0.00    -0.423 A  
HETATM   18  C   UNL     1     -12.667  12.679  71.180  1.00  0.00    -0.347 A  
HETATM   19  C   UNL     1     -13.472  13.042  72.406  1.00  0.00    -0.615 C  
HETATM   20  C   UNL     1     -13.337  14.513  72.782  1.00  0.00    -0.600 C  
HETATM   21  C   UNL     1     -13.591  15.404  71.580  1.00  0.00    -0.603 C  
HETATM   22  C   UNL     1     -12.613  15.089  70.474  1.00  0.00    -0.369 C  
HETATM   23  O   UNL     1     -12.175  15.961  69.731  1.00  0.00    -0.308 OA 
ENDBRANCH  12  13
ENDBRANCH  11  12
ENDBRANCH   8  11
ENDBRANCH   7   8
ENDBRANCH   5   7
TORSDOF 5
ENDMDL
MODEL       20
REMARK 921   NORMALIZED FREE ENERGY PREDICTED BY IDOCK:   -6.08 KCAL/MOL
REMARK 922        TOTAL FREE ENERGY PREDICTED BY IDOCK:   -8.58 KCAL/MOL
REMARK 923 INTER-LIGAND FREE ENERGY PREDICTED BY IDOCK:   -8.12 KCAL/MOL
REMARK 924 INTRA-LIGAND FREE ENERGY PREDICTED BY IDOCK:   -0.47 KCAL/MOL
REMARK 927      BINDING AFFINITY PREDICTED BY RF-SCORE:    0.00 PKD
ROOT
HETATM    1  C   UNL     1     -10.074   7.120  72.886  1.00  0.00    -0.247 C  
HETATM    2  C   UNL     1     -11.125   6.148  72.321  1.00  0.00    -0.277 C  
HETATM    3  C   UNL     1     -11.132   4.887  73.210  1.00  0.00    -0.410 C  
HETATM    4  C   UNL     1     -10.749   5.727  70.893  1.00  0.00    -0.333 C  
HETATM    5  N   UNL     1     -12.487   6.720  72.381  1.00  0.00    -0.519 NA 
HETATM    6  H   UNL     1     -12.763   6.871  73.352  1.00  0.00     0.000 HD 
ENDROOT
BRANCH   5   7
HETATM    7  C   UNL     1     -12.683   7.951  71.602  1.00  0.00    -0.330 C  
BRANCH   7   8
HETATM    8  C   UNL     1     -13.075   9.187  72.439  1.00  0.00    -0.423 C  
HETATM    9  O   UNL     1     -14.236   8.852  73.215  1.00  0.00    -1.197 OA 
HETATM   10  H   UNL     1     -14.477   9.613  73.730  1.00  0.00     0.000 HD 
BRANCH   8  11
HETATM   11  C   UNL     1     -13.395  10.400  71.560  1.00  0.00    -0.310 C  
BRANCH  11  12
HETATM   12  O   UNL     1     -12.207  11.195  71.417  1.00  0.00    -0.264 OA 
BRANCH  12  13
HETATM   13  C   UNL     1     -11.943  11.574  70.123  1.00  0.00    -0.369 A  
HETATM   14  C   UNL     1     -11.781  10.652  69.080  1.00  0.00    -0.324 A  
HETATM   15  C   UNL     1     -11.455  11.083  67.798  1.00  0.00    -0.339 A  
HETATM   16  C   UNL     1     -11.329  12.446  67.542  1.00  0.00    -0.375 A  
HETATM   17  C   UNL     1     -11.551  13.375  68.564  1.00  0.00    -0.368 A  
HETATM   18  C   UNL     1     -11.851  12.953  69.872  1.00  0.00    -0.373 A  
HETATM   19  C   UNL     1     -12.111  13.953  70.975  1.00  0.00    -0.357 C  
HETATM   20  C   UNL     1     -11.533  15.330  70.668  1.00  0.00    -0.353 C  
HETATM   21  C   UNL     1     -11.955  15.797  69.287  1.00  0.00    -0.305 C  
HETATM   22  C   UNL     1     -11.486  14.822  68.234  1.00  0.00    -0.317 C  
HETATM   23  O   UNL     1     -11.128  15.196  67.121  1.00  0.00    -0.329 OA 
ENDBRANCH  12  13
ENDBRANCH  11  12
ENDBRANCH   8  11
ENDBRANCH   7   8
ENDBRANCH   5   7
TORSDOF 5
ENDMDL
MODEL       21
REMARK 921   NORMALIZED FREE ENERGY PREDICTED BY IDOCK:   -6.05 KCAL/MOL
REMARK 922        TOTAL FREE ENERGY PREDICTED BY IDOCK:   -8.54 KCAL/MOL
REMARK 923 INTER-LIGAND FREE ENERGY PREDICTED BY IDOCK:   -7.55 KCAL/MOL
REMARK 924 INTRA-LIGAND FREE ENERGY PREDICTED BY IDOCK:   -0.99 KCAL/MOL
REMARK 927      BINDING AFFINITY PREDICTED BY RF-SCORE:    0.00 PKD
ROOT
HETATM    1  C   UNL     1      -9.329  11.744  66.987  1.00  0.00    -0.187 C  
HETATM    2  C   UNL     1     -10.475  10.791  66.604  1.00  0.00    -0.246 C  
HETATM    3  C   UNL     1     -10.984  10.116  67.895  1.00  0.00    -0.335 C  
HETATM    4  C   UNL     1      -9.964   9.695  65.658  1.00  0.00    -0.321 C  
HETATM    5  N   UNL     1     -11.623  11.521  66.024  1.00  0.00    -0.281 NA 
HETATM    6  H   UNL     1     -12.025  12.152  66.718  1.00  0.00     0.000 HD 
ENDROOT
BRANCH   5   7
HETATM    7  C   UNL     1     -11.335  12.253  64.782  1.00  0.00    -0.323 C  
BRANCH   7   8
HETATM    8  C   UNL     1     -12.346  13.369  64.443  1.00  0.00    -0.341 C  
HETATM    9  O   UNL     1     -12.306  13.593  63.025  1.00  0.00    -1.041 OA 
HETATM   10  H   UNL     1     -12.928  14.281  62.818  1.00  0.00     0.000 HD 
BRANCH   8  11
HETATM   11  C   UNL     1     -12.019  14.680  65.165  1.00  0.00    -0.334 C  
BRANCH  11  12
HETATM   12  O   UNL     1     -10.946  14.444  66.090  1.00  0.00    -0.310 OA 
BRANCH  12  13
HETATM   13  C   UNL     1     -10.849  15.388  67.085  1.00  0.00    -0.321 A  
HETATM   14  C   UNL     1     -10.282  16.653  66.877  1.00  0.00    -0.291 A  
HETATM   15  C   UNL     1     -10.153  17.552  67.932  1.00  0.00    -0.330 A  
HETATM   16  C   UNL     1     -10.629  17.206  69.193  1.00  0.00    -0.259 A  
HETATM   17  C   UNL     1     -11.254  15.970  69.392  1.00  0.00    -0.349 A  
HETATM   18  C   UNL     1     -11.364  15.038  68.344  1.00  0.00    -0.323 A  
HETATM   19  C   UNL     1     -12.055  13.710  68.549  1.00  0.00    -0.321 C  
HETATM   20  C   UNL     1     -12.130  13.307  70.017  1.00  0.00    -0.385 C  
HETATM   21  C   UNL     1     -12.688  14.439  70.860  1.00  0.00    -0.425 C  
HETATM   22  C   UNL     1     -11.821  15.669  70.732  1.00  0.00    -0.384 C  
HETATM   23  O   UNL     1     -11.641  16.434  71.675  1.00  0.00    -0.443 OA 
ENDBRANCH  12  13
ENDBRANCH  11  12
ENDBRANCH   8  11
ENDBRANCH   7   8
ENDBRANCH   5   7
TORSDOF 5
ENDMDL
MODEL       22
REMARK 921   NORMALIZED FREE ENERGY PREDICTED BY IDOCK:   -6.04 KCAL/MOL
REMARK 922        TOTAL FREE ENERGY PREDICTED BY IDOCK:   -8.54 KCAL/MOL
REMARK 923 INTER-LIGAND FREE ENERGY PREDICTED BY IDOCK:   -8.29 KCAL/MOL
REMARK 924 INTRA-LIGAND FREE ENERGY PREDICTED BY IDOCK:   -0.25 KCAL/MOL
REMARK 927      BINDING AFFINITY PREDICTED BY RF-SCORE:    0.00 PKD
ROOT
HETATM    1  C   UNL     1     -13.113   9.332  72.368  1.00  0.00    -0.481 C  
HETATM    2  C   UNL     1     -12.283   8.223  71.697  1.00  0.00    -0.313 C  
HETATM    3  C   UNL     1     -13.215   7.022  71.437  1.00  0.00    -0.352 C  
HETATM    4  C   UNL     1     -11.154   7.762  72.631  1.00  0.00    -0.433 C  
HETATM    5  N   UNL     1     -11.762   8.651  70.380  1.00  0.00    -0.472 NA 
HETATM    6  H   UNL     1     -12.533   8.828  69.738  1.00  0.00     0.000 HD 
ENDROOT
BRANCH   5   7
HETATM    7  C   UNL     1     -10.855   9.808  70.413  1.00  0.00    -0.311 C  
BRANCH   7   8
HETATM    8  C   UNL     1     -11.378  11.058  69.674  1.00  0.00    -0.292 C  
HETATM    9  O   UNL     1     -12.609  10.708  69.021  1.00  0.00    -0.746 OA 
HETATM   10  H   UNL     1     -12.931  11.478  68.567  1.00  0.00     0.000 HD 
BRANCH   8  11
HETATM   11  C   UNL     1     -10.384  11.566  68.626  1.00  0.00    -0.210 C  
BRANCH  11  12
HETATM   12  O   UNL     1     -10.559  12.983  68.472  1.00  0.00    -0.249 OA 
BRANCH  12  13
HETATM   13  C   UNL     1     -11.083  13.352  67.256  1.00  0.00    -0.282 A  
HETATM   14  C   UNL     1     -11.871  12.493  66.479  1.00  0.00    -0.434 A  
HETATM   15  C   UNL     1     -12.330  12.892  65.226  1.00  0.00    -0.544 A  
HETATM   16  C   UNL     1     -12.036  14.172  64.762  1.00  0.00    -0.454 A  
HETATM   17  C   UNL     1     -11.304  15.057  65.561  1.00  0.00    -0.312 A  
HETATM   18  C   UNL     1     -10.807  14.657  66.816  1.00  0.00    -0.312 A  
HETATM   19  C   UNL     1     -10.032  15.615  67.690  1.00  0.00    -0.237 C  
HETATM   20  C   UNL     1      -9.439  16.778  66.904  1.00  0.00    -0.253 C  
HETATM   21  C   UNL     1     -10.494  17.438  66.035  1.00  0.00    -0.278 C  
HETATM   22  C   UNL     1     -11.079  16.439  65.066  1.00  0.00    -0.208 C  
HETATM   23  O   UNL     1     -11.422  16.763  63.933  1.00  0.00    -1.116 OA 
ENDBRANCH  12  13
ENDBRANCH  11  12
ENDBRANCH   8  11
ENDBRANCH   7   8
ENDBRANCH   5   7
TORSDOF 5
ENDMDL
MODEL       23
REMARK 921   NORMALIZED FREE ENERGY PREDICTED BY IDOCK:   -6.03 KCAL/MOL
REMARK 922        TOTAL FREE ENERGY PREDICTED BY IDOCK:   -8.53 KCAL/MOL
REMARK 923 INTER-LIGAND FREE ENERGY PREDICTED BY IDOCK:   -7.37 KCAL/MOL
REMARK 924 INTRA-LIGAND FREE ENERGY PREDICTED BY IDOCK:   -1.16 KCAL/MOL
REMARK 927      BINDING AFFINITY PREDICTED BY RF-SCORE:    0.00 PKD
ROOT
HETATM    1  C   UNL     1      -8.960   8.252  68.885  1.00  0.00    -0.144 C  
HETATM    2  C   UNL     1      -9.873   9.314  68.246  1.00  0.00    -0.158 C  
HETATM    3  C   UNL     1     -10.273   8.816  66.842  1.00  0.00    -0.357 C  
HETATM    4  C   UNL     1      -9.118  10.642  68.089  1.00  0.00    -0.148 C  
HETATM    5  N   UNL     1     -11.128   9.487  69.010  1.00  0.00    -0.432 NA 
HETATM    6  H   UNL     1     -11.673   8.625  68.990  1.00  0.00     0.000 HD 
ENDROOT
BRANCH   5   7
HETATM    7  C   UNL     1     -10.959   9.947  70.396  1.00  0.00    -0.318 C  
BRANCH   7   8
HETATM    8  C   UNL     1     -12.185  10.672  70.988  1.00  0.00    -0.393 C  
HETATM    9  O   UNL     1     -13.364   9.952  70.594  1.00  0.00    -0.617 OA 
HETATM   10  H   UNL     1     -14.119  10.399  70.958  1.00  0.00     0.000 HD 
BRANCH   8  11
HETATM   11  C   UNL     1     -12.295  12.117  70.494  1.00  0.00    -0.272 C  
BRANCH  11  12
HETATM   12  O   UNL     1     -12.076  12.139  69.074  1.00  0.00    -0.267 OA 
BRANCH  12  13
HETATM   13  C   UNL     1     -11.686  13.364  68.589  1.00  0.00    -0.349 A  
HETATM   14  C   UNL     1     -11.371  14.445  69.423  1.00  0.00    -0.319 A  
HETATM   15  C   UNL     1     -11.039  15.684  68.882  1.00  0.00    -0.290 A  
HETATM   16  C   UNL     1     -10.979  15.837  67.499  1.00  0.00    -0.293 A  
HETATM   17  C   UNL     1     -11.230  14.744  66.661  1.00  0.00    -0.346 A  
HETATM   18  C   UNL     1     -11.597  13.494  67.193  1.00  0.00    -0.393 A  
HETATM   19  C   UNL     1     -11.850  12.307  66.293  1.00  0.00    -0.387 C  
HETATM   20  C   UNL     1     -12.163  12.714  64.858  1.00  0.00    -0.531 C  
HETATM   21  C   UNL     1     -11.124  13.687  64.333  1.00  0.00    -0.378 C  
HETATM   22  C   UNL     1     -11.077  14.926  65.195  1.00  0.00    -0.393 C  
HETATM   23  O   UNL     1     -10.856  16.035  64.720  1.00  0.00    -0.587 OA 
ENDBRANCH  12  13
ENDBRANCH  11  12
ENDBRANCH   8  11
ENDBRANCH   7   8
ENDBRANCH   5   7
TORSDOF 5
ENDMDL
MODEL       24
REMARK 921   NORMALIZED FREE ENERGY PREDICTED BY IDOCK:   -6.02 KCAL/MOL
REMARK 922        TOTAL FREE ENERGY PREDICTED BY IDOCK:   -8.52 KCAL/MOL
REMARK 923 INTER-LIGAND FREE ENERGY PREDICTED BY IDOCK:   -7.91 KCAL/MOL
REMARK 924 INTRA-LIGAND FREE ENERGY PREDICTED BY IDOCK:   -0.61 KCAL/MOL
REMARK 927      BINDING AFFINITY PREDICTED BY RF-SCORE:    0.00 PKD
ROOT
HETATM    1  C   UNL     1     -10.682  19.335  67.481  1.00  0.00    -0.571 C  
HETATM    2  C   UNL     1      -9.527  18.384  67.842  1.00  0.00    -0.285 C  
HETATM    3  C   UNL     1      -8.444  19.206  68.571  1.00  0.00    -0.399 C  
HETATM    4  C   UNL     1      -8.905  17.791  66.568  1.00  0.00    -0.283 C  
HETATM    5  N   UNL     1      -9.963  17.326  68.780  1.00  0.00    -0.310 NA 
HETATM    6  H   UNL     1     -10.251  17.739  69.666  1.00  0.00     0.000 HD 
ENDROOT
BRANCH   5   7
HETATM    7  C   UNL     1     -11.015  16.434  68.271  1.00  0.00    -0.355 C  
BRANCH   7   8
HETATM    8  C   UNL     1     -11.834  15.716  69.364  1.00  0.00    -0.375 C  
HETATM    9  O   UNL     1     -11.554  16.350  70.622  1.00  0.00    -0.519 OA 
HETATM   10  H   UNL     1     -12.058  15.908  71.294  1.00  0.00     0.000 HD 
BRANCH   8  11
HETATM   11  C   UNL     1     -11.480  14.229  69.466  1.00  0.00    -0.287 C  
BRANCH  11  12
HETATM   12  O   UNL     1     -12.289  13.496  68.532  1.00  0.00    -0.223 OA 
BRANCH  12  13
HETATM   13  C   UNL     1     -11.576  12.633  67.734  1.00  0.00    -0.348 A  
HETATM   14  C   UNL     1     -10.799  11.588  68.252  1.00  0.00    -0.257 A  
HETATM   15  C   UNL     1     -10.048  10.778  67.405  1.00  0.00    -0.227 A  
HETATM   16  C   UNL     1     -10.103  10.983  66.030  1.00  0.00    -0.297 A  
HETATM   17  C   UNL     1     -10.926  11.984  65.502  1.00  0.00    -0.345 A  
HETATM   18  C   UNL     1     -11.667  12.831  66.346  1.00  0.00    -0.464 A  
HETATM   19  C   UNL     1     -12.572  13.901  65.781  1.00  0.00    -0.533 C  
HETATM   20  C   UNL     1     -12.209  14.280  64.349  1.00  0.00    -0.471 C  
HETATM   21  C   UNL     1     -12.082  13.043  63.478  1.00  0.00    -0.617 C  
HETATM   22  C   UNL     1     -11.019  12.120  64.025  1.00  0.00    -0.380 C  
HETATM   23  O   UNL     1     -10.301  11.453  63.288  1.00  0.00    -0.363 OA 
ENDBRANCH  12  13
ENDBRANCH  11  12
ENDBRANCH   8  11
ENDBRANCH   7   8
ENDBRANCH   5   7
TORSDOF 5
ENDMDL
MODEL       25
REMARK 921   NORMALIZED FREE ENERGY PREDICTED BY IDOCK:   -6.01 KCAL/MOL
REMARK 922        TOTAL FREE ENERGY PREDICTED BY IDOCK:   -8.50 KCAL/MOL
REMARK 923 INTER-LIGAND FREE ENERGY PREDICTED BY IDOCK:   -7.59 KCAL/MOL
REMARK 924 INTRA-LIGAND FREE ENERGY PREDICTED BY IDOCK:   -0.91 KCAL/MOL
REMARK 927      BINDING AFFINITY PREDICTED BY RF-SCORE:    0.00 PKD
ROOT
HETATM    1  C   UNL     1     -12.346   6.764  71.649  1.00  0.00    -0.409 C  
HETATM    2  C   UNL     1     -11.175   7.139  70.724  1.00  0.00    -0.279 C  
HETATM    3  C   UNL     1     -11.212   6.196  69.503  1.00  0.00    -0.482 C  
HETATM    4  C   UNL     1      -9.836   6.936  71.447  1.00  0.00    -0.184 C  
HETATM    5  N   UNL     1     -11.310   8.517  70.202  1.00  0.00    -0.438 NA 
HETATM    6  H   UNL     1     -12.142   8.592  69.618  1.00  0.00     0.000 HD 
ENDROOT
BRANCH   5   7
HETATM    7  C   UNL     1     -11.312   9.575  71.223  1.00  0.00    -0.376 C  
BRANCH   7   8
HETATM    8  C   UNL     1     -12.510  10.543  71.144  1.00  0.00    -0.412 C  
HETATM    9  O   UNL     1     -13.578   9.878  70.451  1.00  0.00    -0.547 OA 
HETATM   10  H   UNL     1     -14.315  10.475  70.403  1.00  0.00     0.000 HD 
BRANCH   8  11
HETATM   11  C   UNL     1     -12.160  11.834  70.399  1.00  0.00    -0.352 C  
BRANCH  11  12
HETATM   12  O   UNL     1     -11.099  11.560  69.471  1.00  0.00    -0.244 OA 
BRANCH  12  13
HETATM   13  C   UNL     1     -11.288  12.114  68.228  1.00  0.00    -0.289 A  
HETATM   14  C   UNL     1     -11.920  13.350  68.037  1.00  0.00    -0.357 A  
HETATM   15  C   UNL     1     -12.142  13.841  66.753  1.00  0.00    -0.460 A  
HETATM   16  C   UNL     1     -11.692  13.117  65.653  1.00  0.00    -0.402 A  
HETATM   17  C   UNL     1     -11.003  11.913  65.839  1.00  0.00    -0.354 A  
HETATM   18  C   UNL     1     -10.800  11.388  67.128  1.00  0.00    -0.316 A  
HETATM   19  C   UNL     1     -10.040  10.099  67.336  1.00  0.00    -0.251 C  
HETATM   20  C   UNL     1      -9.995   9.235  66.081  1.00  0.00    -0.348 C  
HETATM   21  C   UNL     1      -9.537  10.046  64.882  1.00  0.00    -0.375 C  
HETATM   22  C   UNL     1     -10.469  11.209  64.644  1.00  0.00    -0.335 C  
HETATM   23  O   UNL     1     -10.729  11.609  63.514  1.00  0.00    -0.381 OA 
ENDBRANCH  12  13
ENDBRANCH  11  12
ENDBRANCH   8  11
ENDBRANCH   7   8
ENDBRANCH   5   7
TORSDOF 5
ENDMDL
MODEL       26
REMARK 921   NORMALIZED FREE ENERGY PREDICTED BY IDOCK:   -6.01 KCAL/MOL
REMARK 922        TOTAL FREE ENERGY PREDICTED BY IDOCK:   -8.49 KCAL/MOL
REMARK 923 INTER-LIGAND FREE ENERGY PREDICTED BY IDOCK:   -7.93 KCAL/MOL
REMARK 924 INTRA-LIGAND FREE ENERGY PREDICTED BY IDOCK:   -0.56 KCAL/MOL
REMARK 927      BINDING AFFINITY PREDICTED BY RF-SCORE:    0.00 PKD
ROOT
HETATM    1  C   UNL     1      -8.346  18.662  66.164  1.00  0.00    -0.174 C  
HETATM    2  C   UNL     1      -9.752  18.345  66.702  1.00  0.00    -0.337 C  
HETATM    3  C   UNL     1     -10.558  19.660  66.731  1.00  0.00    -0.602 C  
HETATM    4  C   UNL     1      -9.665  17.802  68.136  1.00  0.00    -0.313 C  
HETATM    5  N   UNL     1     -10.483  17.417  65.811  1.00  0.00    -0.551 NA 
HETATM    6  H   UNL     1     -10.640  17.854  64.902  1.00  0.00     0.000 HD 
ENDROOT
BRANCH   5   7
HETATM    7  C   UNL     1      -9.860  16.097  65.637  1.00  0.00    -0.255 C  
BRANCH   7   8
HETATM    8  C   UNL     1     -10.856  14.940  65.413  1.00  0.00    -0.369 C  
HETATM    9  O   UNL     1     -11.674  15.267  64.279  1.00  0.00    -0.656 OA 
HETATM   10  H   UNL     1     -12.288  14.555  64.142  1.00  0.00     0.000 HD 
BRANCH   8  11
HETATM   11  C   UNL     1     -11.757  14.712  66.630  1.00  0.00    -0.333 C  
BRANCH  11  12
HETATM   12  O   UNL     1     -10.939  14.665  67.810  1.00  0.00    -0.271 OA 
BRANCH  12  13
HETATM   13  C   UNL     1     -11.650  14.508  68.975  1.00  0.00    -0.298 A  
HETATM   14  C   UNL     1     -12.236  15.583  69.657  1.00  0.00    -0.297 A  
HETATM   15  C   UNL     1     -12.895  15.380  70.866  1.00  0.00    -0.536 A  
HETATM   16  C   UNL     1     -13.008  14.091  71.380  1.00  0.00    -0.427 A  
HETATM   17  C   UNL     1     -12.481  13.005  70.672  1.00  0.00    -0.347 A  
HETATM   18  C   UNL     1     -11.785  13.198  69.465  1.00  0.00    -0.382 A  
HETATM   19  C   UNL     1     -11.230  12.027  68.688  1.00  0.00    -0.309 C  
HETATM   20  C   UNL     1     -11.052  10.782  69.549  1.00  0.00    -0.334 C  
HETATM   21  C   UNL     1     -12.321  10.474  70.323  1.00  0.00    -0.377 C  
HETATM   22  C   UNL     1     -12.691  11.637  71.213  1.00  0.00    -0.340 C  
HETATM   23  O   UNL     1     -13.209  11.471  72.312  1.00  0.00    -0.425 OA 
ENDBRANCH  12  13
ENDBRANCH  11  12
ENDBRANCH   8  11
ENDBRANCH   7   8
ENDBRANCH   5   7
TORSDOF 5
ENDMDL
MODEL       27
REMARK 921   NORMALIZED FREE ENERGY PREDICTED BY IDOCK:   -6.01 KCAL/MOL
REMARK 922        TOTAL FREE ENERGY PREDICTED BY IDOCK:   -8.49 KCAL/MOL
REMARK 923 INTER-LIGAND FREE ENERGY PREDICTED BY IDOCK:   -7.57 KCAL/MOL
REMARK 924 INTRA-LIGAND FREE ENERGY PREDICTED BY IDOCK:   -0.92 KCAL/MOL
REMARK 927      BINDING AFFINITY PREDICTED BY RF-SCORE:    0.00 PKD
ROOT
HETATM    1  C   UNL     1     -10.014  13.217  68.172  1.00  0.00    -0.234 C  
HETATM    2  C   UNL     1     -11.534  12.993  68.264  1.00  0.00    -0.312 C  
HETATM    3  C   UNL     1     -12.004  13.479  69.650  1.00  0.00    -0.397 C  
HETATM    4  C   UNL     1     -11.861  11.497  68.142  1.00  0.00    -0.306 C  
HETATM    5  N   UNL     1     -12.266  13.795  67.260  1.00  0.00    -0.428 NA 
HETATM    6  H   UNL     1     -12.135  14.790  67.441  1.00  0.00     0.000 HD 
ENDROOT
BRANCH   5   7
HETATM    7  C   UNL     1     -11.943  13.489  65.858  1.00  0.00    -0.406 C  
BRANCH   7   8
HETATM    8  C   UNL     1     -12.116  14.674  64.885  1.00  0.00    -0.382 C  
HETATM    9  O   UNL     1     -12.262  14.145  63.558  1.00  0.00    -1.007 OA 
HETATM   10  H   UNL     1     -12.368  14.875  62.959  1.00  0.00     0.000 HD 
BRANCH   8  11
HETATM   11  C   UNL     1     -10.914  15.623  64.913  1.00  0.00    -0.431 C  
BRANCH  11  12
HETATM   12  O   UNL     1     -10.762  16.138  66.246  1.00  0.00    -0.294 OA 
BRANCH  12  13
HETATM   13  C   UNL     1      -9.507  16.629  66.514  1.00  0.00    -0.266 A  
HETATM   14  C   UNL     1      -8.349  15.847  66.410  1.00  0.00    -0.310 A  
HETATM   15  C   UNL     1      -7.106  16.374  66.751  1.00  0.00    -0.233 A  
HETATM   16  C   UNL     1      -7.010  17.701  67.159  1.00  0.00    -0.192 A  
HETATM   17  C   UNL     1      -8.154  18.505  67.204  1.00  0.00    -0.248 A  
HETATM   18  C   UNL     1      -9.421  17.979  66.893  1.00  0.00    -0.288 A  
HETATM   19  C   UNL     1     -10.657  18.848  66.921  1.00  0.00    -0.495 C  
HETATM   20  C   UNL     1     -10.473  20.101  67.770  1.00  0.00    -0.397 C  
HETATM   21  C   UNL     1      -9.202  20.834  67.384  1.00  0.00    -0.363 C  
HETATM   22  C   UNL     1      -8.000  19.938  67.567  1.00  0.00    -0.296 C  
HETATM   23  O   UNL     1      -6.916  20.378  67.935  1.00  0.00    -0.288 OA 
ENDBRANCH  12  13
ENDBRANCH  11  12
ENDBRANCH   8  11
ENDBRANCH   7   8
ENDBRANCH   5   7
TORSDOF 5
ENDMDL
MODEL       28
REMARK 921   NORMALIZED FREE ENERGY PREDICTED BY IDOCK:   -5.98 KCAL/MOL
REMARK 922        TOTAL FREE ENERGY PREDICTED BY IDOCK:   -8.46 KCAL/MOL
REMARK 923 INTER-LIGAND FREE ENERGY PREDICTED BY IDOCK:   -7.41 KCAL/MOL
REMARK 924 INTRA-LIGAND FREE ENERGY PREDICTED BY IDOCK:   -1.05 KCAL/MOL
REMARK 927      BINDING AFFINITY PREDICTED BY RF-SCORE:    0.00 PKD
ROOT
HETATM    1  C   UNL     1      -9.127  11.994  66.852  1.00  0.00    -0.196 C  
HETATM    2  C   UNL     1     -10.334  11.041  66.895  1.00  0.00    -0.235 C  
HETATM    3  C   UNL     1     -10.601  10.678  68.371  1.00  0.00    -0.231 C  
HETATM    4  C   UNL     1     -10.020   9.747  66.131  1.00  0.00    -0.338 C  
HETATM    5  N   UNL     1     -11.562  11.691  66.387  1.00  0.00    -0.446 NA 
HETATM    6  H   UNL     1     -11.821  12.472  66.989  1.00  0.00     0.000 HD 
ENDROOT
BRANCH   5   7
HETATM    7  C   UNL     1     -11.503  12.131  64.985  1.00  0.00    -0.323 C  
BRANCH   7   8
HETATM    8  C   UNL     1     -12.526  13.223  64.610  1.00  0.00    -0.349 C  
HETATM    9  O   UNL     1     -12.188  13.724  63.307  1.00  0.00    -1.021 OA 
HETATM   10  H   UNL     1     -12.818  14.397  63.077  1.00  0.00     0.000 HD 
BRANCH   8  11
HETATM   11  C   UNL     1     -12.522  14.384  65.608  1.00  0.00    -0.333 C  
BRANCH  11  12
HETATM   12  O   UNL     1     -11.162  14.770  65.863  1.00  0.00    -0.335 OA 
BRANCH  12  13
HETATM   13  C   UNL     1     -10.969  15.356  67.091  1.00  0.00    -0.317 A  
HETATM   14  C   UNL     1     -11.137  14.662  68.297  1.00  0.00    -0.283 A  
HETATM   15  C   UNL     1     -10.988  15.316  69.517  1.00  0.00    -0.280 A  
HETATM   16  C   UNL     1     -10.630  16.661  69.537  1.00  0.00    -0.308 A  
HETATM   17  C   UNL     1     -10.399  17.344  68.337  1.00  0.00    -0.379 A  
HETATM   18  C   UNL     1     -10.575  16.704  67.096  1.00  0.00    -0.264 A  
HETATM   19  C   UNL     1     -10.309  17.431  65.798  1.00  0.00    -0.226 C  
HETATM   20  C   UNL     1     -10.349  18.947  65.955  1.00  0.00    -0.485 C  
HETATM   21  C   UNL     1      -9.477  19.394  67.113  1.00  0.00    -0.398 C  
HETATM   22  C   UNL     1      -9.940  18.755  68.401  1.00  0.00    -0.392 C  
HETATM   23  O   UNL     1      -9.881  19.347  69.474  1.00  0.00    -0.272 OA 
ENDBRANCH  12  13
ENDBRANCH  11  12
ENDBRANCH   8  11
ENDBRANCH   7   8
ENDBRANCH   5   7
TORSDOF 5
ENDMDL
MODEL       29
REMARK 921   NORMALIZED FREE ENERGY PREDICTED BY IDOCK:   -5.97 KCAL/MOL
REMARK 922        TOTAL FREE ENERGY PREDICTED BY IDOCK:   -8.45 KCAL/MOL
REMARK 923 INTER-LIGAND FREE ENERGY PREDICTED BY IDOCK:   -8.05 KCAL/MOL
REMARK 924 INTRA-LIGAND FREE ENERGY PREDICTED BY IDOCK:   -0.40 KCAL/MOL
REMARK 927      BINDING AFFINITY PREDICTED BY RF-SCORE:    0.00 PKD
ROOT
HETATM    1  C   UNL     1      -9.959   7.214  72.554  1.00  0.00    -0.196 C  
HETATM    2  C   UNL     1     -11.069   6.262  72.076  1.00  0.00    -0.268 C  
HETATM    3  C   UNL     1     -11.010   4.988  72.945  1.00  0.00    -0.342 C  
HETATM    4  C   UNL     1     -10.833   5.857  70.613  1.00  0.00    -0.363 C  
HETATM    5  N   UNL     1     -12.414   6.847  72.271  1.00  0.00    -0.528 NA 
HETATM    6  H   UNL     1     -12.596   6.987  73.264  1.00  0.00     0.000 HD 
ENDROOT
BRANCH   5   7
HETATM    7  C   UNL     1     -12.667   8.092  71.530  1.00  0.00    -0.308 C  
BRANCH   7   8
HETATM    8  C   UNL     1     -13.073   9.293  72.409  1.00  0.00    -0.406 C  
HETATM    9  O   UNL     1     -14.067   8.848  73.344  1.00  0.00    -1.256 OA 
HETATM   10  H   UNL     1     -14.317   9.588  73.885  1.00  0.00     0.000 HD 
BRANCH   8  11
HETATM   11  C   UNL     1     -13.647  10.445  71.580  1.00  0.00    -0.119 C  
BRANCH  11  12
HETATM   12  O   UNL     1     -12.572  11.103  70.892  1.00  0.00    -0.360 OA 
BRANCH  12  13
HETATM   13  C   UNL     1     -12.642  12.475  70.927  1.00  0.00    -0.241 A  
HETATM   14  C   UNL     1     -13.377  13.171  71.897  1.00  0.00    -0.546 A  
HETATM   15  C   UNL     1     -13.466  14.560  71.854  1.00  0.00    -0.466 A  
HETATM   16  C   UNL     1     -12.786  15.263  70.865  1.00  0.00    -0.496 A  
HETATM   17  C   UNL     1     -11.999  14.578  69.932  1.00  0.00    -0.382 A  
HETATM   18  C   UNL     1     -11.924  13.173  69.943  1.00  0.00    -0.387 A  
HETATM   19  C   UNL     1     -11.061  12.429  68.950  1.00  0.00    -0.307 C  
HETATM   20  C   UNL     1     -10.740  13.260  67.713  1.00  0.00    -0.256 C  
HETATM   21  C   UNL     1     -10.210  14.628  68.102  1.00  0.00    -0.231 C  
HETATM   22  C   UNL     1     -11.224  15.368  68.941  1.00  0.00    -0.292 C  
HETATM   23  O   UNL     1     -11.363  16.585  68.862  1.00  0.00    -0.300 OA 
ENDBRANCH  12  13
ENDBRANCH  11  12
ENDBRANCH   8  11
ENDBRANCH   7   8
ENDBRANCH   5   7
TORSDOF 5
ENDMDL
MODEL       30
REMARK 921   NORMALIZED FREE ENERGY PREDICTED BY IDOCK:   -5.97 KCAL/MOL
REMARK 922        TOTAL FREE ENERGY PREDICTED BY IDOCK:   -8.44 KCAL/MOL
REMARK 923 INTER-LIGAND FREE ENERGY PREDICTED BY IDOCK:   -7.57 KCAL/MOL
REMARK 924 INTRA-LIGAND FREE ENERGY PREDICTED BY IDOCK:   -0.87 KCAL/MOL
REMARK 927      BINDING AFFINITY PREDICTED BY RF-SCORE:    0.00 PKD
ROOT
HETATM    1  C   UNL     1     -11.780  12.320  66.215  1.00  0.00    -0.431 C  
HETATM    2  C   UNL     1     -11.634  13.851  66.144  1.00  0.00    -0.359 C  
HETATM    3  C   UNL     1     -12.552  14.365  65.015  1.00  0.00    -0.309 C  
HETATM    4  C   UNL     1     -10.187  14.233  65.799  1.00  0.00    -0.351 C  
HETATM    5  N   UNL     1     -12.088  14.502  67.392  1.00  0.00    -0.579 NA 
HETATM    6  H   UNL     1     -13.085  14.339  67.531  1.00  0.00     0.000 HD 
ENDROOT
BRANCH   5   7
HETATM    7  C   UNL     1     -11.340  14.126  68.601  1.00  0.00    -0.277 C  
BRANCH   7   8
HETATM    8  C   UNL     1     -11.562  15.058  69.811  1.00  0.00    -0.304 C  
HETATM    9  O   UNL     1     -12.872  15.634  69.697  1.00  0.00    -0.559 OA 
HETATM   10  H   UNL     1     -13.008  16.208  70.441  1.00  0.00     0.000 HD 
BRANCH   8  11
HETATM   11  C   UNL     1     -10.525  16.183  69.869  1.00  0.00    -0.261 C  
BRANCH  11  12
HETATM   12  O   UNL     1      -9.873  16.279  68.593  1.00  0.00    -0.214 OA 
BRANCH  12  13
HETATM   13  C   UNL     1      -9.798  17.559  68.099  1.00  0.00    -0.306 A  
HETATM   14  C   UNL     1     -10.888  18.207  67.502  1.00  0.00    -0.264 A  
HETATM   15  C   UNL     1     -10.745  19.483  66.964  1.00  0.00    -0.592 A  
HETATM   16  C   UNL     1      -9.519  20.136  67.057  1.00  0.00    -0.541 A  
HETATM   17  C   UNL     1      -8.444  19.520  67.709  1.00  0.00    -0.352 A  
HETATM   18  C   UNL     1      -8.565  18.219  68.230  1.00  0.00    -0.299 A  
HETATM   19  C   UNL     1      -7.413  17.557  68.951  1.00  0.00    -0.234 C  
HETATM   20  C   UNL     1      -6.067  18.183  68.606  1.00  0.00    -0.197 C  
HETATM   21  C   UNL     1      -6.117  19.692  68.760  1.00  0.00    -0.281 C  
HETATM   22  C   UNL     1      -7.176  20.279  67.859  1.00  0.00    -0.284 C  
HETATM   23  O   UNL     1      -7.033  21.372  67.320  1.00  0.00    -0.573 OA 
ENDBRANCH  12  13
ENDBRANCH  11  12
ENDBRANCH   8  11
ENDBRANCH   7   8
ENDBRANCH   5   7
TORSDOF 5
ENDMDL
MODEL       31
REMARK 921   NORMALIZED FREE ENERGY PREDICTED BY IDOCK:   -5.95 KCAL/MOL
REMARK 922        TOTAL FREE ENERGY PREDICTED BY IDOCK:   -8.42 KCAL/MOL
REMARK 923 INTER-LIGAND FREE ENERGY PREDICTED BY IDOCK:   -7.86 KCAL/MOL
REMARK 924 INTRA-LIGAND FREE ENERGY PREDICTED BY IDOCK:   -0.56 KCAL/MOL
REMARK 927      BINDING AFFINITY PREDICTED BY RF-SCORE:    0.00 PKD
ROOT
HETATM    1  C   UNL     1     -10.534  10.998  64.540  1.00  0.00    -0.411 C  
HETATM    2  C   UNL     1     -11.420  12.253  64.643  1.00  0.00    -0.336 C  
HETATM    3  C   UNL     1     -12.405  12.238  63.455  1.00  0.00    -0.670 C  
HETATM    4  C   UNL     1     -10.562  13.522  64.540  1.00  0.00    -0.439 C  
HETATM    5  N   UNL     1     -12.238  12.245  65.875  1.00  0.00    -0.600 NA 
HETATM    6  H   UNL     1     -12.891  11.462  65.859  1.00  0.00     0.000 HD 
ENDROOT
BRANCH   5   7
HETATM    7  C   UNL     1     -11.475  12.242  67.132  1.00  0.00    -0.352 C  
BRANCH   7   8
HETATM    8  C   UNL     1     -11.771  13.433  68.068  1.00  0.00    -0.356 C  
HETATM    9  O   UNL     1     -12.534  14.401  67.331  1.00  0.00    -0.603 OA 
HETATM   10  H   UNL     1     -12.716  15.134  67.908  1.00  0.00     0.000 HD 
BRANCH   8  11
HETATM   11  C   UNL     1     -10.489  14.094  68.582  1.00  0.00    -0.250 C  
BRANCH  11  12
HETATM   12  O   UNL     1     -10.669  15.519  68.577  1.00  0.00    -0.243 OA 
BRANCH  12  13
HETATM   13  C   UNL     1      -9.494  16.230  68.621  1.00  0.00    -0.228 A  
HETATM   14  C   UNL     1      -8.308  15.702  69.152  1.00  0.00    -0.251 A  
HETATM   15  C   UNL     1      -7.159  16.483  69.230  1.00  0.00    -0.219 A  
HETATM   16  C   UNL     1      -7.177  17.785  68.737  1.00  0.00    -0.271 A  
HETATM   17  C   UNL     1      -8.339  18.296  68.148  1.00  0.00    -0.296 A  
HETATM   18  C   UNL     1      -9.518  17.530  68.091  1.00  0.00    -0.291 A  
HETATM   19  C   UNL     1     -10.769  18.070  67.439  1.00  0.00    -0.334 C  
HETATM   20  C   UNL     1     -10.772  19.591  67.345  1.00  0.00    -0.589 C  
HETATM   21  C   UNL     1      -9.479  20.098  66.732  1.00  0.00    -0.533 C  
HETATM   22  C   UNL     1      -8.296  19.660  67.562  1.00  0.00    -0.302 C  
HETATM   23  O   UNL     1      -7.304  20.370  67.697  1.00  0.00    -0.288 OA 
ENDBRANCH  12  13
ENDBRANCH  11  12
ENDBRANCH   8  11
ENDBRANCH   7   8
ENDBRANCH   5   7
TORSDOF 5
ENDMDL
MODEL       32
REMARK 921   NORMALIZED FREE ENERGY PREDICTED BY IDOCK:   -5.95 KCAL/MOL
REMARK 922        TOTAL FREE ENERGY PREDICTED BY IDOCK:   -8.42 KCAL/MOL
REMARK 923 INTER-LIGAND FREE ENERGY PREDICTED BY IDOCK:   -7.58 KCAL/MOL
REMARK 924 INTRA-LIGAND FREE ENERGY PREDICTED BY IDOCK:   -0.84 KCAL/MOL
REMARK 927      BINDING AFFINITY PREDICTED BY RF-SCORE:    0.00 PKD
ROOT
HETATM    1  C   UNL     1      -9.681  10.101  64.705  1.00  0.00    -0.389 C  
HETATM    2  C   UNL     1      -9.692  11.290  65.682  1.00  0.00    -0.230 C  
HETATM    3  C   UNL     1      -8.299  11.379  66.339  1.00  0.00    -0.140 C  
HETATM    4  C   UNL     1     -10.732  11.064  66.788  1.00  0.00    -0.319 C  
HETATM    5  N   UNL     1      -9.913  12.573  64.979  1.00  0.00    -0.436 NA 
HETATM    6  H   UNL     1      -9.140  12.762  64.341  1.00  0.00     0.000 HD 
ENDROOT
BRANCH   5   7
HETATM    7  C   UNL     1     -11.195  12.683  64.266  1.00  0.00    -0.362 C  
BRANCH   7   8
HETATM    8  C   UNL     1     -12.081  13.864  64.715  1.00  0.00    -0.419 C  
HETATM    9  O   UNL     1     -12.250  14.746  63.595  1.00  0.00    -0.969 OA 
HETATM   10  H   UNL     1     -12.796  15.473  63.871  1.00  0.00     0.000 HD 
BRANCH   8  11
HETATM   11  C   UNL     1     -11.456  14.644  65.875  1.00  0.00    -0.338 C  
BRANCH  11  12
HETATM   12  O   UNL     1     -10.568  15.638  65.339  1.00  0.00    -0.363 OA 
BRANCH  12  13
HETATM   13  C   UNL     1      -9.563  16.011  66.200  1.00  0.00    -0.334 A  
HETATM   14  C   UNL     1      -8.567  15.124  66.632  1.00  0.00    -0.279 A  
HETATM   15  C   UNL     1      -7.606  15.534  67.552  1.00  0.00    -0.201 A  
HETATM   16  C   UNL     1      -7.610  16.847  68.012  1.00  0.00    -0.182 A  
HETATM   17  C   UNL     1      -8.563  17.754  67.536  1.00  0.00    -0.228 A  
HETATM   18  C   UNL     1      -9.560  17.347  66.631  1.00  0.00    -0.283 A  
HETATM   19  C   UNL     1     -10.580  18.328  66.099  1.00  0.00    -0.326 C  
HETATM   20  C   UNL     1     -10.727  19.560  66.985  1.00  0.00    -0.592 C  
HETATM   21  C   UNL     1      -9.372  20.170  67.292  1.00  0.00    -0.519 C  
HETATM   22  C   UNL     1      -8.487  19.167  67.991  1.00  0.00    -0.309 C  
HETATM   23  O   UNL     1      -7.684  19.505  68.855  1.00  0.00    -0.358 OA 
ENDBRANCH  12  13
ENDBRANCH  11  12
ENDBRANCH   8  11
ENDBRANCH   7   8
ENDBRANCH   5   7
TORSDOF 5
ENDMDL
MODEL       33
REMARK 921   NORMALIZED FREE ENERGY PREDICTED BY IDOCK:   -5.94 KCAL/MOL
REMARK 922        TOTAL FREE ENERGY PREDICTED BY IDOCK:   -8.40 KCAL/MOL
REMARK 923 INTER-LIGAND FREE ENERGY PREDICTED BY IDOCK:   -7.55 KCAL/MOL
REMARK 924 INTRA-LIGAND FREE ENERGY PREDICTED BY IDOCK:   -0.85 KCAL/MOL
REMARK 927      BINDING AFFINITY PREDICTED BY RF-SCORE:    0.00 PKD
ROOT
HETATM    1  C   UNL     1     -11.516  12.140  66.701  1.00  0.00    -0.426 C  
HETATM    2  C   UNL     1     -11.682  13.660  66.520  1.00  0.00    -0.382 C  
HETATM    3  C   UNL     1     -12.749  13.895  65.430  1.00  0.00    -0.525 C  
HETATM    4  C   UNL     1     -10.364  14.289  66.047  1.00  0.00    -0.318 C  
HETATM    5  N   UNL     1     -12.184  14.305  67.753  1.00  0.00    -0.598 NA 
HETATM    6  H   UNL     1     -13.119  13.962  67.974  1.00  0.00     0.000 HD 
ENDROOT
BRANCH   5   7
HETATM    7  C   UNL     1     -11.308  14.178  68.927  1.00  0.00    -0.277 C  
BRANCH   7   8
HETATM    8  C   UNL     1     -11.991  14.483  70.276  1.00  0.00    -0.314 C  
HETATM    9  O   UNL     1     -10.997  15.001  71.174  1.00  0.00    -0.545 OA 
HETATM   10  H   UNL     1     -11.418  15.188  72.005  1.00  0.00     0.000 HD 
BRANCH   8  11
HETATM   11  C   UNL     1     -12.622  13.234  70.897  1.00  0.00    -0.306 C  
BRANCH  11  12
HETATM   12  O   UNL     1     -12.240  12.087  70.121  1.00  0.00    -0.287 OA 
BRANCH  12  13
HETATM   13  C   UNL     1     -12.313  10.899  70.807  1.00  0.00    -0.390 A  
HETATM   14  C   UNL     1     -13.378  10.581  71.661  1.00  0.00    -0.423 A  
HETATM   15  C   UNL     1     -13.377   9.389  72.381  1.00  0.00    -0.503 A  
HETATM   16  C   UNL     1     -12.329   8.488  72.218  1.00  0.00    -0.450 A  
HETATM   17  C   UNL     1     -11.295   8.771  71.319  1.00  0.00    -0.357 A  
HETATM   18  C   UNL     1     -11.266   9.985  70.608  1.00  0.00    -0.425 A  
HETATM   19  C   UNL     1     -10.161  10.286  69.622  1.00  0.00    -0.268 C  
HETATM   20  C   UNL     1      -8.913   9.445  69.863  1.00  0.00    -0.215 C  
HETATM   21  C   UNL     1      -9.266   7.973  69.977  1.00  0.00    -0.156 C  
HETATM   22  C   UNL     1     -10.236   7.750  71.112  1.00  0.00    -0.195 C  
HETATM   23  O   UNL     1     -10.201   6.735  71.801  1.00  0.00    -0.191 OA 
ENDBRANCH  12  13
ENDBRANCH  11  12
ENDBRANCH   8  11
ENDBRANCH   7   8
ENDBRANCH   5   7
TORSDOF 5
ENDMDL
MODEL       34
REMARK 921   NORMALIZED FREE ENERGY PREDICTED BY IDOCK:   -5.93 KCAL/MOL
REMARK 922        TOTAL FREE ENERGY PREDICTED BY IDOCK:   -8.39 KCAL/MOL
REMARK 923 INTER-LIGAND FREE ENERGY PREDICTED BY IDOCK:   -7.74 KCAL/MOL
REMARK 924 INTRA-LIGAND FREE ENERGY PREDICTED BY IDOCK:   -0.65 KCAL/MOL
REMARK 927      BINDING AFFINITY PREDICTED BY RF-SCORE:    0.00 PKD
ROOT
HETATM    1  C   UNL     1     -12.067   6.469  71.748  1.00  0.00    -0.393 C  
HETATM    2  C   UNL     1     -11.110   7.075  70.705  1.00  0.00    -0.272 C  
HETATM    3  C   UNL     1     -11.160   6.189  69.442  1.00  0.00    -0.479 C  
HETATM    4  C   UNL     1      -9.670   7.072  71.237  1.00  0.00    -0.171 C  
HETATM    5  N   UNL     1     -11.538   8.430  70.292  1.00  0.00    -0.468 NA 
HETATM    6  H   UNL     1     -12.443   8.385  69.825  1.00  0.00     0.000 HD 
ENDROOT
BRANCH   5   7
HETATM    7  C   UNL     1     -11.572   9.430  71.370  1.00  0.00    -0.381 C  
BRANCH   7   8
HETATM    8  C   UNL     1     -12.927  10.149  71.537  1.00  0.00    -0.444 C  
HETATM    9  O   UNL     1     -13.900   9.461  70.736  1.00  0.00    -0.570 OA 
HETATM   10  H   UNL     1     -14.735   9.904  70.840  1.00  0.00     0.000 HD 
BRANCH   8  11
HETATM   11  C   UNL     1     -12.861  11.613  71.094  1.00  0.00    -0.294 C  
BRANCH  11  12
HETATM   12  O   UNL     1     -12.024  11.707  69.930  1.00  0.00    -0.309 OA 
BRANCH  12  13
HETATM   13  C   UNL     1     -11.869  12.987  69.456  1.00  0.00    -0.323 A  
HETATM   14  C   UNL     1     -11.938  14.116  70.285  1.00  0.00    -0.404 A  
HETATM   15  C   UNL     1     -11.834  15.396  69.747  1.00  0.00    -0.367 A  
HETATM   16  C   UNL     1     -11.618  15.553  68.381  1.00  0.00    -0.368 A  
HETATM   17  C   UNL     1     -11.485  14.428  67.558  1.00  0.00    -0.370 A  
HETATM   18  C   UNL     1     -11.619  13.129  68.081  1.00  0.00    -0.375 A  
HETATM   19  C   UNL     1     -11.457  11.912  67.201  1.00  0.00    -0.386 C  
HETATM   20  C   UNL     1     -11.654  12.227  65.722  1.00  0.00    -0.443 C  
HETATM   21  C   UNL     1     -10.809  13.417  65.306  1.00  0.00    -0.318 C  
HETATM   22  C   UNL     1     -11.176  14.635  66.120  1.00  0.00    -0.341 C  
HETATM   23  O   UNL     1     -11.158  15.763  65.638  1.00  0.00    -0.265 OA 
ENDBRANCH  12  13
ENDBRANCH  11  12
ENDBRANCH   8  11
ENDBRANCH   7   8
ENDBRANCH   5   7
TORSDOF 5
ENDMDL
MODEL       35
REMARK 921   NORMALIZED FREE ENERGY PREDICTED BY IDOCK:   -5.93 KCAL/MOL
REMARK 922        TOTAL FREE ENERGY PREDICTED BY IDOCK:   -8.39 KCAL/MOL
REMARK 923 INTER-LIGAND FREE ENERGY PREDICTED BY IDOCK:   -8.09 KCAL/MOL
REMARK 924 INTRA-LIGAND FREE ENERGY PREDICTED BY IDOCK:   -0.30 KCAL/MOL
REMARK 927      BINDING AFFINITY PREDICTED BY RF-SCORE:    0.00 PKD
ROOT
HETATM    1  C   UNL     1     -13.204   9.184  72.096  1.00  0.00    -0.524 C  
HETATM    2  C   UNL     1     -12.035   8.477  71.387  1.00  0.00    -0.300 C  
HETATM    3  C   UNL     1     -12.469   7.028  71.085  1.00  0.00    -0.407 C  
HETATM    4  C   UNL     1     -10.805   8.430  72.305  1.00  0.00    -0.422 C  
HETATM    5  N   UNL     1     -11.722   9.109  70.087  1.00  0.00    -0.465 NA 
HETATM    6  H   UNL     1     -12.514   9.013  69.450  1.00  0.00     0.000 HD 
ENDROOT
BRANCH   5   7
HETATM    7  C   UNL     1     -11.299  10.515  70.160  1.00  0.00    -0.323 C  
BRANCH   7   8
HETATM    8  C   UNL     1     -12.008  11.454  69.162  1.00  0.00    -0.328 C  
HETATM    9  O   UNL     1     -12.003  10.821  67.872  1.00  0.00    -0.753 OA 
HETATM   10  H   UNL     1     -12.439  11.399  67.258  1.00  0.00     0.000 HD 
BRANCH   8  11
HETATM   11  C   UNL     1     -11.310  12.812  69.053  1.00  0.00    -0.294 C  
BRANCH  11  12
HETATM   12  O   UNL     1     -12.221  13.755  68.466  1.00  0.00    -0.348 OA 
BRANCH  12  13
HETATM   13  C   UNL     1     -11.708  14.426  67.382  1.00  0.00    -0.397 A  
HETATM   14  C   UNL     1     -11.778  13.922  66.075  1.00  0.00    -0.381 A  
HETATM   15  C   UNL     1     -11.189  14.611  65.018  1.00  0.00    -0.388 A  
HETATM   16  C   UNL     1     -10.564  15.831  65.256  1.00  0.00    -0.446 A  
HETATM   17  C   UNL     1     -10.546  16.371  66.548  1.00  0.00    -0.235 A  
HETATM   18  C   UNL     1     -11.109  15.671  67.631  1.00  0.00    -0.305 A  
HETATM   19  C   UNL     1     -11.109  16.258  69.024  1.00  0.00    -0.331 C  
HETATM   20  C   UNL     1     -10.052  17.342  69.204  1.00  0.00    -0.252 C  
HETATM   21  C   UNL     1     -10.137  18.371  68.092  1.00  0.00    -0.408 C  
HETATM   22  C   UNL     1      -9.939  17.712  66.748  1.00  0.00    -0.320 C  
HETATM   23  O   UNL     1      -9.360  18.281  65.828  1.00  0.00    -0.460 OA 
ENDBRANCH  12  13
ENDBRANCH  11  12
ENDBRANCH   8  11
ENDBRANCH   7   8
ENDBRANCH   5   7
TORSDOF 5
ENDMDL
MODEL       36
REMARK 921   NORMALIZED FREE ENERGY PREDICTED BY IDOCK:   -5.92 KCAL/MOL
REMARK 922        TOTAL FREE ENERGY PREDICTED BY IDOCK:   -8.38 KCAL/MOL
REMARK 923 INTER-LIGAND FREE ENERGY PREDICTED BY IDOCK:   -7.35 KCAL/MOL
REMARK 924 INTRA-LIGAND FREE ENERGY PREDICTED BY IDOCK:   -1.03 KCAL/MOL
REMARK 927      BINDING AFFINITY PREDICTED BY RF-SCORE:    0.00 PKD
ROOT
HETATM    1  C   UNL     1      -8.556  10.977  66.262  1.00  0.00    -0.167 C  
HETATM    2  C   UNL     1      -9.746  10.368  65.497  1.00  0.00    -0.249 C  
HETATM    3  C   UNL     1     -10.352   9.251  66.372  1.00  0.00    -0.238 C  
HETATM    4  C   UNL     1      -9.269   9.741  64.179  1.00  0.00    -0.277 C  
HETATM    5  N   UNL     1     -10.818  11.362  65.273  1.00  0.00    -0.265 NA 
HETATM    6  H   UNL     1     -11.206  11.668  66.165  1.00  0.00     0.000 HD 
ENDROOT
BRANCH   5   7
HETATM    7  C   UNL     1     -10.431  12.527  64.464  1.00  0.00    -0.341 C  
BRANCH   7   8
HETATM    8  C   UNL     1     -10.735  13.893  65.115  1.00  0.00    -0.362 C  
HETATM    9  O   UNL     1      -9.502  14.435  65.613  1.00  0.00    -0.526 OA 
HETATM   10  H   UNL     1      -9.690  15.276  66.014  1.00  0.00     0.000 HD 
BRANCH   8  11
HETATM   11  C   UNL     1     -11.730  13.770  66.273  1.00  0.00    -0.376 C  
BRANCH  11  12
HETATM   12  O   UNL     1     -11.009  13.432  67.468  1.00  0.00    -0.259 OA 
BRANCH  12  13
HETATM   13  C   UNL     1     -11.550  13.962  68.615  1.00  0.00    -0.328 A  
HETATM   14  C   UNL     1     -11.694  15.342  68.817  1.00  0.00    -0.369 A  
HETATM   15  C   UNL     1     -12.193  15.832  70.021  1.00  0.00    -0.309 A  
HETATM   16  C   UNL     1     -12.591  14.942  71.014  1.00  0.00    -0.402 A  
HETATM   17  C   UNL     1     -12.509  13.563  70.794  1.00  0.00    -0.428 A  
HETATM   18  C   UNL     1     -11.978  13.052  69.595  1.00  0.00    -0.367 A  
HETATM   19  C   UNL     1     -11.905  11.564  69.345  1.00  0.00    -0.417 C  
HETATM   20  C   UNL     1     -11.962  10.748  70.631  1.00  0.00    -0.466 C  
HETATM   21  C   UNL     1     -13.134  11.181  71.494  1.00  0.00    -0.489 C  
HETATM   22  C   UNL     1     -13.017  12.645  71.846  1.00  0.00    -0.297 C  
HETATM   23  O   UNL     1     -13.388  13.080  72.931  1.00  0.00    -0.424 OA 
ENDBRANCH  12  13
ENDBRANCH  11  12
ENDBRANCH   8  11
ENDBRANCH   7   8
ENDBRANCH   5   7
TORSDOF 5
ENDMDL
MODEL       37
REMARK 921   NORMALIZED FREE ENERGY PREDICTED BY IDOCK:   -5.92 KCAL/MOL
REMARK 922        TOTAL FREE ENERGY PREDICTED BY IDOCK:   -8.38 KCAL/MOL
REMARK 923 INTER-LIGAND FREE ENERGY PREDICTED BY IDOCK:   -7.64 KCAL/MOL
REMARK 924 INTRA-LIGAND FREE ENERGY PREDICTED BY IDOCK:   -0.74 KCAL/MOL
REMARK 927      BINDING AFFINITY PREDICTED BY RF-SCORE:    0.00 PKD
ROOT
HETATM    1  C   UNL     1     -13.367   9.795  72.100  1.00  0.00    -0.527 C  
HETATM    2  C   UNL     1     -12.612   8.576  71.540  1.00  0.00    -0.316 C  
HETATM    3  C   UNL     1     -13.632   7.437  71.336  1.00  0.00    -0.410 C  
HETATM    4  C   UNL     1     -11.551   8.098  72.542  1.00  0.00    -0.468 C  
HETATM    5  N   UNL     1     -12.021   8.861  70.214  1.00  0.00    -0.455 NA 
HETATM    6  H   UNL     1     -12.758   9.050  69.534  1.00  0.00     0.000 HD 
ENDROOT
BRANCH   5   7
HETATM    7  C   UNL     1     -11.024   9.941  70.192  1.00  0.00    -0.301 C  
BRANCH   7   8
HETATM    8  C   UNL     1     -10.069   9.912  68.981  1.00  0.00    -0.189 C  
HETATM    9  O   UNL     1      -9.163  11.020  69.098  1.00  0.00    -0.358 OA 
HETATM   10  H   UNL     1      -8.576  11.002  68.351  1.00  0.00     0.000 HD 
BRANCH   8  11
HETATM   11  C   UNL     1     -10.822  10.021  67.652  1.00  0.00    -0.278 C  
BRANCH  11  12
HETATM   12  O   UNL     1     -11.810  11.057  67.763  1.00  0.00    -0.605 OA 
BRANCH  12  13
HETATM   13  C   UNL     1     -11.466  12.227  67.130  1.00  0.00    -0.352 A  
HETATM   14  C   UNL     1     -11.102  12.278  65.777  1.00  0.00    -0.362 A  
HETATM   15  C   UNL     1     -10.704  13.479  65.197  1.00  0.00    -0.349 A  
HETATM   16  C   UNL     1     -10.708  14.646  65.957  1.00  0.00    -0.313 A  
HETATM   17  C   UNL     1     -11.132  14.612  67.290  1.00  0.00    -0.331 A  
HETATM   18  C   UNL     1     -11.507  13.401  67.900  1.00  0.00    -0.350 A  
HETATM   19  C   UNL     1     -11.984  13.363  69.333  1.00  0.00    -0.369 C  
HETATM   20  C   UNL     1     -11.538  14.582  70.132  1.00  0.00    -0.334 C  
HETATM   21  C   UNL     1     -11.874  15.865  69.395  1.00  0.00    -0.325 C  
HETATM   22  C   UNL     1     -11.199  15.890  68.045  1.00  0.00    -0.319 C  
HETATM   23  O   UNL     1     -10.779  16.932  67.551  1.00  0.00    -0.329 OA 
ENDBRANCH  12  13
ENDBRANCH  11  12
ENDBRANCH   8  11
ENDBRANCH   7   8
ENDBRANCH   5   7
TORSDOF 5
ENDMDL
MODEL       38
REMARK 921   NORMALIZED FREE ENERGY PREDICTED BY IDOCK:   -5.91 KCAL/MOL
REMARK 922        TOTAL FREE ENERGY PREDICTED BY IDOCK:   -8.37 KCAL/MOL
REMARK 923 INTER-LIGAND FREE ENERGY PREDICTED BY IDOCK:   -7.23 KCAL/MOL
REMARK 924 INTRA-LIGAND FREE ENERGY PREDICTED BY IDOCK:   -1.14 KCAL/MOL
REMARK 927      BINDING AFFINITY PREDICTED BY RF-SCORE:    0.00 PKD
ROOT
HETATM    1  C   UNL     1     -10.640  14.903  67.651  1.00  0.00    -0.264 C  
HETATM    2  C   UNL     1      -9.498  14.888  66.619  1.00  0.00    -0.265 C  
HETATM    3  C   UNL     1      -8.303  14.138  67.243  1.00  0.00    -0.212 C  
HETATM    4  C   UNL     1      -9.051  16.322  66.297  1.00  0.00    -0.366 C  
HETATM    5  N   UNL     1      -9.876  14.146  65.396  1.00  0.00    -0.552 NA 
HETATM    6  H   UNL     1     -10.043  13.165  65.618  1.00  0.00     0.000 HD 
ENDROOT
BRANCH   5   7
HETATM    7  C   UNL     1     -11.020  14.700  64.657  1.00  0.00    -0.325 C  
BRANCH   7   8
HETATM    8  C   UNL     1     -12.211  13.733  64.495  1.00  0.00    -0.403 C  
HETATM    9  O   UNL     1     -13.243  14.138  65.408  1.00  0.00    -0.741 OA 
HETATM   10  H   UNL     1     -13.976  13.542  65.308  1.00  0.00     0.000 HD 
BRANCH   8  11
HETATM   11  C   UNL     1     -11.820  12.283  64.795  1.00  0.00    -0.364 C  
BRANCH  11  12
HETATM   12  O   UNL     1     -11.809  12.092  66.218  1.00  0.00    -0.563 OA 
BRANCH  12  13
HETATM   13  C   UNL     1     -11.090  10.994  66.628  1.00  0.00    -0.133 A  
HETATM   14  C   UNL     1     -10.263  10.263  65.763  1.00  0.00    -0.289 A  
HETATM   15  C   UNL     1      -9.602   9.123  66.212  1.00  0.00    -0.321 A  
HETATM   16  C   UNL     1      -9.731   8.732  67.541  1.00  0.00    -0.214 A  
HETATM   17  C   UNL     1     -10.503   9.493  68.425  1.00  0.00    -0.261 A  
HETATM   18  C   UNL     1     -11.203  10.630  67.980  1.00  0.00    -0.373 A  
HETATM   19  C   UNL     1     -12.023  11.466  68.934  1.00  0.00    -0.371 C  
HETATM   20  C   UNL     1     -12.410  10.705  70.197  1.00  0.00    -0.370 C  
HETATM   21  C   UNL     1     -11.195  10.048  70.826  1.00  0.00    -0.428 C  
HETATM   22  C   UNL     1     -10.552   9.088  69.854  1.00  0.00    -0.228 C  
HETATM   23  O   UNL     1     -10.027   8.044  70.228  1.00  0.00    -0.187 OA 
ENDBRANCH  12  13
ENDBRANCH  11  12
ENDBRANCH   8  11
ENDBRANCH   7   8
ENDBRANCH   5   7
TORSDOF 5
ENDMDL
MODEL       39
REMARK 921   NORMALIZED FREE ENERGY PREDICTED BY IDOCK:   -5.91 KCAL/MOL
REMARK 922        TOTAL FREE ENERGY PREDICTED BY IDOCK:   -8.37 KCAL/MOL
REMARK 923 INTER-LIGAND FREE ENERGY PREDICTED BY IDOCK:   -7.83 KCAL/MOL
REMARK 924 INTRA-LIGAND FREE ENERGY PREDICTED BY IDOCK:   -0.53 KCAL/MOL
REMARK 927      BINDING AFFINITY PREDICTED BY RF-SCORE:    0.00 PKD
ROOT
HETATM    1  C   UNL     1     -10.557   8.452  72.410  1.00  0.00    -0.405 C  
HETATM    2  C   UNL     1     -11.777   8.261  71.491  1.00  0.00    -0.292 C  
HETATM    3  C   UNL     1     -13.003   8.880  72.193  1.00  0.00    -0.473 C  
HETATM    4  C   UNL     1     -12.052   6.765  71.273  1.00  0.00    -0.421 C  
HETATM    5  N   UNL     1     -11.612   8.978  70.208  1.00  0.00    -0.455 NA 
HETATM    6  H   UNL     1     -11.560   9.984  70.372  1.00  0.00     0.000 HD 
ENDROOT
BRANCH   5   7
HETATM    7  C   UNL     1     -10.473   8.540  69.388  1.00  0.00    -0.218 C  
BRANCH   7   8
HETATM    8  C   UNL     1     -10.745   8.518  67.869  1.00  0.00    -0.082 C  
HETATM    9  O   UNL     1     -11.198   7.202  67.514  1.00  0.00    -0.556 OA 
HETATM   10  H   UNL     1     -11.364   7.190  66.579  1.00  0.00     0.000 HD 
BRANCH   8  11
HETATM   11  C   UNL     1      -9.491   8.851  67.055  1.00  0.00    -0.166 C  
BRANCH  11  12
HETATM   12  O   UNL     1      -9.401  10.276  66.905  1.00  0.00    -0.155 OA 
BRANCH  12  13
HETATM   13  C   UNL     1      -9.853  10.739  65.692  1.00  0.00    -0.245 A  
HETATM   14  C   UNL     1      -9.457  10.176  64.471  1.00  0.00    -0.364 A  
HETATM   15  C   UNL     1      -9.896  10.720  63.266  1.00  0.00    -0.394 A  
HETATM   16  C   UNL     1     -10.768  11.804  63.278  1.00  0.00    -0.414 A  
HETATM   17  C   UNL     1     -11.217  12.330  64.495  1.00  0.00    -0.378 A  
HETATM   18  C   UNL     1     -10.758  11.812  65.720  1.00  0.00    -0.328 A  
HETATM   19  C   UNL     1     -11.255  12.364  67.036  1.00  0.00    -0.358 C  
HETATM   20  C   UNL     1     -11.836  13.767  66.902  1.00  0.00    -0.447 C  
HETATM   21  C   UNL     1     -12.851  13.827  65.776  1.00  0.00    -0.430 C  
HETATM   22  C   UNL     1     -12.210  13.435  64.466  1.00  0.00    -0.398 C  
HETATM   23  O   UNL     1     -12.537  13.957  63.405  1.00  0.00    -0.853 OA 
ENDBRANCH  12  13
ENDBRANCH  11  12
ENDBRANCH   8  11
ENDBRANCH   7   8
ENDBRANCH   5   7
TORSDOF 5
ENDMDL
MODEL       40
REMARK 921   NORMALIZED FREE ENERGY PREDICTED BY IDOCK:   -5.88 KCAL/MOL
REMARK 922        TOTAL FREE ENERGY PREDICTED BY IDOCK:   -8.33 KCAL/MOL
REMARK 923 INTER-LIGAND FREE ENERGY PREDICTED BY IDOCK:   -7.38 KCAL/MOL
REMARK 924 INTRA-LIGAND FREE ENERGY PREDICTED BY IDOCK:   -0.96 KCAL/MOL
REMARK 927      BINDING AFFINITY PREDICTED BY RF-SCORE:    0.00 PKD
ROOT
HETATM    1  C   UNL     1     -10.405  15.471  67.733  1.00  0.00    -0.263 C  
HETATM    2  C   UNL     1      -9.252  15.250  66.738  1.00  0.00    -0.250 C  
HETATM    3  C   UNL     1      -8.066  14.637  67.513  1.00  0.00    -0.200 C  
HETATM    4  C   UNL     1      -8.796  16.590  66.142  1.00  0.00    -0.342 C  
HETATM    5  N   UNL     1      -9.618  14.279  65.683  1.00  0.00    -0.535 NA 
HETATM    6  H   UNL     1      -9.792  13.362  66.094  1.00  0.00     0.000 HD 
ENDROOT
BRANCH   5   7
HETATM    7  C   UNL     1     -10.751  14.677  64.835  1.00  0.00    -0.427 C  
BRANCH   7   8
HETATM    8  C   UNL     1     -11.509  13.502  64.182  1.00  0.00    -0.360 C  
HETATM    9  O   UNL     1     -12.525  14.046  63.324  1.00  0.00    -1.139 OA 
HETATM   10  H   UNL     1     -12.991  13.322  62.923  1.00  0.00     0.000 HD 
BRANCH   8  11
HETATM   11  C   UNL     1     -12.170  12.593  65.223  1.00  0.00    -0.475 C  
BRANCH  11  12
HETATM   12  O   UNL     1     -11.203  11.636  65.683  1.00  0.00    -0.292 OA 
BRANCH  12  13
HETATM   13  C   UNL     1     -11.264  11.386  67.033  1.00  0.00    -0.283 A  
HETATM   14  C   UNL     1     -11.796  12.303  67.951  1.00  0.00    -0.358 A  
HETATM   15  C   UNL     1     -11.781  12.028  69.316  1.00  0.00    -0.389 A  
HETATM   16  C   UNL     1     -11.271  10.814  69.767  1.00  0.00    -0.365 A  
HETATM   17  C   UNL     1     -10.797   9.868  68.851  1.00  0.00    -0.239 A  
HETATM   18  C   UNL     1     -10.777  10.144  67.471  1.00  0.00    -0.347 A  
HETATM   19  C   UNL     1     -10.284   9.119  66.477  1.00  0.00    -0.322 C  
HETATM   20  C   UNL     1      -9.391   8.062  67.116  1.00  0.00    -0.186 C  
HETATM   21  C   UNL     1     -10.050   7.471  68.349  1.00  0.00    -0.200 C  
HETATM   22  C   UNL     1     -10.335   8.552  69.364  1.00  0.00    -0.215 C  
HETATM   23  O   UNL     1     -10.257   8.343  70.571  1.00  0.00    -0.191 OA 
ENDBRANCH  12  13
ENDBRANCH  11  12
ENDBRANCH   8  11
ENDBRANCH   7   8
ENDBRANCH   5   7
TORSDOF 5
ENDMDL
MODEL       41
REMARK 921   NORMALIZED FREE ENERGY PREDICTED BY IDOCK:   -5.86 KCAL/MOL
REMARK 922        TOTAL FREE ENERGY PREDICTED BY IDOCK:   -8.30 KCAL/MOL
REMARK 923 INTER-LIGAND FREE ENERGY PREDICTED BY IDOCK:   -7.45 KCAL/MOL
REMARK 924 INTRA-LIGAND FREE ENERGY PREDICTED BY IDOCK:   -0.86 KCAL/MOL
REMARK 927      BINDING AFFINITY PREDICTED BY RF-SCORE:    0.00 PKD
ROOT
HETATM    1  C   UNL     1     -10.048  13.754  68.258  1.00  0.00    -0.239 C  
HETATM    2  C   UNL     1     -11.568  13.526  68.182  1.00  0.00    -0.333 C  
HETATM    3  C   UNL     1     -12.188  14.010  69.510  1.00  0.00    -0.355 C  
HETATM    4  C   UNL     1     -11.876  12.030  68.025  1.00  0.00    -0.338 C  
HETATM    5  N   UNL     1     -12.188  14.328  67.105  1.00  0.00    -0.589 NA 
HETATM    6  H   UNL     1     -12.080  15.323  67.301  1.00  0.00     0.000 HD 
ENDROOT
BRANCH   5   7
HETATM    7  C   UNL     1     -11.713  14.025  65.747  1.00  0.00    -0.363 C  
BRANCH   7   8
HETATM    8  C   UNL     1     -12.275  14.949  64.647  1.00  0.00    -0.341 C  
HETATM    9  O   UNL     1     -12.337  14.201  63.423  1.00  0.00    -1.109 OA 
HETATM   10  H   UNL     1     -12.683  14.771  62.746  1.00  0.00     0.000 HD 
BRANCH   8  11
HETATM   11  C   UNL     1     -11.399  16.187  64.432  1.00  0.00    -0.201 C  
BRANCH  11  12
HETATM   12  O   UNL     1     -10.319  16.160  65.379  1.00  0.00    -0.461 OA 
BRANCH  12  13
HETATM   13  C   UNL     1     -10.033  17.385  65.933  1.00  0.00    -0.149 A  
HETATM   14  C   UNL     1     -10.861  18.504  65.768  1.00  0.00    -0.058 A  
HETATM   15  C   UNL     1     -10.497  19.738  66.300  1.00  0.00    -0.614 A  
HETATM   16  C   UNL     1      -9.321  19.850  67.036  1.00  0.00    -0.486 A  
HETATM   17  C   UNL     1      -8.522  18.723  67.258  1.00  0.00    -0.283 A  
HETATM   18  C   UNL     1      -8.861  17.476  66.701  1.00  0.00    -0.284 A  
HETATM   19  C   UNL     1      -8.011  16.252  66.954  1.00  0.00    -0.278 C  
HETATM   20  C   UNL     1      -6.592  16.601  67.387  1.00  0.00    -0.199 C  
HETATM   21  C   UNL     1      -6.605  17.600  68.529  1.00  0.00    -0.204 C  
HETATM   22  C   UNL     1      -7.317  18.865  68.115  1.00  0.00    -0.260 C  
HETATM   23  O   UNL     1      -6.963  19.968  68.520  1.00  0.00    -0.303 OA 
ENDBRANCH  12  13
ENDBRANCH  11  12
ENDBRANCH   8  11
ENDBRANCH   7   8
ENDBRANCH   5   7
TORSDOF 5
ENDMDL
MODEL       42
REMARK 921   NORMALIZED FREE ENERGY PREDICTED BY IDOCK:   -5.85 KCAL/MOL
REMARK 922        TOTAL FREE ENERGY PREDICTED BY IDOCK:   -8.29 KCAL/MOL
REMARK 923 INTER-LIGAND FREE ENERGY PREDICTED BY IDOCK:   -7.74 KCAL/MOL
REMARK 924 INTRA-LIGAND FREE ENERGY PREDICTED BY IDOCK:   -0.55 KCAL/MOL
REMARK 927      BINDING AFFINITY PREDICTED BY RF-SCORE:    0.00 PKD
ROOT
HETATM    1  C   UNL     1      -9.167  17.519  68.255  1.00  0.00    -0.277 C  
HETATM    2  C   UNL     1      -9.296  17.728  66.736  1.00  0.00    -0.280 C  
HETATM    3  C   UNL     1      -7.974  18.339  66.226  1.00  0.00    -0.267 C  
HETATM    4  C   UNL     1     -10.432  18.714  66.427  1.00  0.00    -0.463 C  
HETATM    5  N   UNL     1      -9.476  16.446  66.021  1.00  0.00    -0.397 NA 
HETATM    6  H   UNL     1      -8.650  15.859  66.137  1.00  0.00     0.000 HD 
ENDROOT
BRANCH   5   7
HETATM    7  C   UNL     1     -10.686  15.693  66.382  1.00  0.00    -0.291 C  
BRANCH   7   8
HETATM    8  C   UNL     1     -10.859  14.355  65.633  1.00  0.00    -0.317 C  
HETATM    9  O   UNL     1     -11.791  14.561  64.559  1.00  0.00    -0.430 OA 
HETATM   10  H   UNL     1     -11.897  13.737  64.098  1.00  0.00     0.000 HD 
BRANCH   8  11
HETATM   11  C   UNL     1     -11.390  13.247  66.547  1.00  0.00    -0.322 C  
BRANCH  11  12
HETATM   12  O   UNL     1     -10.626  13.246  67.764  1.00  0.00    -0.235 OA 
BRANCH  12  13
HETATM   13  C   UNL     1     -11.249  12.613  68.813  1.00  0.00    -0.280 A  
HETATM   14  C   UNL     1     -11.290  11.218  68.940  1.00  0.00    -0.340 A  
HETATM   15  C   UNL     1     -11.986  10.623  69.990  1.00  0.00    -0.408 A  
HETATM   16  C   UNL     1     -12.609  11.423  70.943  1.00  0.00    -0.453 A  
HETATM   17  C   UNL     1     -12.518  12.817  70.857  1.00  0.00    -0.373 A  
HETATM   18  C   UNL     1     -11.846  13.433  69.785  1.00  0.00    -0.393 A  
HETATM   19  C   UNL     1     -11.728  14.937  69.698  1.00  0.00    -0.356 C  
HETATM   20  C   UNL     1     -12.783  15.657  70.529  1.00  0.00    -0.391 C  
HETATM   21  C   UNL     1     -12.819  15.114  71.946  1.00  0.00    -0.428 C  
HETATM   22  C   UNL     1     -13.128  13.636  71.936  1.00  0.00    -0.387 C  
HETATM   23  O   UNL     1     -13.800  13.110  72.818  1.00  0.00    -0.648 OA 
ENDBRANCH  12  13
ENDBRANCH  11  12
ENDBRANCH   8  11
ENDBRANCH   7   8
ENDBRANCH   5   7
TORSDOF 5
ENDMDL
MODEL       43
REMARK 921   NORMALIZED FREE ENERGY PREDICTED BY IDOCK:   -5.83 KCAL/MOL
REMARK 922        TOTAL FREE ENERGY PREDICTED BY IDOCK:   -8.26 KCAL/MOL
REMARK 923 INTER-LIGAND FREE ENERGY PREDICTED BY IDOCK:   -7.86 KCAL/MOL
REMARK 924 INTRA-LIGAND FREE ENERGY PREDICTED BY IDOCK:   -0.40 KCAL/MOL
REMARK 927      BINDING AFFINITY PREDICTED BY RF-SCORE:    0.00 PKD
ROOT
HETATM    1  C   UNL     1     -11.604   7.035  70.944  1.00  0.00    -0.370 C  
HETATM    2  C   UNL     1     -11.302   8.233  71.862  1.00  0.00    -0.308 C  
HETATM    3  C   UNL     1     -10.442   7.727  73.039  1.00  0.00    -0.432 C  
HETATM    4  C   UNL     1     -12.606   8.809  72.434  1.00  0.00    -0.430 C  
HETATM    5  N   UNL     1     -10.507   9.268  71.167  1.00  0.00    -0.309 NA 
HETATM    6  H   UNL     1      -9.593   8.896  70.911  1.00  0.00     0.000 HD 
ENDROOT
BRANCH   5   7
HETATM    7  C   UNL     1     -11.155   9.871  69.993  1.00  0.00    -0.285 C  
BRANCH   7   8
HETATM    8  C   UNL     1     -10.186  10.287  68.866  1.00  0.00    -0.205 C  
HETATM    9  O   UNL     1      -9.407  11.399  69.333  1.00  0.00    -0.370 OA 
HETATM   10  H   UNL     1      -8.811  11.655  68.639  1.00  0.00     0.000 HD 
BRANCH   8  11
HETATM   11  C   UNL     1     -10.928  10.698  67.591  1.00  0.00    -0.310 C  
BRANCH  11  12
HETATM   12  O   UNL     1     -10.085  11.575  66.827  1.00  0.00    -0.207 OA 
BRANCH  12  13
HETATM   13  C   UNL     1     -10.771  12.404  65.972  1.00  0.00    -0.261 A  
HETATM   14  C   UNL     1     -11.771  11.940  65.107  1.00  0.00    -0.244 A  
HETATM   15  C   UNL     1     -12.396  12.809  64.216  1.00  0.00    -0.493 A  
HETATM   16  C   UNL     1     -12.052  14.158  64.216  1.00  0.00    -0.471 A  
HETATM   17  C   UNL     1     -11.100  14.639  65.122  1.00  0.00    -0.382 A  
HETATM   18  C   UNL     1     -10.438  13.768  66.006  1.00  0.00    -0.297 A  
HETATM   19  C   UNL     1      -9.423  14.286  66.999  1.00  0.00    -0.259 C  
HETATM   20  C   UNL     1      -8.855  15.644  66.603  1.00  0.00    -0.327 C  
HETATM   21  C   UNL     1      -9.968  16.622  66.278  1.00  0.00    -0.336 C  
HETATM   22  C   UNL     1     -10.818  16.098  65.146  1.00  0.00    -0.361 C  
HETATM   23  O   UNL     1     -11.318  16.846  64.312  1.00  0.00    -1.202 OA 
ENDBRANCH  12  13
ENDBRANCH  11  12
ENDBRANCH   8  11
ENDBRANCH   7   8
ENDBRANCH   5   7
TORSDOF 5
ENDMDL
MODEL       44
REMARK 921   NORMALIZED FREE ENERGY PREDICTED BY IDOCK:   -5.81 KCAL/MOL
REMARK 922        TOTAL FREE ENERGY PREDICTED BY IDOCK:   -8.24 KCAL/MOL
REMARK 923 INTER-LIGAND FREE ENERGY PREDICTED BY IDOCK:   -7.32 KCAL/MOL
REMARK 924 INTRA-LIGAND FREE ENERGY PREDICTED BY IDOCK:   -0.92 KCAL/MOL
REMARK 927      BINDING AFFINITY PREDICTED BY RF-SCORE:    0.00 PKD
ROOT
HETATM    1  C   UNL     1      -9.897  14.771  68.900  1.00  0.00    -0.222 C  
HETATM    2  C   UNL     1     -11.214  15.368  68.373  1.00  0.00    -0.315 C  
HETATM    3  C   UNL     1     -11.437  14.837  66.941  1.00  0.00    -0.354 C  
HETATM    4  C   UNL     1     -11.119  16.899  68.308  1.00  0.00    -0.213 C  
HETATM    5  N   UNL     1     -12.375  14.926  69.176  1.00  0.00    -0.578 NA 
HETATM    6  H   UNL     1     -12.493  13.916  69.098  1.00  0.00     0.000 HD 
ENDROOT
BRANCH   5   7
HETATM    7  C   UNL     1     -12.344  15.324  70.591  1.00  0.00    -0.377 C  
BRANCH   7   8
HETATM    8  C   UNL     1     -13.567  14.869  71.415  1.00  0.00    -0.439 C  
HETATM    9  O   UNL     1     -13.670  15.718  72.568  1.00  0.00    -0.528 OA 
HETATM   10  H   UNL     1     -14.423  15.438  73.075  1.00  0.00     0.000 HD 
BRANCH   8  11
HETATM   11  C   UNL     1     -13.442  13.414  71.876  1.00  0.00    -0.441 C  
BRANCH  11  12
HETATM   12  O   UNL     1     -12.579  12.713  70.967  1.00  0.00    -0.361 OA 
BRANCH  12  13
HETATM   13  C   UNL     1     -12.564  11.351  71.150  1.00  0.00    -0.386 A  
HETATM   14  C   UNL     1     -13.402  10.700  72.067  1.00  0.00    -0.409 A  
HETATM   15  C   UNL     1     -13.308   9.324  72.259  1.00  0.00    -0.547 A  
HETATM   16  C   UNL     1     -12.402   8.585  71.504  1.00  0.00    -0.354 A  
HETATM   17  C   UNL     1     -11.607   9.219  70.542  1.00  0.00    -0.266 A  
HETATM   18  C   UNL     1     -11.669  10.613  70.358  1.00  0.00    -0.446 A  
HETATM   19  C   UNL     1     -10.827  11.300  69.308  1.00  0.00    -0.259 C  
HETATM   20  C   UNL     1      -9.623  10.468  68.884  1.00  0.00    -0.199 C  
HETATM   21  C   UNL     1     -10.042   9.054  68.523  1.00  0.00    -0.211 C  
HETATM   22  C   UNL     1     -10.711   8.386  69.701  1.00  0.00    -0.198 C  
HETATM   23  O   UNL     1     -10.579   7.186  69.923  1.00  0.00    -0.217 OA 
ENDBRANCH  12  13
ENDBRANCH  11  12
ENDBRANCH   8  11
ENDBRANCH   7   8
ENDBRANCH   5   7
TORSDOF 5
ENDMDL
MODEL       45
REMARK 921   NORMALIZED FREE ENERGY PREDICTED BY IDOCK:   -5.77 KCAL/MOL
REMARK 922        TOTAL FREE ENERGY PREDICTED BY IDOCK:   -8.18 KCAL/MOL
REMARK 923 INTER-LIGAND FREE ENERGY PREDICTED BY IDOCK:   -8.26 KCAL/MOL
REMARK 924 INTRA-LIGAND FREE ENERGY PREDICTED BY IDOCK:    0.07 KCAL/MOL
REMARK 927      BINDING AFFINITY PREDICTED BY RF-SCORE:    0.00 PKD
ROOT
HETATM    1  C   UNL     1     -10.758  18.267  67.371  1.00  0.00    -0.377 C  
HETATM    2  C   UNL     1     -10.057  16.951  67.751  1.00  0.00    -0.292 C  
HETATM    3  C   UNL     1     -10.355  16.665  69.238  1.00  0.00    -0.318 C  
HETATM    4  C   UNL     1      -8.536  17.088  67.583  1.00  0.00    -0.213 C  
HETATM    5  N   UNL     1     -10.591  15.806  66.982  1.00  0.00    -0.314 NA 
HETATM    6  H   UNL     1     -11.573  15.657  67.209  1.00  0.00     0.000 HD 
ENDROOT
BRANCH   5   7
HETATM    7  C   UNL     1     -10.417  15.896  65.524  1.00  0.00    -0.404 C  
BRANCH   7   8
HETATM    8  C   UNL     1     -11.495  15.161  64.701  1.00  0.00    -0.362 C  
HETATM    9  O   UNL     1     -12.086  16.105  63.794  1.00  0.00    -1.355 OA 
HETATM   10  H   UNL     1     -12.750  15.652  63.287  1.00  0.00     0.000 HD 
BRANCH   8  11
HETATM   11  C   UNL     1     -12.593  14.568  65.589  1.00  0.00    -0.205 C  
BRANCH  11  12
HETATM   12  O   UNL     1     -12.985  13.295  65.052  1.00  0.00    -0.726 OA 
BRANCH  12  13
HETATM   13  C   UNL     1     -11.943  12.414  64.887  1.00  0.00    -0.398 A  
HETATM   14  C   UNL     1     -11.417  12.090  63.629  1.00  0.00    -0.556 A  
HETATM   15  C   UNL     1     -10.400  11.146  63.509  1.00  0.00    -0.446 A  
HETATM   16  C   UNL     1      -9.875  10.552  64.653  1.00  0.00    -0.404 A  
HETATM   17  C   UNL     1     -10.352  10.918  65.916  1.00  0.00    -0.310 A  
HETATM   18  C   UNL     1     -11.401  11.847  66.052  1.00  0.00    -0.375 A  
HETATM   19  C   UNL     1     -11.907  12.260  67.414  1.00  0.00    -0.327 C  
HETATM   20  C   UNL     1     -11.558  11.249  68.501  1.00  0.00    -0.384 C  
HETATM   21  C   UNL     1     -10.081  10.900  68.461  1.00  0.00    -0.193 C  
HETATM   22  C   UNL     1      -9.712  10.321  67.117  1.00  0.00    -0.173 C  
HETATM   23  O   UNL     1      -8.868   9.438  67.003  1.00  0.00    -0.126 OA 
ENDBRANCH  12  13
ENDBRANCH  11  12
ENDBRANCH   8  11
ENDBRANCH   7   8
ENDBRANCH   5   7
TORSDOF 5
ENDMDL
MODEL       46
REMARK 921   NORMALIZED FREE ENERGY PREDICTED BY IDOCK:   -5.76 KCAL/MOL
REMARK 922        TOTAL FREE ENERGY PREDICTED BY IDOCK:   -8.18 KCAL/MOL
REMARK 923 INTER-LIGAND FREE ENERGY PREDICTED BY IDOCK:   -7.28 KCAL/MOL
REMARK 924 INTRA-LIGAND FREE ENERGY PREDICTED BY IDOCK:   -0.89 KCAL/MOL
REMARK 927      BINDING AFFINITY PREDICTED BY RF-SCORE:    0.00 PKD
ROOT
HETATM    1  C   UNL     1      -8.609   9.488  63.371  1.00  0.00    -0.215 C  
HETATM    2  C   UNL     1      -8.844  10.241  64.693  1.00  0.00    -0.199 C  
HETATM    3  C   UNL     1      -7.519  10.238  65.484  1.00  0.00    -0.149 C  
HETATM    4  C   UNL     1      -9.908   9.522  65.535  1.00  0.00    -0.304 C  
HETATM    5  N   UNL     1      -9.197  11.658  64.460  1.00  0.00    -0.417 NA 
HETATM    6  H   UNL     1      -8.421  12.146  64.013  1.00  0.00     0.000 HD 
ENDROOT
BRANCH   5   7
HETATM    7  C   UNL     1     -10.437  11.876  63.698  1.00  0.00    -0.447 C  
BRANCH   7   8
HETATM    8  C   UNL     1     -11.326  13.019  64.231  1.00  0.00    -0.376 C  
HETATM    9  O   UNL     1     -10.518  14.201  64.339  1.00  0.00    -0.581 OA 
HETATM   10  H   UNL     1     -11.066  14.905  64.667  1.00  0.00     0.000 HD 
BRANCH   8  11
HETATM   11  C   UNL     1     -11.922  12.694  65.603  1.00  0.00    -0.452 C  
BRANCH  11  12
HETATM   12  O   UNL     1     -10.884  12.790  66.592  1.00  0.00    -0.258 OA 
BRANCH  12  13
HETATM   13  C   UNL     1     -11.304  12.508  67.870  1.00  0.00    -0.291 A  
HETATM   14  C   UNL     1     -11.541  11.201  68.319  1.00  0.00    -0.359 A  
HETATM   15  C   UNL     1     -12.023  10.971  69.605  1.00  0.00    -0.424 A  
HETATM   16  C   UNL     1     -12.231  12.046  70.464  1.00  0.00    -0.414 A  
HETATM   17  C   UNL     1     -11.936  13.348  70.043  1.00  0.00    -0.407 A  
HETATM   18  C   UNL     1     -11.478  13.599  68.737  1.00  0.00    -0.346 A  
HETATM   19  C   UNL     1     -11.141  15.001  68.284  1.00  0.00    -0.292 C  
HETATM   20  C   UNL     1     -11.804  16.071  69.142  1.00  0.00    -0.268 C  
HETATM   21  C   UNL     1     -11.555  15.813  70.617  1.00  0.00    -0.416 C  
HETATM   22  C   UNL     1     -12.095  14.461  71.015  1.00  0.00    -0.349 C  
HETATM   23  O   UNL     1     -12.588  14.261  72.121  1.00  0.00    -0.319 OA 
ENDBRANCH  12  13
ENDBRANCH  11  12
ENDBRANCH   8  11
ENDBRANCH   7   8
ENDBRANCH   5   7
TORSDOF 5
ENDMDL
MODEL       47
REMARK 921   NORMALIZED FREE ENERGY PREDICTED BY IDOCK:   -5.74 KCAL/MOL
REMARK 922        TOTAL FREE ENERGY PREDICTED BY IDOCK:   -8.16 KCAL/MOL
REMARK 923 INTER-LIGAND FREE ENERGY PREDICTED BY IDOCK:   -7.56 KCAL/MOL
REMARK 924 INTRA-LIGAND FREE ENERGY PREDICTED BY IDOCK:   -0.59 KCAL/MOL
REMARK 927      BINDING AFFINITY PREDICTED BY RF-SCORE:    0.00 PKD
ROOT
HETATM    1  C   UNL     1     -11.419   8.239  72.566  1.00  0.00    -0.454 C  
HETATM    2  C   UNL     1     -11.922   7.443  71.349  1.00  0.00    -0.310 C  
HETATM    3  C   UNL     1     -13.422   7.147  71.561  1.00  0.00    -0.411 C  
HETATM    4  C   UNL     1     -11.178   6.103  71.242  1.00  0.00    -0.348 C  
HETATM    5  N   UNL     1     -11.816   8.228  70.100  1.00  0.00    -0.396 NA 
HETATM    6  H   UNL     1     -12.421   9.047  70.147  1.00  0.00     0.000 HD 
ENDROOT
BRANCH   5   7
HETATM    7  C   UNL     1     -10.451   8.627  69.726  1.00  0.00    -0.220 C  
BRANCH   7   8
HETATM    8  C   UNL     1     -10.318  10.083  69.233  1.00  0.00    -0.219 C  
HETATM    9  O   UNL     1      -9.075  10.609  69.722  1.00  0.00    -0.395 OA 
HETATM   10  H   UNL     1      -8.994  11.506  69.419  1.00  0.00     0.000 HD 
BRANCH   8  11
HETATM   11  C   UNL     1     -11.465  10.967  69.733  1.00  0.00    -0.313 C  
BRANCH  11  12
HETATM   12  O   UNL     1     -12.142  11.532  68.599  1.00  0.00    -0.483 OA 
BRANCH  12  13
HETATM   13  C   UNL     1     -11.726  12.802  68.278  1.00  0.00    -0.344 A  
HETATM   14  C   UNL     1     -11.336  13.740  69.244  1.00  0.00    -0.325 A  
HETATM   15  C   UNL     1     -10.980  15.034  68.872  1.00  0.00    -0.256 A  
HETATM   16  C   UNL     1     -10.972  15.384  67.525  1.00  0.00    -0.315 A  
HETATM   17  C   UNL     1     -11.299  14.434  66.551  1.00  0.00    -0.353 A  
HETATM   18  C   UNL     1     -11.691  13.132  66.913  1.00  0.00    -0.441 A  
HETATM   19  C   UNL     1     -12.026  12.098  65.864  1.00  0.00    -0.252 C  
HETATM   20  C   UNL     1     -12.384  12.720  64.519  1.00  0.00    -0.515 C  
HETATM   21  C   UNL     1     -11.331  13.726  64.092  1.00  0.00    -0.277 C  
HETATM   22  C   UNL     1     -11.202  14.823  65.120  1.00  0.00    -0.382 C  
HETATM   23  O   UNL     1     -10.958  15.983  64.801  1.00  0.00    -0.551 OA 
ENDBRANCH  12  13
ENDBRANCH  11  12
ENDBRANCH   8  11
ENDBRANCH   7   8
ENDBRANCH   5   7
TORSDOF 5
ENDMDL
MODEL       48
REMARK 921   NORMALIZED FREE ENERGY PREDICTED BY IDOCK:   -5.73 KCAL/MOL
REMARK 922        TOTAL FREE ENERGY PREDICTED BY IDOCK:   -8.14 KCAL/MOL
REMARK 923 INTER-LIGAND FREE ENERGY PREDICTED BY IDOCK:   -7.38 KCAL/MOL
REMARK 924 INTRA-LIGAND FREE ENERGY PREDICTED BY IDOCK:   -0.76 KCAL/MOL
REMARK 927      BINDING AFFINITY PREDICTED BY RF-SCORE:    0.00 PKD
ROOT
HETATM    1  C   UNL     1     -11.679   6.195  72.143  1.00  0.00    -0.361 C  
HETATM    2  C   UNL     1     -11.394   7.109  70.938  1.00  0.00    -0.286 C  
HETATM    3  C   UNL     1     -11.383   6.231  69.668  1.00  0.00    -0.492 C  
HETATM    4  C   UNL     1     -10.013   7.765  71.080  1.00  0.00    -0.194 C  
HETATM    5  N   UNL     1     -12.461   8.116  70.750  1.00  0.00    -0.494 NA 
HETATM    6  H   UNL     1     -13.344   7.656  70.529  1.00  0.00     0.000 HD 
ENDROOT
BRANCH   5   7
HETATM    7  C   UNL     1     -12.643   9.050  71.871  1.00  0.00    -0.382 C  
BRANCH   7   8
HETATM    8  C   UNL     1     -12.499  10.540  71.497  1.00  0.00    -0.387 C  
HETATM    9  O   UNL     1     -13.473  11.285  72.245  1.00  0.00    -0.604 OA 
HETATM   10  H   UNL     1     -13.384  12.202  72.015  1.00  0.00     0.000 HD 
BRANCH   8  11
HETATM   11  C   UNL     1     -12.726  10.783  70.003  1.00  0.00    -0.111 C  
BRANCH  11  12
HETATM   12  O   UNL     1     -11.618  11.535  69.483  1.00  0.00    -0.278 OA 
BRANCH  12  13
HETATM   13  C   UNL     1     -11.199  11.124  68.240  1.00  0.00    -0.279 A  
HETATM   14  C   UNL     1     -10.660   9.852  68.004  1.00  0.00    -0.288 A  
HETATM   15  C   UNL     1     -10.195   9.504  66.738  1.00  0.00    -0.313 A  
HETATM   16  C   UNL     1     -10.305  10.414  65.691  1.00  0.00    -0.260 A  
HETATM   17  C   UNL     1     -10.901  11.662  65.905  1.00  0.00    -0.339 A  
HETATM   18  C   UNL     1     -11.347  12.040  67.185  1.00  0.00    -0.396 A  
HETATM   19  C   UNL     1     -12.008  13.379  67.418  1.00  0.00    -0.391 C  
HETATM   20  C   UNL     1     -11.677  14.394  66.330  1.00  0.00    -0.397 C  
HETATM   21  C   UNL     1     -11.920  13.808  64.952  1.00  0.00    -0.412 C  
HETATM   22  C   UNL     1     -11.073  12.575  64.746  1.00  0.00    -0.301 C  
HETATM   23  O   UNL     1     -10.597  12.293  63.651  1.00  0.00    -0.408 OA 
ENDBRANCH  12  13
ENDBRANCH  11  12
ENDBRANCH   8  11
ENDBRANCH   7   8
ENDBRANCH   5   7
TORSDOF 5
ENDMDL
MODEL       49
REMARK 921   NORMALIZED FREE ENERGY PREDICTED BY IDOCK:   -5.73 KCAL/MOL
REMARK 922        TOTAL FREE ENERGY PREDICTED BY IDOCK:   -8.13 KCAL/MOL
REMARK 923 INTER-LIGAND FREE ENERGY PREDICTED BY IDOCK:   -7.68 KCAL/MOL
REMARK 924 INTRA-LIGAND FREE ENERGY PREDICTED BY IDOCK:   -0.45 KCAL/MOL
REMARK 927      BINDING AFFINITY PREDICTED BY RF-SCORE:    0.00 PKD
ROOT
HETATM    1  C   UNL     1     -13.680   9.089  72.647  1.00  0.00    -0.422 C  
HETATM    2  C   UNL     1     -12.657   8.253  71.857  1.00  0.00    -0.344 C  
HETATM    3  C   UNL     1     -13.324   6.910  71.490  1.00  0.00    -0.303 C  
HETATM    4  C   UNL     1     -11.426   7.956  72.726  1.00  0.00    -0.428 C  
HETATM    5  N   UNL     1     -12.283   8.905  70.584  1.00  0.00    -0.487 NA 
HETATM    6  H   UNL     1     -13.097   8.974  69.972  1.00  0.00     0.000 HD 
ENDROOT
BRANCH   5   7
HETATM    7  C   UNL     1     -11.640  10.221  70.720  1.00  0.00    -0.355 C  
BRANCH   7   8
HETATM    8  C   UNL     1     -11.506  11.012  69.402  1.00  0.00    -0.294 C  
HETATM    9  O   UNL     1     -12.106  10.236  68.353  1.00  0.00    -0.655 OA 
HETATM   10  H   UNL     1     -12.023  10.723  67.541  1.00  0.00     0.000 HD 
BRANCH   8  11
HETATM   11  C   UNL     1     -10.044  11.290  69.044  1.00  0.00    -0.128 C  
BRANCH  11  12
HETATM   12  O   UNL     1      -9.931  11.405  67.617  1.00  0.00    -0.176 OA 
BRANCH  12  13
HETATM   13  C   UNL     1      -9.613  12.670  67.182  1.00  0.00    -0.207 A  
HETATM   14  C   UNL     1      -8.413  13.309  67.523  1.00  0.00    -0.202 A  
HETATM   15  C   UNL     1      -8.163  14.614  67.107  1.00  0.00    -0.227 A  
HETATM   16  C   UNL     1      -9.095  15.273  66.311  1.00  0.00    -0.337 A  
HETATM   17  C   UNL     1     -10.267  14.617  65.914  1.00  0.00    -0.344 A  
HETATM   18  C   UNL     1     -10.548  13.310  66.352  1.00  0.00    -0.288 A  
HETATM   19  C   UNL     1     -11.802  12.591  65.911  1.00  0.00    -0.489 C  
HETATM   20  C   UNL     1     -12.886  13.546  65.426  1.00  0.00    -0.420 C  
HETATM   21  C   UNL     1     -12.330  14.520  64.403  1.00  0.00    -0.437 C  
HETATM   22  C   UNL     1     -11.200  15.324  65.000  1.00  0.00    -0.403 C  
HETATM   23  O   UNL     1     -11.010  16.498  64.695  1.00  0.00    -0.732 OA 
ENDBRANCH  12  13
ENDBRANCH  11  12
ENDBRANCH   8  11
ENDBRANCH   7   8
ENDBRANCH   5   7
TORSDOF 5
ENDMDL
MODEL       50
REMARK 921   NORMALIZED FREE ENERGY PREDICTED BY IDOCK:   -5.72 KCAL/MOL
REMARK 922        TOTAL FREE ENERGY PREDICTED BY IDOCK:   -8.12 KCAL/MOL
REMARK 923 INTER-LIGAND FREE ENERGY PREDICTED BY IDOCK:   -6.96 KCAL/MOL
REMARK 924 INTRA-LIGAND FREE ENERGY PREDICTED BY IDOCK:   -1.16 KCAL/MOL
REMARK 927      BINDING AFFINITY PREDICTED BY RF-SCORE:    0.00 PKD
ROOT
HETATM    1  C   UNL     1     -11.323  15.680  64.724  1.00  0.00    -0.348 C  
HETATM    2  C   UNL     1     -11.294  14.307  65.419  1.00  0.00    -0.329 C  
HETATM    3  C   UNL     1     -10.421  13.361  64.567  1.00  0.00    -0.431 C  
HETATM    4  C   UNL     1     -12.710  13.716  65.495  1.00  0.00    -0.514 C  
HETATM    5  N   UNL     1     -10.661  14.383  66.754  1.00  0.00    -0.289 NA 
HETATM    6  H   UNL     1      -9.682  14.654  66.664  1.00  0.00     0.000 HD 
ENDROOT
BRANCH   5   7
HETATM    7  C   UNL     1     -11.342  15.258  67.719  1.00  0.00    -0.326 C  
BRANCH   7   8
HETATM    8  C   UNL     1     -11.079  14.911  69.200  1.00  0.00    -0.269 C  
HETATM    9  O   UNL     1      -9.761  14.350  69.300  1.00  0.00    -0.408 OA 
HETATM   10  H   UNL     1      -9.600  14.136  70.212  1.00  0.00     0.000 HD 
BRANCH   8  11
HETATM   11  C   UNL     1     -12.094  13.902  69.744  1.00  0.00    -0.345 C  
BRANCH  11  12
HETATM   12  O   UNL     1     -12.138  12.768  68.863  1.00  0.00    -0.269 OA 
BRANCH  12  13
HETATM   13  C   UNL     1     -11.909  11.566  69.488  1.00  0.00    -0.351 A  
HETATM   14  C   UNL     1     -12.278  11.321  70.818  1.00  0.00    -0.479 A  
HETATM   15  C   UNL     1     -11.971  10.106  71.425  1.00  0.00    -0.447 A  
HETATM   16  C   UNL     1     -11.328   9.114  70.691  1.00  0.00    -0.323 A  
HETATM   17  C   UNL     1     -11.013   9.329  69.345  1.00  0.00    -0.138 A  
HETATM   18  C   UNL     1     -11.289  10.562  68.726  1.00  0.00    -0.310 A  
HETATM   19  C   UNL     1     -10.969  10.793  67.267  1.00  0.00    -0.359 C  
HETATM   20  C   UNL     1      -9.919   9.824  66.736  1.00  0.00    -0.278 C  
HETATM   21  C   UNL     1     -10.284   8.391  67.077  1.00  0.00    -0.377 C  
HETATM   22  C   UNL     1     -10.400   8.218  68.573  1.00  0.00    -0.199 C  
HETATM   23  O   UNL     1     -10.066   7.177  69.131  1.00  0.00    -0.174 OA 
ENDBRANCH  12  13
ENDBRANCH  11  12
ENDBRANCH   8  11
ENDBRANCH   7   8
ENDBRANCH   5   7
TORSDOF 5
ENDMDL
MODEL       51
REMARK 921   NORMALIZED FREE ENERGY PREDICTED BY IDOCK:   -5.70 KCAL/MOL
REMARK 922        TOTAL FREE ENERGY PREDICTED BY IDOCK:   -8.10 KCAL/MOL
REMARK 923 INTER-LIGAND FREE ENERGY PREDICTED BY IDOCK:   -7.54 KCAL/MOL
REMARK 924 INTRA-LIGAND FREE ENERGY PREDICTED BY IDOCK:   -0.56 KCAL/MOL
REMARK 927      BINDING AFFINITY PREDICTED BY RF-SCORE:    0.00 PKD
ROOT
HETATM    1  C   UNL     1     -10.054   7.044  72.174  1.00  0.00    -0.198 C  
HETATM    2  C   UNL     1     -11.091   5.957  71.838  1.00  0.00    -0.268 C  
HETATM    3  C   UNL     1     -10.797   4.730  72.727  1.00  0.00    -0.280 C  
HETATM    4  C   UNL     1     -10.960   5.529  70.369  1.00  0.00    -0.199 C  
HETATM    5  N   UNL     1     -12.466   6.396  72.159  1.00  0.00    -0.524 NA 
HETATM    6  H   UNL     1     -12.561   6.550  73.162  1.00  0.00     0.000 HD 
ENDROOT
BRANCH   5   7
HETATM    7  C   UNL     1     -12.934   7.577  71.418  1.00  0.00    -0.335 C  
BRANCH   7   8
HETATM    8  C   UNL     1     -13.001   8.874  72.252  1.00  0.00    -0.419 C  
HETATM    9  O   UNL     1     -14.225   8.861  73.002  1.00  0.00    -1.106 OA 
HETATM   10  H   UNL     1     -14.266   9.660  73.514  1.00  0.00     0.000 HD 
BRANCH   8  11
HETATM   11  C   UNL     1     -12.968  10.126  71.371  1.00  0.00    -0.429 C  
BRANCH  11  12
HETATM   12  O   UNL     1     -11.652  10.267  70.815  1.00  0.00    -0.310 OA 
BRANCH  12  13
HETATM   13  C   UNL     1     -11.582  11.149  69.763  1.00  0.00    -0.334 A  
HETATM   14  C   UNL     1     -11.939  12.500  69.882  1.00  0.00    -0.371 A  
HETATM   15  C   UNL     1     -11.908  13.340  68.772  1.00  0.00    -0.371 A  
HETATM   16  C   UNL     1     -11.478  12.843  67.545  1.00  0.00    -0.386 A  
HETATM   17  C   UNL     1     -11.059  11.512  67.435  1.00  0.00    -0.339 A  
HETATM   18  C   UNL     1     -11.114  10.643  68.540  1.00  0.00    -0.318 A  
HETATM   19  C   UNL     1     -10.645   9.210  68.431  1.00  0.00    -0.217 C  
HETATM   20  C   UNL     1     -10.618   8.709  66.992  1.00  0.00    -0.293 C  
HETATM   21  C   UNL     1      -9.873   9.681  66.095  1.00  0.00    -0.334 C  
HETATM   22  C   UNL     1     -10.531  11.040  66.129  1.00  0.00    -0.244 C  
HETATM   23  O   UNL     1     -10.573  11.763  65.138  1.00  0.00    -0.264 OA 
ENDBRANCH  12  13
ENDBRANCH  11  12
ENDBRANCH   8  11
ENDBRANCH   7   8
ENDBRANCH   5   7
TORSDOF 5
ENDMDL
MODEL       52
REMARK 921   NORMALIZED FREE ENERGY PREDICTED BY IDOCK:   -5.68 KCAL/MOL
REMARK 922        TOTAL FREE ENERGY PREDICTED BY IDOCK:   -8.08 KCAL/MOL
REMARK 923 INTER-LIGAND FREE ENERGY PREDICTED BY IDOCK:   -7.08 KCAL/MOL
REMARK 924 INTRA-LIGAND FREE ENERGY PREDICTED BY IDOCK:   -0.99 KCAL/MOL
REMARK 927      BINDING AFFINITY PREDICTED BY RF-SCORE:    0.00 PKD
ROOT
HETATM    1  C   UNL     1      -9.368   7.932  69.045  1.00  0.00    -0.151 C  
HETATM    2  C   UNL     1     -10.054   9.238  68.606  1.00  0.00    -0.189 C  
HETATM    3  C   UNL     1     -10.444   9.094  67.120  1.00  0.00    -0.325 C  
HETATM    4  C   UNL     1      -9.082  10.420  68.736  1.00  0.00    -0.165 C  
HETATM    5  N   UNL     1     -11.307   9.476  69.355  1.00  0.00    -0.443 NA 
HETATM    6  H   UNL     1     -11.984   8.741  69.150  1.00  0.00     0.000 HD 
ENDROOT
BRANCH   5   7
HETATM    7  C   UNL     1     -11.148   9.626  70.809  1.00  0.00    -0.334 C  
BRANCH   7   8
HETATM    8  C   UNL     1     -12.468   9.817  71.584  1.00  0.00    -0.410 C  
HETATM    9  O   UNL     1     -13.482   9.026  70.944  1.00  0.00    -0.547 OA 
HETATM   10  H   UNL     1     -14.294   9.145  71.421  1.00  0.00     0.000 HD 
BRANCH   8  11
HETATM   11  C   UNL     1     -12.917  11.281  71.605  1.00  0.00    -0.432 C  
BRANCH  11  12
HETATM   12  O   UNL     1     -12.601  11.880  70.339  1.00  0.00    -0.185 OA 
BRANCH  12  13
HETATM   13  C   UNL     1     -12.363  13.232  70.405  1.00  0.00    -0.295 A  
HETATM   14  C   UNL     1     -12.562  13.981  71.573  1.00  0.00    -0.432 A  
HETATM   15  C   UNL     1     -12.364  15.359  71.573  1.00  0.00    -0.443 A  
HETATM   16  C   UNL     1     -11.923  15.990  70.414  1.00  0.00    -0.245 A  
HETATM   17  C   UNL     1     -11.661  15.240  69.262  1.00  0.00    -0.350 A  
HETATM   18  C   UNL     1     -11.886  13.851  69.238  1.00  0.00    -0.394 A  
HETATM   19  C   UNL     1     -11.587  13.033  68.003  1.00  0.00    -0.383 C  
HETATM   20  C   UNL     1     -11.533  13.880  66.736  1.00  0.00    -0.369 C  
HETATM   21  C   UNL     1     -10.625  15.081  66.927  1.00  0.00    -0.297 C  
HETATM   22  C   UNL     1     -11.116  15.937  68.070  1.00  0.00    -0.334 C  
HETATM   23  O   UNL     1     -11.012  17.160  68.052  1.00  0.00    -0.362 OA 
ENDBRANCH  12  13
ENDBRANCH  11  12
ENDBRANCH   8  11
ENDBRANCH   7   8
ENDBRANCH   5   7
TORSDOF 5
ENDMDL
MODEL       53
REMARK 921   NORMALIZED FREE ENERGY PREDICTED BY IDOCK:   -5.68 KCAL/MOL
REMARK 922        TOTAL FREE ENERGY PREDICTED BY IDOCK:   -8.07 KCAL/MOL
REMARK 923 INTER-LIGAND FREE ENERGY PREDICTED BY IDOCK:   -7.04 KCAL/MOL
REMARK 924 INTRA-LIGAND FREE ENERGY PREDICTED BY IDOCK:   -1.03 KCAL/MOL
REMARK 927      BINDING AFFINITY PREDICTED BY RF-SCORE:    0.00 PKD
ROOT
HETATM    1  C   UNL     1     -12.064  12.216  63.412  1.00  0.00    -0.608 C  
HETATM    2  C   UNL     1     -11.715  12.865  64.763  1.00  0.00    -0.346 C  
HETATM    3  C   UNL     1     -12.861  13.828  65.139  1.00  0.00    -0.386 C  
HETATM    4  C   UNL     1     -10.420  13.682  64.644  1.00  0.00    -0.442 C  
HETATM    5  N   UNL     1     -11.629  11.861  65.846  1.00  0.00    -0.402 NA 
HETATM    6  H   UNL     1     -12.538  11.423  65.991  1.00  0.00     0.000 HD 
ENDROOT
BRANCH   5   7
HETATM    7  C   UNL     1     -10.594  10.832  65.664  1.00  0.00    -0.129 C  
BRANCH   7   8
HETATM    8  C   UNL     1      -9.646  10.655  66.868  1.00  0.00    -0.171 C  
HETATM    9  O   UNL     1     -10.106   9.534  67.639  1.00  0.00    -0.179 OA 
HETATM   10  H   UNL     1      -9.522   9.425  68.380  1.00  0.00     0.000 HD 
BRANCH   8  11
HETATM   11  C   UNL     1      -9.613  11.896  67.764  1.00  0.00    -0.190 C  
BRANCH  11  12
HETATM   12  O   UNL     1     -10.815  11.932  68.549  1.00  0.00    -0.201 OA 
BRANCH  12  13
HETATM   13  C   UNL     1     -11.174  13.193  68.962  1.00  0.00    -0.258 A  
HETATM   14  C   UNL     1     -10.707  14.357  68.337  1.00  0.00    -0.250 A  
HETATM   15  C   UNL     1     -11.052  15.613  68.831  1.00  0.00    -0.290 A  
HETATM   16  C   UNL     1     -11.903  15.710  69.928  1.00  0.00    -0.374 A  
HETATM   17  C   UNL     1     -12.425  14.552  70.516  1.00  0.00    -0.408 A  
HETATM   18  C   UNL     1     -12.060  13.276  70.049  1.00  0.00    -0.385 A  
HETATM   19  C   UNL     1     -12.635  12.024  70.669  1.00  0.00    -0.255 C  
HETATM   20  C   UNL     1     -13.179  12.261  72.073  1.00  0.00    -0.508 C  
HETATM   21  C   UNL     1     -14.114  13.456  72.096  1.00  0.00    -0.441 C  
HETATM   22  C   UNL     1     -13.392  14.699  71.634  1.00  0.00    -0.355 C  
HETATM   23  O   UNL     1     -13.637  15.803  72.110  1.00  0.00    -0.464 OA 
ENDBRANCH  12  13
ENDBRANCH  11  12
ENDBRANCH   8  11
ENDBRANCH   7   8
ENDBRANCH   5   7
TORSDOF 5
ENDMDL
MODEL       54
REMARK 921   NORMALIZED FREE ENERGY PREDICTED BY IDOCK:   -5.64 KCAL/MOL
REMARK 922        TOTAL FREE ENERGY PREDICTED BY IDOCK:   -8.02 KCAL/MOL
REMARK 923 INTER-LIGAND FREE ENERGY PREDICTED BY IDOCK:   -7.24 KCAL/MOL
REMARK 924 INTRA-LIGAND FREE ENERGY PREDICTED BY IDOCK:   -0.78 KCAL/MOL
REMARK 927      BINDING AFFINITY PREDICTED BY RF-SCORE:    0.00 PKD
ROOT
HETATM    1  C   UNL     1      -9.321   7.648  69.525  1.00  0.00    -0.153 C  
HETATM    2  C   UNL     1      -9.774   8.554  68.367  1.00  0.00    -0.155 C  
HETATM    3  C   UNL     1     -10.221   7.647  67.200  1.00  0.00    -0.360 C  
HETATM    4  C   UNL     1      -8.605   9.423  67.880  1.00  0.00    -0.120 C  
HETATM    5  N   UNL     1     -10.946   9.375  68.741  1.00  0.00    -0.435 NA 
HETATM    6  H   UNL     1     -11.748   8.776  68.936  1.00  0.00     0.000 HD 
ENDROOT
BRANCH   5   7
HETATM    7  C   UNL     1     -10.726  10.305  69.858  1.00  0.00    -0.294 C  
BRANCH   7   8
HETATM    8  C   UNL     1     -11.941  11.191  70.207  1.00  0.00    -0.373 C  
HETATM    9  O   UNL     1     -13.114  10.580  69.649  1.00  0.00    -0.556 OA 
HETATM   10  H   UNL     1     -13.862  11.126  69.863  1.00  0.00     0.000 HD 
BRANCH   8  11
HETATM   11  C   UNL     1     -11.801  12.608  69.643  1.00  0.00    -0.311 C  
BRANCH  11  12
HETATM   12  O   UNL     1     -10.755  12.614  68.658  1.00  0.00    -0.240 OA 
BRANCH  12  13
HETATM   13  C   UNL     1     -11.153  13.071  67.425  1.00  0.00    -0.272 A  
HETATM   14  C   UNL     1     -11.869  12.277  66.517  1.00  0.00    -0.378 A  
HETATM   15  C   UNL     1     -12.197  12.766  65.256  1.00  0.00    -0.535 A  
HETATM   16  C   UNL     1     -11.847  14.069  64.910  1.00  0.00    -0.402 A  
HETATM   17  C   UNL     1     -11.189  14.887  65.835  1.00  0.00    -0.328 A  
HETATM   18  C   UNL     1     -10.823  14.397  67.102  1.00  0.00    -0.292 A  
HETATM   19  C   UNL     1     -10.129  15.282  68.111  1.00  0.00    -0.229 C  
HETATM   20  C   UNL     1      -9.449  16.486  67.468  1.00  0.00    -0.224 C  
HETATM   21  C   UNL     1     -10.407  17.219  66.546  1.00  0.00    -0.308 C  
HETATM   22  C   UNL     1     -10.903  16.296  65.459  1.00  0.00    -0.245 C  
HETATM   23  O   UNL     1     -11.129  16.699  64.322  1.00  0.00    -1.029 OA 
ENDBRANCH  12  13
ENDBRANCH  11  12
ENDBRANCH   8  11
ENDBRANCH   7   8
ENDBRANCH   5   7
TORSDOF 5
ENDMDL
MODEL       55
REMARK 921   NORMALIZED FREE ENERGY PREDICTED BY IDOCK:   -5.63 KCAL/MOL
REMARK 922        TOTAL FREE ENERGY PREDICTED BY IDOCK:   -8.01 KCAL/MOL
REMARK 923 INTER-LIGAND FREE ENERGY PREDICTED BY IDOCK:   -7.16 KCAL/MOL
REMARK 924 INTRA-LIGAND FREE ENERGY PREDICTED BY IDOCK:   -0.85 KCAL/MOL
REMARK 927      BINDING AFFINITY PREDICTED BY RF-SCORE:    0.00 PKD
ROOT
HETATM    1  C   UNL     1     -10.529   7.212  70.129  1.00  0.00    -0.231 C  
HETATM    2  C   UNL     1      -9.838   7.755  71.393  1.00  0.00    -0.167 C  
HETATM    3  C   UNL     1      -8.526   8.442  70.960  1.00  0.00    -0.167 C  
HETATM    4  C   UNL     1      -9.487   6.603  72.346  1.00  0.00    -0.154 C  
HETATM    5  N   UNL     1     -10.659   8.787  72.063  1.00  0.00    -0.345 NA 
HETATM    6  H   UNL     1     -10.770   9.598  71.455  1.00  0.00     0.000 HD 
ENDROOT
BRANCH   5   7
HETATM    7  C   UNL     1     -11.972   8.329  72.541  1.00  0.00    -0.356 C  
BRANCH   7   8
HETATM    8  C   UNL     1     -13.076   9.407  72.520  1.00  0.00    -0.299 C  
HETATM    9  O   UNL     1     -14.301   8.801  72.960  1.00  0.00    -1.089 OA 
HETATM   10  H   UNL     1     -14.981   9.465  72.947  1.00  0.00     0.000 HD 
BRANCH   8  11
HETATM   11  C   UNL     1     -13.283   9.991  71.120  1.00  0.00    -0.361 C  
BRANCH  11  12
HETATM   12  O   UNL     1     -12.767  11.332  71.097  1.00  0.00    -0.384 OA 
BRANCH  12  13
HETATM   13  C   UNL     1     -12.105  11.654  69.936  1.00  0.00    -0.301 A  
HETATM   14  C   UNL     1     -11.647  10.687  69.031  1.00  0.00    -0.332 A  
HETATM   15  C   UNL     1     -10.928  11.062  67.898  1.00  0.00    -0.317 A  
HETATM   16  C   UNL     1     -10.702  12.411  67.643  1.00  0.00    -0.248 A  
HETATM   17  C   UNL     1     -11.212  13.385  68.509  1.00  0.00    -0.316 A  
HETATM   18  C   UNL     1     -11.912  13.021  69.674  1.00  0.00    -0.367 A  
HETATM   19  C   UNL     1     -12.482  14.068  70.603  1.00  0.00    -0.435 C  
HETATM   20  C   UNL     1     -11.809  15.426  70.439  1.00  0.00    -0.366 C  
HETATM   21  C   UNL     1     -11.771  15.838  68.979  1.00  0.00    -0.405 C  
HETATM   22  C   UNL     1     -11.018  14.816  68.161  1.00  0.00    -0.268 C  
HETATM   23  O   UNL     1     -10.324  15.139  67.203  1.00  0.00    -0.255 OA 
ENDBRANCH  12  13
ENDBRANCH  11  12
ENDBRANCH   8  11
ENDBRANCH   7   8
ENDBRANCH   5   7
TORSDOF 5
ENDMDL
MODEL       56
REMARK 921   NORMALIZED FREE ENERGY PREDICTED BY IDOCK:   -5.62 KCAL/MOL
REMARK 922        TOTAL FREE ENERGY PREDICTED BY IDOCK:   -8.00 KCAL/MOL
REMARK 923 INTER-LIGAND FREE ENERGY PREDICTED BY IDOCK:   -7.57 KCAL/MOL
REMARK 924 INTRA-LIGAND FREE ENERGY PREDICTED BY IDOCK:   -0.43 KCAL/MOL
REMARK 927      BINDING AFFINITY PREDICTED BY RF-SCORE:    0.00 PKD
ROOT
HETATM    1  C   UNL     1      -8.231   9.538  63.803  1.00  0.00    -0.161 C  
HETATM    2  C   UNL     1      -8.833  10.421  64.911  1.00  0.00    -0.190 C  
HETATM    3  C   UNL     1      -7.730  10.689  65.956  1.00  0.00    -0.151 C  
HETATM    4  C   UNL     1      -9.989   9.689  65.608  1.00  0.00    -0.321 C  
HETATM    5  N   UNL     1      -9.256  11.739  64.391  1.00  0.00    -0.414 NA 
HETATM    6  H   UNL     1      -8.448  12.259  64.050  1.00  0.00     0.000 HD 
ENDROOT
BRANCH   5   7
HETATM    7  C   UNL     1     -10.303  11.697  63.359  1.00  0.00    -0.435 C  
BRANCH   7   8
HETATM    8  C   UNL     1     -11.739  11.890  63.890  1.00  0.00    -0.415 C  
HETATM    9  O   UNL     1     -12.654  11.453  62.874  1.00  0.00    -0.970 OA 
HETATM   10  H   UNL     1     -13.538  11.572  63.202  1.00  0.00     0.000 HD 
BRANCH   8  11
HETATM   11  C   UNL     1     -12.035  13.354  64.232  1.00  0.00    -0.430 C  
BRANCH  11  12
HETATM   12  O   UNL     1     -10.947  13.876  65.012  1.00  0.00    -0.330 OA 
BRANCH  12  13
HETATM   13  C   UNL     1     -11.174  13.860  66.367  1.00  0.00    -0.315 A  
HETATM   14  C   UNL     1     -11.608  12.715  67.050  1.00  0.00    -0.431 A  
HETATM   15  C   UNL     1     -11.882  12.765  68.414  1.00  0.00    -0.353 A  
HETATM   16  C   UNL     1     -11.682  13.952  69.112  1.00  0.00    -0.382 A  
HETATM   17  C   UNL     1     -11.188  15.082  68.449  1.00  0.00    -0.303 A  
HETATM   18  C   UNL     1     -10.936  15.055  67.065  1.00  0.00    -0.318 A  
HETATM   19  C   UNL     1     -10.385  16.266  66.348  1.00  0.00    -0.319 C  
HETATM   20  C   UNL     1     -10.622  17.561  67.116  1.00  0.00    -0.264 C  
HETATM   21  C   UNL     1     -10.166  17.426  68.558  1.00  0.00    -0.369 C  
HETATM   22  C   UNL     1     -10.911  16.306  69.244  1.00  0.00    -0.317 C  
HETATM   23  O   UNL     1     -11.221  16.367  70.429  1.00  0.00    -0.378 OA 
ENDBRANCH  12  13
ENDBRANCH  11  12
ENDBRANCH   8  11
ENDBRANCH   7   8
ENDBRANCH   5   7
TORSDOF 5
ENDMDL
MODEL       57
REMARK 921   NORMALIZED FREE ENERGY PREDICTED BY IDOCK:   -5.61 KCAL/MOL
REMARK 922        TOTAL FREE ENERGY PREDICTED BY IDOCK:   -7.99 KCAL/MOL
REMARK 923 INTER-LIGAND FREE ENERGY PREDICTED BY IDOCK:   -7.65 KCAL/MOL
REMARK 924 INTRA-LIGAND FREE ENERGY PREDICTED BY IDOCK:   -0.34 KCAL/MOL
REMARK 927      BINDING AFFINITY PREDICTED BY RF-SCORE:    0.00 PKD
ROOT
HETATM    1  C   UNL     1      -6.269  17.324  66.500  1.00  0.00    -0.256 C  
HETATM    2  C   UNL     1      -6.735  18.200  67.677  1.00  0.00    -0.195 C  
HETATM    3  C   UNL     1      -5.724  19.354  67.840  1.00  0.00    -0.204 C  
HETATM    4  C   UNL     1      -6.747  17.383  68.978  1.00  0.00    -0.243 C  
HETATM    5  N   UNL     1      -8.050  18.821  67.409  1.00  0.00    -0.250 NA 
HETATM    6  H   UNL     1      -7.983  19.458  66.616  1.00  0.00     0.000 HD 
ENDROOT
BRANCH   5   7
HETATM    7  C   UNL     1      -9.158  17.875  67.206  1.00  0.00    -0.251 C  
BRANCH   7   8
HETATM    8  C   UNL     1     -10.323  18.024  68.207  1.00  0.00    -0.380 C  
HETATM    9  O   UNL     1     -10.041  19.146  69.058  1.00  0.00    -0.502 OA 
HETATM   10  H   UNL     1     -10.758  19.237  69.675  1.00  0.00     0.000 HD 
BRANCH   8  11
HETATM   11  C   UNL     1     -10.500  16.774  69.074  1.00  0.00    -0.336 C  
BRANCH  11  12
HETATM   12  O   UNL     1     -11.601  16.007  68.559  1.00  0.00    -0.381 OA 
BRANCH  12  13
HETATM   13  C   UNL     1     -11.591  14.688  68.947  1.00  0.00    -0.310 A  
HETATM   14  C   UNL     1     -10.885  13.698  68.251  1.00  0.00    -0.268 A  
HETATM   15  C   UNL     1     -10.955  12.366  68.650  1.00  0.00    -0.283 A  
HETATM   16  C   UNL     1     -11.701  12.022  69.774  1.00  0.00    -0.390 A  
HETATM   17  C   UNL     1     -12.357  13.015  70.510  1.00  0.00    -0.365 A  
HETATM   18  C   UNL     1     -12.321  14.361  70.102  1.00  0.00    -0.406 A  
HETATM   19  C   UNL     1     -13.012  15.439  70.905  1.00  0.00    -0.539 C  
HETATM   20  C   UNL     1     -14.101  14.886  71.816  1.00  0.00    -0.609 C  
HETATM   21  C   UNL     1     -13.575  13.728  72.646  1.00  0.00    -0.617 C  
HETATM   22  C   UNL     1     -13.077  12.621  71.749  1.00  0.00    -0.360 C  
HETATM   23  O   UNL     1     -13.196  11.438  72.055  1.00  0.00    -0.503 OA 
ENDBRANCH  12  13
ENDBRANCH  11  12
ENDBRANCH   8  11
ENDBRANCH   7   8
ENDBRANCH   5   7
TORSDOF 5
ENDMDL
MODEL       58
REMARK 921   NORMALIZED FREE ENERGY PREDICTED BY IDOCK:   -5.61 KCAL/MOL
REMARK 922        TOTAL FREE ENERGY PREDICTED BY IDOCK:   -7.99 KCAL/MOL
REMARK 923 INTER-LIGAND FREE ENERGY PREDICTED BY IDOCK:   -7.00 KCAL/MOL
REMARK 924 INTRA-LIGAND FREE ENERGY PREDICTED BY IDOCK:   -0.99 KCAL/MOL
REMARK 927      BINDING AFFINITY PREDICTED BY RF-SCORE:    0.00 PKD
ROOT
HETATM    1  C   UNL     1     -10.491  17.476  67.237  1.00  0.00    -0.327 C  
HETATM    2  C   UNL     1     -10.018  16.157  66.601  1.00  0.00    -0.260 C  
HETATM    3  C   UNL     1      -8.491  16.249  66.395  1.00  0.00    -0.365 C  
HETATM    4  C   UNL     1     -10.677  15.959  65.228  1.00  0.00    -0.442 C  
HETATM    5  N   UNL     1     -10.258  15.002  67.494  1.00  0.00    -0.233 NA 
HETATM    6  H   UNL     1      -9.707  15.097  68.347  1.00  0.00     0.000 HD 
ENDROOT
BRANCH   5   7
HETATM    7  C   UNL     1     -11.668  14.753  67.827  1.00  0.00    -0.343 C  
BRANCH   7   8
HETATM    8  C   UNL     1     -11.892  14.009  69.160  1.00  0.00    -0.350 C  
HETATM    9  O   UNL     1     -10.834  14.374  70.060  1.00  0.00    -0.452 OA 
HETATM   10  H   UNL     1     -10.972  13.916  70.880  1.00  0.00     0.000 HD 
BRANCH   8  11
HETATM   11  C   UNL     1     -11.890  12.488  68.979  1.00  0.00    -0.296 C  
BRANCH  11  12
HETATM   12  O   UNL     1     -11.918  12.190  67.574  1.00  0.00    -0.544 OA 
BRANCH  12  13
HETATM   13  C   UNL     1     -11.124  11.127  67.214  1.00  0.00    -0.302 A  
HETATM   14  C   UNL     1     -10.818  10.078  68.092  1.00  0.00    -0.303 A  
HETATM   15  C   UNL     1      -9.960   9.054  67.699  1.00  0.00    -0.252 A  
HETATM   16  C   UNL     1      -9.437   9.052  66.409  1.00  0.00    -0.288 A  
HETATM   17  C   UNL     1      -9.790  10.062  65.507  1.00  0.00    -0.373 A  
HETATM   18  C   UNL     1     -10.630  11.121  65.900  1.00  0.00    -0.294 A  
HETATM   19  C   UNL     1     -11.029  12.204  64.924  1.00  0.00    -0.355 C  
HETATM   20  C   UNL     1     -10.075  12.307  63.740  1.00  0.00    -0.376 C  
HETATM   21  C   UNL     1      -9.850  10.946  63.106  1.00  0.00    -0.392 C  
HETATM   22  C   UNL     1      -9.275   9.983  64.116  1.00  0.00    -0.271 C  
HETATM   23  O   UNL     1      -8.463   9.120  63.797  1.00  0.00    -0.180 OA 
ENDBRANCH  12  13
ENDBRANCH  11  12
ENDBRANCH   8  11
ENDBRANCH   7   8
ENDBRANCH   5   7
TORSDOF 5
ENDMDL
MODEL       59
REMARK 921   NORMALIZED FREE ENERGY PREDICTED BY IDOCK:   -5.59 KCAL/MOL
REMARK 922        TOTAL FREE ENERGY PREDICTED BY IDOCK:   -7.96 KCAL/MOL
REMARK 923 INTER-LIGAND FREE ENERGY PREDICTED BY IDOCK:   -7.03 KCAL/MOL
REMARK 924 INTRA-LIGAND FREE ENERGY PREDICTED BY IDOCK:   -0.93 KCAL/MOL
REMARK 927      BINDING AFFINITY PREDICTED BY RF-SCORE:    0.00 PKD
ROOT
HETATM    1  C   UNL     1     -10.882  15.567  65.589  1.00  0.00    -0.354 C  
HETATM    2  C   UNL     1     -11.310  14.089  65.555  1.00  0.00    -0.313 C  
HETATM    3  C   UNL     1     -10.412  13.357  64.536  1.00  0.00    -0.431 C  
HETATM    4  C   UNL     1     -12.767  13.965  65.087  1.00  0.00    -0.434 C  
HETATM    5  N   UNL     1     -11.097  13.428  66.861  1.00  0.00    -0.287 NA 
HETATM    6  H   UNL     1     -10.103  13.410  67.089  1.00  0.00     0.000 HD 
ENDROOT
BRANCH   5   7
HETATM    7  C   UNL     1     -11.862  13.997  67.981  1.00  0.00    -0.368 C  
BRANCH   7   8
HETATM    8  C   UNL     1     -11.008  14.727  69.039  1.00  0.00    -0.248 C  
HETATM    9  O   UNL     1     -11.126  14.013  70.279  1.00  0.00    -0.471 OA 
HETATM   10  H   UNL     1     -10.601  14.463  70.930  1.00  0.00     0.000 HD 
BRANCH   8  11
HETATM   11  C   UNL     1     -11.466  16.173  69.250  1.00  0.00    -0.304 C  
BRANCH  11  12
HETATM   12  O   UNL     1     -10.315  16.987  69.527  1.00  0.00    -0.262 OA 
BRANCH  12  13
HETATM   13  C   UNL     1      -9.941  17.797  68.482  1.00  0.00    -0.370 A  
HETATM   14  C   UNL     1     -10.697  18.905  68.073  1.00  0.00    -0.283 A  
HETATM   15  C   UNL     1     -10.307  19.660  66.971  1.00  0.00    -0.581 A  
HETATM   16  C   UNL     1      -9.134  19.336  66.295  1.00  0.00    -0.354 A  
HETATM   17  C   UNL     1      -8.341  18.270  66.737  1.00  0.00    -0.269 A  
HETATM   18  C   UNL     1      -8.738  17.479  67.830  1.00  0.00    -0.247 A  
HETATM   19  C   UNL     1      -7.877  16.339  68.323  1.00  0.00    -0.164 C  
HETATM   20  C   UNL     1      -6.892  15.849  67.267  1.00  0.00    -0.232 C  
HETATM   21  C   UNL     1      -6.115  17.009  66.672  1.00  0.00    -0.231 C  
HETATM   22  C   UNL     1      -7.056  18.005  66.040  1.00  0.00    -0.295 C  
HETATM   23  O   UNL     1      -6.754  18.627  65.026  1.00  0.00    -0.526 OA 
ENDBRANCH  12  13
ENDBRANCH  11  12
ENDBRANCH   8  11
ENDBRANCH   7   8
ENDBRANCH   5   7
TORSDOF 5
ENDMDL
MODEL       60
REMARK 921   NORMALIZED FREE ENERGY PREDICTED BY IDOCK:   -5.59 KCAL/MOL
REMARK 922        TOTAL FREE ENERGY PREDICTED BY IDOCK:   -7.95 KCAL/MOL
REMARK 923 INTER-LIGAND FREE ENERGY PREDICTED BY IDOCK:   -6.67 KCAL/MOL
REMARK 924 INTRA-LIGAND FREE ENERGY PREDICTED BY IDOCK:   -1.28 KCAL/MOL
REMARK 927      BINDING AFFINITY PREDICTED BY RF-SCORE:    0.00 PKD
ROOT
HETATM    1  C   UNL     1      -8.729  11.774  67.497  1.00  0.00    -0.159 C  
HETATM    2  C   UNL     1      -9.243  10.326  67.410  1.00  0.00    -0.141 C  
HETATM    3  C   UNL     1     -10.004  10.013  68.716  1.00  0.00    -0.181 C  
HETATM    4  C   UNL     1      -8.066   9.347  67.293  1.00  0.00    -0.110 C  
HETATM    5  N   UNL     1     -10.209  10.155  66.303  1.00  0.00    -0.236 NA 
HETATM    6  H   UNL     1     -11.041  10.721  66.471  1.00  0.00     0.000 HD 
ENDROOT
BRANCH   5   7
HETATM    7  C   UNL     1      -9.675  10.425  64.960  1.00  0.00    -0.300 C  
BRANCH   7   8
HETATM    8  C   UNL     1     -10.668  11.113  63.999  1.00  0.00    -0.339 C  
HETATM    9  O   UNL     1     -10.277  10.800  62.653  1.00  0.00    -0.743 OA 
HETATM   10  H   UNL     1     -10.889  11.224  62.062  1.00  0.00     0.000 HD 
BRANCH   8  11
HETATM   11  C   UNL     1     -10.680  12.634  64.175  1.00  0.00    -0.406 C  
BRANCH  11  12
HETATM   12  O   UNL     1     -11.512  12.964  65.298  1.00  0.00    -0.297 OA 
BRANCH  12  13
HETATM   13  C   UNL     1     -11.173  14.144  65.916  1.00  0.00    -0.313 A  
HETATM   14  C   UNL     1     -10.631  15.234  65.222  1.00  0.00    -0.438 A  
HETATM   15  C   UNL     1     -10.248  16.387  65.903  1.00  0.00    -0.379 A  
HETATM   16  C   UNL     1     -10.446  16.471  67.279  1.00  0.00    -0.304 A  
HETATM   17  C   UNL     1     -11.045  15.410  67.967  1.00  0.00    -0.312 A  
HETATM   18  C   UNL     1     -11.409  14.227  67.298  1.00  0.00    -0.350 A  
HETATM   19  C   UNL     1     -12.074  13.087  68.034  1.00  0.00    -0.220 C  
HETATM   20  C   UNL     1     -11.836  13.141  69.539  1.00  0.00    -0.383 C  
HETATM   21  C   UNL     1     -12.163  14.516  70.089  1.00  0.00    -0.399 C  
HETATM   22  C   UNL     1     -11.312  15.569  69.420  1.00  0.00    -0.316 C  
HETATM   23  O   UNL     1     -10.908  16.556  70.028  1.00  0.00    -0.344 OA 
ENDBRANCH  12  13
ENDBRANCH  11  12
ENDBRANCH   8  11
ENDBRANCH   7   8
ENDBRANCH   5   7
TORSDOF 5
ENDMDL
MODEL       61
REMARK 921   NORMALIZED FREE ENERGY PREDICTED BY IDOCK:   -5.55 KCAL/MOL
REMARK 922        TOTAL FREE ENERGY PREDICTED BY IDOCK:   -7.90 KCAL/MOL
REMARK 923 INTER-LIGAND FREE ENERGY PREDICTED BY IDOCK:   -7.12 KCAL/MOL
REMARK 924 INTRA-LIGAND FREE ENERGY PREDICTED BY IDOCK:   -0.79 KCAL/MOL
REMARK 927      BINDING AFFINITY PREDICTED BY RF-SCORE:    0.00 PKD
ROOT
HETATM    1  C   UNL     1      -7.206  16.530  66.764  1.00  0.00    -0.260 C  
HETATM    2  C   UNL     1      -6.821  17.166  68.112  1.00  0.00    -0.176 C  
HETATM    3  C   UNL     1      -5.282  17.152  68.222  1.00  0.00    -0.127 C  
HETATM    4  C   UNL     1      -7.394  16.343  69.275  1.00  0.00    -0.211 C  
HETATM    5  N   UNL     1      -7.240  18.583  68.187  1.00  0.00    -0.248 NA 
HETATM    6  H   UNL     1      -6.747  19.133  67.484  1.00  0.00     0.000 HD 
ENDROOT
BRANCH   5   7
HETATM    7  C   UNL     1      -8.689  18.813  68.083  1.00  0.00    -0.306 C  
BRANCH   7   8
HETATM    8  C   UNL     1      -9.177  19.220  66.677  1.00  0.00    -0.338 C  
HETATM    9  O   UNL     1      -9.564  20.602  66.721  1.00  0.00    -0.628 OA 
HETATM   10  H   UNL     1      -9.865  20.853  65.856  1.00  0.00     0.000 HD 
BRANCH   8  11
HETATM   11  C   UNL     1     -10.374  18.382  66.218  1.00  0.00    -0.415 C  
BRANCH  11  12
HETATM   12  O   UNL     1     -10.656  17.390  67.218  1.00  0.00    -0.339 OA 
BRANCH  12  13
HETATM   13  C   UNL     1     -10.829  16.123  66.714  1.00  0.00    -0.162 A  
HETATM   14  C   UNL     1     -10.605  15.806  65.367  1.00  0.00    -0.441 A  
HETATM   15  C   UNL     1     -10.852  14.521  64.892  1.00  0.00    -0.436 A  
HETATM   16  C   UNL     1     -11.284  13.533  65.773  1.00  0.00    -0.308 A  
HETATM   17  C   UNL     1     -11.448  13.828  67.131  1.00  0.00    -0.365 A  
HETATM   18  C   UNL     1     -11.233  15.129  67.620  1.00  0.00    -0.329 A  
HETATM   19  C   UNL     1     -11.390  15.448  69.089  1.00  0.00    -0.323 C  
HETATM   20  C   UNL     1     -12.251  14.426  69.822  1.00  0.00    -0.370 C  
HETATM   21  C   UNL     1     -11.777  13.013  69.535  1.00  0.00    -0.381 C  
HETATM   22  C   UNL     1     -11.833  12.729  68.054  1.00  0.00    -0.336 C  
HETATM   23  O   UNL     1     -12.119  11.617  67.619  1.00  0.00    -0.615 OA 
ENDBRANCH  12  13
ENDBRANCH  11  12
ENDBRANCH   8  11
ENDBRANCH   7   8
ENDBRANCH   5   7
TORSDOF 5
ENDMDL
MODEL       62
REMARK 921   NORMALIZED FREE ENERGY PREDICTED BY IDOCK:   -5.53 KCAL/MOL
REMARK 922        TOTAL FREE ENERGY PREDICTED BY IDOCK:   -7.88 KCAL/MOL
REMARK 923 INTER-LIGAND FREE ENERGY PREDICTED BY IDOCK:   -6.28 KCAL/MOL
REMARK 924 INTRA-LIGAND FREE ENERGY PREDICTED BY IDOCK:   -1.60 KCAL/MOL
REMARK 927      BINDING AFFINITY PREDICTED BY RF-SCORE:    0.00 PKD
ROOT
HETATM    1  C   UNL     1     -12.370  13.527  65.838  1.00  0.00    -0.507 C  
HETATM    2  C   UNL     1     -11.412  13.805  64.665  1.00  0.00    -0.371 C  
HETATM    3  C   UNL     1     -11.314  15.334  64.484  1.00  0.00    -0.307 C  
HETATM    4  C   UNL     1     -11.968  13.201  63.367  1.00  0.00    -0.552 C  
HETATM    5  N   UNL     1     -10.044  13.321  64.951  1.00  0.00    -0.542 NA 
HETATM    6  H   UNL     1      -9.648  13.830  65.741  1.00  0.00     0.000 HD 
ENDROOT
BRANCH   5   7
HETATM    7  C   UNL     1      -9.926  11.872  65.173  1.00  0.00    -0.247 C  
BRANCH   7   8
HETATM    8  C   UNL     1      -8.982  11.472  66.326  1.00  0.00    -0.196 C  
HETATM    9  O   UNL     1      -8.845  10.043  66.317  1.00  0.00    -0.140 OA 
HETATM   10  H   UNL     1      -8.264   9.797  67.027  1.00  0.00     0.000 HD 
BRANCH   8  11
HETATM   11  C   UNL     1      -9.521  11.912  67.690  1.00  0.00    -0.182 C  
BRANCH  11  12
HETATM   12  O   UNL     1      -8.919  13.168  68.043  1.00  0.00    -0.181 OA 
BRANCH  12  13
HETATM   13  C   UNL     1      -9.826  14.153  68.356  1.00  0.00    -0.231 A  
HETATM   14  C   UNL     1     -10.942  13.923  69.172  1.00  0.00    -0.253 A  
HETATM   15  C   UNL     1     -11.864  14.938  69.412  1.00  0.00    -0.356 A  
HETATM   16  C   UNL     1     -11.651  16.203  68.871  1.00  0.00    -0.298 A  
HETATM   17  C   UNL     1     -10.505  16.456  68.109  1.00  0.00    -0.302 A  
HETATM   18  C   UNL     1      -9.581  15.432  67.831  1.00  0.00    -0.206 A  
HETATM   19  C   UNL     1      -8.332  15.705  67.025  1.00  0.00    -0.261 C  
HETATM   20  C   UNL     1      -8.449  16.961  66.169  1.00  0.00    -0.281 C  
HETATM   21  C   UNL     1      -8.927  18.138  67.000  1.00  0.00    -0.263 C  
HETATM   22  C   UNL     1     -10.272  17.838  67.615  1.00  0.00    -0.358 C  
HETATM   23  O   UNL     1     -11.122  18.709  67.768  1.00  0.00    -0.243 OA 
ENDBRANCH  12  13
ENDBRANCH  11  12
ENDBRANCH   8  11
ENDBRANCH   7   8
ENDBRANCH   5   7
TORSDOF 5
ENDMDL
MODEL       63
REMARK 921   NORMALIZED FREE ENERGY PREDICTED BY IDOCK:   -5.53 KCAL/MOL
REMARK 922        TOTAL FREE ENERGY PREDICTED BY IDOCK:   -7.87 KCAL/MOL
REMARK 923 INTER-LIGAND FREE ENERGY PREDICTED BY IDOCK:   -7.31 KCAL/MOL
REMARK 924 INTRA-LIGAND FREE ENERGY PREDICTED BY IDOCK:   -0.56 KCAL/MOL
REMARK 927      BINDING AFFINITY PREDICTED BY RF-SCORE:    0.00 PKD
ROOT
HETATM    1  C   UNL     1     -10.606   6.331  67.393  1.00  0.00    -0.361 C  
HETATM    2  C   UNL     1      -9.512   6.765  68.385  1.00  0.00    -0.126 C  
HETATM    3  C   UNL     1      -8.188   6.101  67.953  1.00  0.00    -0.117 C  
HETATM    4  C   UNL     1      -9.853   6.280  69.801  1.00  0.00    -0.195 C  
HETATM    5  N   UNL     1      -9.288   8.226  68.347  1.00  0.00    -0.135 NA 
HETATM    6  H   UNL     1      -8.939   8.505  67.430  1.00  0.00     0.000 HD 
ENDROOT
BRANCH   5   7
HETATM    7  C   UNL     1     -10.452   9.047  68.715  1.00  0.00    -0.206 C  
BRANCH   7   8
HETATM    8  C   UNL     1     -10.596  10.356  67.911  1.00  0.00    -0.232 C  
HETATM    9  O   UNL     1     -11.970  10.769  67.972  1.00  0.00    -0.780 OA 
HETATM   10  H   UNL     1     -12.058  11.575  67.477  1.00  0.00     0.000 HD 
BRANCH   8  11
HETATM   11  C   UNL     1     -10.193  10.179  66.445  1.00  0.00    -0.221 C  
BRANCH  11  12
HETATM   12  O   UNL     1      -9.560  11.386  65.989  1.00  0.00    -0.207 OA 
BRANCH  12  13
HETATM   13  C   UNL     1     -10.383  12.205  65.255  1.00  0.00    -0.277 A  
HETATM   14  C   UNL     1     -11.336  11.711  64.354  1.00  0.00    -0.334 A  
HETATM   15  C   UNL     1     -12.106  12.583  63.589  1.00  0.00    -0.642 A  
HETATM   16  C   UNL     1     -11.955  13.957  63.752  1.00  0.00    -0.305 A  
HETATM   17  C   UNL     1     -11.051  14.457  64.697  1.00  0.00    -0.363 A  
HETATM   18  C   UNL     1     -10.244  13.588  65.455  1.00  0.00    -0.316 A  
HETATM   19  C   UNL     1      -9.280  14.122  66.489  1.00  0.00    -0.247 C  
HETATM   20  C   UNL     1      -8.921  15.585  66.258  1.00  0.00    -0.362 C  
HETATM   21  C   UNL     1     -10.171  16.426  66.075  1.00  0.00    -0.373 C  
HETATM   22  C   UNL     1     -10.976  15.927  64.899  1.00  0.00    -0.411 C  
HETATM   23  O   UNL     1     -11.603  16.692  64.173  1.00  0.00    -1.102 OA 
ENDBRANCH  12  13
ENDBRANCH  11  12
ENDBRANCH   8  11
ENDBRANCH   7   8
ENDBRANCH   5   7
TORSDOF 5
ENDMDL
MODEL       64
REMARK 921   NORMALIZED FREE ENERGY PREDICTED BY IDOCK:   -5.51 KCAL/MOL
REMARK 922        TOTAL FREE ENERGY PREDICTED BY IDOCK:   -7.85 KCAL/MOL
REMARK 923 INTER-LIGAND FREE ENERGY PREDICTED BY IDOCK:   -7.36 KCAL/MOL
REMARK 924 INTRA-LIGAND FREE ENERGY PREDICTED BY IDOCK:   -0.49 KCAL/MOL
REMARK 927      BINDING AFFINITY PREDICTED BY RF-SCORE:    0.00 PKD
ROOT
HETATM    1  C   UNL     1     -11.640  14.825  64.470  1.00  0.00    -0.366 C  
HETATM    2  C   UNL     1     -11.445  13.388  64.985  1.00  0.00    -0.311 C  
HETATM    3  C   UNL     1     -10.349  12.720  64.128  1.00  0.00    -0.401 C  
HETATM    4  C   UNL     1     -12.742  12.581  64.821  1.00  0.00    -0.415 C  
HETATM    5  N   UNL     1     -10.963  13.369  66.383  1.00  0.00    -0.288 NA 
HETATM    6  H   UNL     1     -10.040  13.798  66.442  1.00  0.00     0.000 HD 
ENDROOT
BRANCH   5   7
HETATM    7  C   UNL     1     -11.870  13.981  67.365  1.00  0.00    -0.409 C  
BRANCH   7   8
HETATM    8  C   UNL     1     -11.871  13.302  68.751  1.00  0.00    -0.334 C  
HETATM    9  O   UNL     1     -10.685  13.710  69.450  1.00  0.00    -0.436 OA 
HETATM   10  H   UNL     1     -10.686  13.291  70.303  1.00  0.00     0.000 HD 
BRANCH   8  11
HETATM   11  C   UNL     1     -11.886  11.775  68.644  1.00  0.00    -0.310 C  
BRANCH  11  12
HETATM   12  O   UNL     1     -10.943  11.235  69.583  1.00  0.00    -0.227 OA 
BRANCH  12  13
HETATM   13  C   UNL     1     -11.503  10.397  70.518  1.00  0.00    -0.345 A  
HETATM   14  C   UNL     1     -12.860  10.447  70.863  1.00  0.00    -0.482 A  
HETATM   15  C   UNL     1     -13.367   9.617  71.860  1.00  0.00    -0.526 A  
HETATM   16  C   UNL     1     -12.527   8.703  72.487  1.00  0.00    -0.372 A  
HETATM   17  C   UNL     1     -11.185   8.604  72.102  1.00  0.00    -0.438 A  
HETATM   18  C   UNL     1     -10.650   9.457  71.119  1.00  0.00    -0.403 A  
HETATM   19  C   UNL     1      -9.207   9.342  70.686  1.00  0.00    -0.321 C  
HETATM   20  C   UNL     1      -8.339   8.633  71.719  1.00  0.00    -0.203 C  
HETATM   21  C   UNL     1      -8.971   7.321  72.147  1.00  0.00    -0.148 C  
HETATM   22  C   UNL     1     -10.339   7.562  72.739  1.00  0.00    -0.278 C  
HETATM   23  O   UNL     1     -10.771   6.884  73.665  1.00  0.00    -0.343 OA 
ENDBRANCH  12  13
ENDBRANCH  11  12
ENDBRANCH   8  11
ENDBRANCH   7   8
ENDBRANCH   5   7
TORSDOF 5
ENDMDL
MODEL       65
REMARK 921   NORMALIZED FREE ENERGY PREDICTED BY IDOCK:   -5.46 KCAL/MOL
REMARK 922        TOTAL FREE ENERGY PREDICTED BY IDOCK:   -7.79 KCAL/MOL
REMARK 923 INTER-LIGAND FREE ENERGY PREDICTED BY IDOCK:   -7.43 KCAL/MOL
REMARK 924 INTRA-LIGAND FREE ENERGY PREDICTED BY IDOCK:   -0.36 KCAL/MOL
REMARK 927      BINDING AFFINITY PREDICTED BY RF-SCORE:    0.00 PKD
ROOT
HETATM    1  C   UNL     1     -11.584   6.833  71.117  1.00  0.00    -0.377 C  
HETATM    2  C   UNL     1     -11.345   7.959  72.139  1.00  0.00    -0.313 C  
HETATM    3  C   UNL     1     -10.849   7.314  73.450  1.00  0.00    -0.370 C  
HETATM    4  C   UNL     1     -12.657   8.700  72.434  1.00  0.00    -0.426 C  
HETATM    5  N   UNL     1     -10.283   8.887  71.692  1.00  0.00    -0.319 NA 
HETATM    6  H   UNL     1      -9.391   8.396  71.627  1.00  0.00     0.000 HD 
ENDROOT
BRANCH   5   7
HETATM    7  C   UNL     1     -10.561   9.597  70.435  1.00  0.00    -0.295 C  
BRANCH   7   8
HETATM    8  C   UNL     1      -9.471   9.444  69.354  1.00  0.00    -0.173 C  
HETATM    9  O   UNL     1      -8.465  10.441  69.589  1.00  0.00    -0.305 OA 
HETATM   10  H   UNL     1      -7.794  10.347  68.923  1.00  0.00     0.000 HD 
BRANCH   8  11
HETATM   11  C   UNL     1     -10.032   9.625  67.940  1.00  0.00    -0.166 C  
BRANCH  11  12
HETATM   12  O   UNL     1      -9.453  10.805  67.360  1.00  0.00    -0.154 OA 
BRANCH  12  13
HETATM   13  C   UNL     1      -9.851  11.043  66.067  1.00  0.00    -0.229 A  
HETATM   14  C   UNL     1      -9.404  10.276  64.982  1.00  0.00    -0.290 A  
HETATM   15  C   UNL     1      -9.790  10.595  63.683  1.00  0.00    -0.392 A  
HETATM   16  C   UNL     1     -10.660  11.660  63.466  1.00  0.00    -0.496 A  
HETATM   17  C   UNL     1     -11.160  12.390  64.550  1.00  0.00    -0.360 A  
HETATM   18  C   UNL     1     -10.756  12.099  65.866  1.00  0.00    -0.302 A  
HETATM   19  C   UNL     1     -11.307  12.872  67.041  1.00  0.00    -0.355 C  
HETATM   20  C   UNL     1     -11.880  14.226  66.637  1.00  0.00    -0.442 C  
HETATM   21  C   UNL     1     -12.845  14.080  65.476  1.00  0.00    -0.453 C  
HETATM   22  C   UNL     1     -12.149  13.467  64.284  1.00  0.00    -0.424 C  
HETATM   23  O   UNL     1     -12.429  13.790  63.135  1.00  0.00    -0.786 OA 
ENDBRANCH  12  13
ENDBRANCH  11  12
ENDBRANCH   8  11
ENDBRANCH   7   8
ENDBRANCH   5   7
TORSDOF 5
ENDMDL
MODEL       66
REMARK 921   NORMALIZED FREE ENERGY PREDICTED BY IDOCK:   -5.45 KCAL/MOL
REMARK 922        TOTAL FREE ENERGY PREDICTED BY IDOCK:   -7.78 KCAL/MOL
REMARK 923 INTER-LIGAND FREE ENERGY PREDICTED BY IDOCK:   -6.73 KCAL/MOL
REMARK 924 INTRA-LIGAND FREE ENERGY PREDICTED BY IDOCK:   -1.05 KCAL/MOL
REMARK 927      BINDING AFFINITY PREDICTED BY RF-SCORE:    0.00 PKD
ROOT
HETATM    1  C   UNL     1      -9.577   9.115  65.684  1.00  0.00    -0.287 C  
HETATM    2  C   UNL     1      -8.865  10.171  64.820  1.00  0.00    -0.195 C  
HETATM    3  C   UNL     1      -9.835  10.600  63.698  1.00  0.00    -0.392 C  
HETATM    4  C   UNL     1      -7.611   9.571  64.168  1.00  0.00    -0.123 C  
HETATM    5  N   UNL     1      -8.548  11.389  65.596  1.00  0.00    -0.382 NA 
HETATM    6  H   UNL     1      -9.407  11.841  65.910  1.00  0.00     0.000 HD 
ENDROOT
BRANCH   5   7
HETATM    7  C   UNL     1      -7.638  11.186  66.734  1.00  0.00    -0.146 C  
BRANCH   7   8
HETATM    8  C   UNL     1      -8.038  11.939  68.020  1.00  0.00    -0.151 C  
HETATM    9  O   UNL     1      -7.201  11.474  69.090  1.00  0.00    -0.137 OA 
HETATM   10  H   UNL     1      -7.447  11.937  69.881  1.00  0.00     0.000 HD 
BRANCH   8  11
HETATM   11  C   UNL     1      -9.504  11.701  68.395  1.00  0.00    -0.193 C  
BRANCH  11  12
HETATM   12  O   UNL     1     -10.180  12.967  68.445  1.00  0.00    -0.242 OA 
BRANCH  12  13
HETATM   13  C   UNL     1     -10.866  13.279  67.295  1.00  0.00    -0.264 A  
HETATM   14  C   UNL     1     -11.786  12.404  66.700  1.00  0.00    -0.438 A  
HETATM   15  C   UNL     1     -12.411  12.742  65.503  1.00  0.00    -0.495 A  
HETATM   16  C   UNL     1     -12.150  13.977  64.915  1.00  0.00    -0.435 A  
HETATM   17  C   UNL     1     -11.282  14.881  65.537  1.00  0.00    -0.348 A  
HETATM   18  C   UNL     1     -10.619  14.542  66.731  1.00  0.00    -0.276 A  
HETATM   19  C   UNL     1      -9.695  15.521  67.417  1.00  0.00    -0.218 C  
HETATM   20  C   UNL     1      -9.189  16.608  66.476  1.00  0.00    -0.297 C  
HETATM   21  C   UNL     1     -10.339  17.253  65.725  1.00  0.00    -0.245 C  
HETATM   22  C   UNL     1     -11.091  16.219  64.922  1.00  0.00    -0.290 C  
HETATM   23  O   UNL     1     -11.587  16.484  63.831  1.00  0.00    -1.175 OA 
ENDBRANCH  12  13
ENDBRANCH  11  12
ENDBRANCH   8  11
ENDBRANCH   7   8
ENDBRANCH   5   7
TORSDOF 5
ENDMDL
MODEL       67
REMARK 921   NORMALIZED FREE ENERGY PREDICTED BY IDOCK:   -5.44 KCAL/MOL
REMARK 922        TOTAL FREE ENERGY PREDICTED BY IDOCK:   -7.76 KCAL/MOL
REMARK 923 INTER-LIGAND FREE ENERGY PREDICTED BY IDOCK:   -6.77 KCAL/MOL
REMARK 924 INTRA-LIGAND FREE ENERGY PREDICTED BY IDOCK:   -0.99 KCAL/MOL
REMARK 927      BINDING AFFINITY PREDICTED BY RF-SCORE:    0.00 PKD
ROOT
HETATM    1  C   UNL     1      -6.774  11.312  67.344  1.00  0.00    -0.085 C  
HETATM    2  C   UNL     1      -7.127  11.871  68.734  1.00  0.00    -0.111 C  
HETATM    3  C   UNL     1      -6.575  13.310  68.822  1.00  0.00    -0.099 C  
HETATM    4  C   UNL     1      -6.458  11.032  69.833  1.00  0.00    -0.144 C  
HETATM    5  N   UNL     1      -8.590  11.963  68.931  1.00  0.00    -0.369 NA 
HETATM    6  H   UNL     1      -8.993  12.626  68.270  1.00  0.00     0.000 HD 
ENDROOT
BRANCH   5   7
HETATM    7  C   UNL     1      -9.311  10.683  68.867  1.00  0.00    -0.184 C  
BRANCH   7   8
HETATM    8  C   UNL     1     -10.652  10.737  68.106  1.00  0.00    -0.203 C  
HETATM    9  O   UNL     1     -11.583   9.875  68.777  1.00  0.00    -0.496 OA 
HETATM   10  H   UNL     1     -12.408   9.909  68.308  1.00  0.00     0.000 HD 
BRANCH   8  11
HETATM   11  C   UNL     1     -10.508  10.279  66.651  1.00  0.00    -0.194 C  
BRANCH  11  12
HETATM   12  O   UNL     1      -9.784  11.281  65.920  1.00  0.00    -0.207 OA 
BRANCH  12  13
HETATM   13  C   UNL     1     -10.578  12.080  65.132  1.00  0.00    -0.288 A  
HETATM   14  C   UNL     1     -11.492  11.562  64.204  1.00  0.00    -0.299 A  
HETATM   15  C   UNL     1     -12.231  12.413  63.387  1.00  0.00    -0.623 A  
HETATM   16  C   UNL     1     -12.090  13.791  63.524  1.00  0.00    -0.241 A  
HETATM   17  C   UNL     1     -11.227  14.316  64.492  1.00  0.00    -0.331 A  
HETATM   18  C   UNL     1     -10.450  13.469  65.304  1.00  0.00    -0.345 A  
HETATM   19  C   UNL     1      -9.531  14.030  66.364  1.00  0.00    -0.278 C  
HETATM   20  C   UNL     1      -9.166  15.488  66.112  1.00  0.00    -0.379 C  
HETATM   21  C   UNL     1     -10.409  16.321  65.858  1.00  0.00    -0.381 C  
HETATM   22  C   UNL     1     -11.163  15.790  64.662  1.00  0.00    -0.363 C  
HETATM   23  O   UNL     1     -11.761  16.536  63.892  1.00  0.00    -1.148 OA 
ENDBRANCH  12  13
ENDBRANCH  11  12
ENDBRANCH   8  11
ENDBRANCH   7   8
ENDBRANCH   5   7
TORSDOF 5
ENDMDL
MODEL       68
REMARK 921   NORMALIZED FREE ENERGY PREDICTED BY IDOCK:   -5.43 KCAL/MOL
REMARK 922        TOTAL FREE ENERGY PREDICTED BY IDOCK:   -7.75 KCAL/MOL
REMARK 923 INTER-LIGAND FREE ENERGY PREDICTED BY IDOCK:   -7.03 KCAL/MOL
REMARK 924 INTRA-LIGAND FREE ENERGY PREDICTED BY IDOCK:   -0.71 KCAL/MOL
REMARK 927      BINDING AFFINITY PREDICTED BY RF-SCORE:    0.00 PKD
ROOT
HETATM    1  C   UNL     1     -10.127  18.257  68.661  1.00  0.00    -0.407 C  
HETATM    2  C   UNL     1      -9.391  18.797  67.423  1.00  0.00    -0.286 C  
HETATM    3  C   UNL     1      -7.919  19.046  67.815  1.00  0.00    -0.292 C  
HETATM    4  C   UNL     1     -10.002  20.135  66.979  1.00  0.00    -0.596 C  
HETATM    5  N   UNL     1      -9.377  17.811  66.320  1.00  0.00    -0.442 NA 
HETATM    6  H   UNL     1      -8.853  16.982  66.597  1.00  0.00     0.000 HD 
ENDROOT
BRANCH   5   7
HETATM    7  C   UNL     1     -10.702  17.426  65.810  1.00  0.00    -0.120 C  
BRANCH   7   8
HETATM    8  C   UNL     1     -10.730  16.089  65.040  1.00  0.00    -0.378 C  
HETATM    9  O   UNL     1     -11.542  16.265  63.869  1.00  0.00    -1.489 OA 
HETATM   10  H   UNL     1     -11.560  15.441  63.395  1.00  0.00     0.000 HD 
BRANCH   8  11
HETATM   11  C   UNL     1     -11.312  14.951  65.884  1.00  0.00    -0.306 C  
BRANCH  11  12
HETATM   12  O   UNL     1     -10.733  15.006  67.197  1.00  0.00    -0.290 OA 
BRANCH  12  13
HETATM   13  C   UNL     1      -9.806  14.021  67.439  1.00  0.00    -0.240 A  
HETATM   14  C   UNL     1      -8.473  14.114  67.013  1.00  0.00    -0.178 A  
HETATM   15  C   UNL     1      -7.586  13.063  67.231  1.00  0.00    -0.097 A  
HETATM   16  C   UNL     1      -8.017  11.930  67.915  1.00  0.00    -0.144 A  
HETATM   17  C   UNL     1      -9.328  11.858  68.399  1.00  0.00    -0.184 A  
HETATM   18  C   UNL     1     -10.245  12.898  68.160  1.00  0.00    -0.239 A  
HETATM   19  C   UNL     1     -11.656  12.835  68.697  1.00  0.00    -0.352 C  
HETATM   20  C   UNL     1     -12.094  11.413  69.029  1.00  0.00    -0.316 C  
HETATM   21  C   UNL     1     -11.061  10.718  69.897  1.00  0.00    -0.339 C  
HETATM   22  C   UNL     1      -9.727  10.668  69.193  1.00  0.00    -0.189 C  
HETATM   23  O   UNL     1      -8.964   9.715  69.320  1.00  0.00    -0.151 OA 
ENDBRANCH  12  13
ENDBRANCH  11  12
ENDBRANCH   8  11
ENDBRANCH   7   8
ENDBRANCH   5   7
TORSDOF 5
ENDMDL
MODEL       69
REMARK 921   NORMALIZED FREE ENERGY PREDICTED BY IDOCK:   -5.42 KCAL/MOL
REMARK 922        TOTAL FREE ENERGY PREDICTED BY IDOCK:   -7.74 KCAL/MOL
REMARK 923 INTER-LIGAND FREE ENERGY PREDICTED BY IDOCK:   -7.22 KCAL/MOL
REMARK 924 INTRA-LIGAND FREE ENERGY PREDICTED BY IDOCK:   -0.52 KCAL/MOL
REMARK 927      BINDING AFFINITY PREDICTED BY RF-SCORE:    0.00 PKD
ROOT
HETATM    1  C   UNL     1     -10.309  12.819  64.272  1.00  0.00    -0.402 C  
HETATM    2  C   UNL     1     -11.780  13.002  64.687  1.00  0.00    -0.361 C  
HETATM    3  C   UNL     1     -12.644  12.092  63.789  1.00  0.00    -0.567 C  
HETATM    4  C   UNL     1     -12.220  14.456  64.463  1.00  0.00    -0.483 C  
HETATM    5  N   UNL     1     -12.013  12.569  66.082  1.00  0.00    -0.569 NA 
HETATM    6  H   UNL     1     -11.836  11.569  66.174  1.00  0.00     0.000 HD 
ENDROOT
BRANCH   5   7
HETATM    7  C   UNL     1     -11.258  13.313  67.101  1.00  0.00    -0.299 C  
BRANCH   7   8
HETATM    8  C   UNL     1     -11.786  13.147  68.542  1.00  0.00    -0.352 C  
HETATM    9  O   UNL     1     -10.830  13.733  69.439  1.00  0.00    -0.408 OA 
HETATM   10  H   UNL     1     -11.155  13.630  70.326  1.00  0.00     0.000 HD 
BRANCH   8  11
HETATM   11  C   UNL     1     -11.984  11.675  68.916  1.00  0.00    -0.292 C  
BRANCH  11  12
HETATM   12  O   UNL     1     -10.698  11.081  69.157  1.00  0.00    -0.214 OA 
BRANCH  12  13
HETATM   13  C   UNL     1     -10.632   9.746  68.838  1.00  0.00    -0.218 A  
HETATM   14  C   UNL     1     -10.494   9.288  67.520  1.00  0.00    -0.338 A  
HETATM   15  C   UNL     1     -10.492   7.923  67.242  1.00  0.00    -0.390 A  
HETATM   16  C   UNL     1     -10.584   7.009  68.287  1.00  0.00    -0.238 A  
HETATM   17  C   UNL     1     -10.657   7.459  69.610  1.00  0.00    -0.243 A  
HETATM   18  C   UNL     1     -10.693   8.834  69.905  1.00  0.00    -0.228 A  
HETATM   19  C   UNL     1     -10.752   9.326  71.332  1.00  0.00    -0.432 C  
HETATM   20  C   UNL     1     -11.269   8.265  72.297  1.00  0.00    -0.443 C  
HETATM   21  C   UNL     1     -10.519   6.958  72.116  1.00  0.00    -0.230 C  
HETATM   22  C   UNL     1     -10.674   6.452  70.702  1.00  0.00    -0.257 C  
HETATM   23  O   UNL     1     -10.744   5.254  70.449  1.00  0.00    -0.250 OA 
ENDBRANCH  12  13
ENDBRANCH  11  12
ENDBRANCH   8  11
ENDBRANCH   7   8
ENDBRANCH   5   7
TORSDOF 5
ENDMDL
MODEL       70
REMARK 921   NORMALIZED FREE ENERGY PREDICTED BY IDOCK:   -5.39 KCAL/MOL
REMARK 922        TOTAL FREE ENERGY PREDICTED BY IDOCK:   -7.70 KCAL/MOL
REMARK 923 INTER-LIGAND FREE ENERGY PREDICTED BY IDOCK:   -6.96 KCAL/MOL
REMARK 924 INTRA-LIGAND FREE ENERGY PREDICTED BY IDOCK:   -0.74 KCAL/MOL
REMARK 927      BINDING AFFINITY PREDICTED BY RF-SCORE:    0.00 PKD
ROOT
HETATM    1  C   UNL     1      -9.933  16.785  68.314  1.00  0.00    -0.273 C  
HETATM    2  C   UNL     1      -9.434  15.781  67.260  1.00  0.00    -0.212 C  
HETATM    3  C   UNL     1      -7.959  15.454  67.575  1.00  0.00    -0.192 C  
HETATM    4  C   UNL     1      -9.499  16.403  65.857  1.00  0.00    -0.289 C  
HETATM    5  N   UNL     1     -10.177  14.504  67.326  1.00  0.00    -0.254 NA 
HETATM    6  H   UNL     1     -10.013  14.048  68.224  1.00  0.00     0.000 HD 
ENDROOT
BRANCH   5   7
HETATM    7  C   UNL     1     -11.621  14.606  67.068  1.00  0.00    -0.371 C  
BRANCH   7   8
HETATM    8  C   UNL     1     -12.096  13.897  65.782  1.00  0.00    -0.425 C  
HETATM    9  O   UNL     1     -13.487  14.200  65.593  1.00  0.00    -0.725 OA 
HETATM   10  H   UNL     1     -13.780  13.763  64.801  1.00  0.00     0.000 HD 
BRANCH   8  11
HETATM   11  C   UNL     1     -11.924  12.377  65.865  1.00  0.00    -0.367 C  
BRANCH  11  12
HETATM   12  O   UNL     1     -11.921  11.987  67.247  1.00  0.00    -0.591 OA 
BRANCH  12  13
HETATM   13  C   UNL     1     -11.200  10.845  67.503  1.00  0.00    -0.293 A  
HETATM   14  C   UNL     1     -10.393  10.226  66.539  1.00  0.00    -0.276 A  
HETATM   15  C   UNL     1      -9.728   9.038  66.829  1.00  0.00    -0.279 A  
HETATM   16  C   UNL     1      -9.835   8.483  68.101  1.00  0.00    -0.192 A  
HETATM   17  C   UNL     1     -10.588   9.130  69.088  1.00  0.00    -0.224 A  
HETATM   18  C   UNL     1     -11.290  10.315  68.801  1.00  0.00    -0.226 A  
HETATM   19  C   UNL     1     -12.089  11.027  69.867  1.00  0.00    -0.435 C  
HETATM   20  C   UNL     1     -12.456  10.115  71.032  1.00  0.00    -0.474 C  
HETATM   21  C   UNL     1     -11.234   9.381  71.552  1.00  0.00    -0.457 C  
HETATM   22  C   UNL     1     -10.612   8.550  70.455  1.00  0.00    -0.213 C  
HETATM   23  O   UNL     1     -10.085   7.466  70.686  1.00  0.00    -0.190 OA 
ENDBRANCH  12  13
ENDBRANCH  11  12
ENDBRANCH   8  11
ENDBRANCH   7   8
ENDBRANCH   5   7
TORSDOF 5
ENDMDL
MODEL       71
REMARK 921   NORMALIZED FREE ENERGY PREDICTED BY IDOCK:   -5.39 KCAL/MOL
REMARK 922        TOTAL FREE ENERGY PREDICTED BY IDOCK:   -7.70 KCAL/MOL
REMARK 923 INTER-LIGAND FREE ENERGY PREDICTED BY IDOCK:   -7.16 KCAL/MOL
REMARK 924 INTRA-LIGAND FREE ENERGY PREDICTED BY IDOCK:   -0.53 KCAL/MOL
REMARK 927      BINDING AFFINITY PREDICTED BY RF-SCORE:    0.00 PKD
ROOT
HETATM    1  C   UNL     1     -10.405  12.775  64.554  1.00  0.00    -0.373 C  
HETATM    2  C   UNL     1     -11.925  13.011  64.526  1.00  0.00    -0.394 C  
HETATM    3  C   UNL     1     -12.569  11.871  63.709  1.00  0.00    -0.509 C  
HETATM    4  C   UNL     1     -12.247  14.342  63.831  1.00  0.00    -0.233 C  
HETATM    5  N   UNL     1     -12.513  12.947  65.882  1.00  0.00    -0.529 NA 
HETATM    6  H   UNL     1     -12.398  12.011  66.271  1.00  0.00     0.000 HD 
ENDROOT
BRANCH   5   7
HETATM    7  C   UNL     1     -12.012  13.954  66.829  1.00  0.00    -0.438 C  
BRANCH   7   8
HETATM    8  C   UNL     1     -12.090  13.538  68.313  1.00  0.00    -0.260 C  
HETATM    9  O   UNL     1     -12.179  14.730  69.108  1.00  0.00    -0.509 OA 
HETATM   10  H   UNL     1     -12.226  14.473  70.022  1.00  0.00     0.000 HD 
BRANCH   8  11
HETATM   11  C   UNL     1     -10.862  12.736  68.752  1.00  0.00    -0.234 C  
BRANCH  11  12
HETATM   12  O   UNL     1     -11.109  11.341  68.512  1.00  0.00    -0.197 OA 
BRANCH  12  13
HETATM   13  C   UNL     1     -10.502  10.503  69.417  1.00  0.00    -0.240 A  
HETATM   14  C   UNL     1      -9.129  10.222  69.387  1.00  0.00    -0.203 A  
HETATM   15  C   UNL     1      -8.572   9.319  70.289  1.00  0.00    -0.234 A  
HETATM   16  C   UNL     1      -9.379   8.724  71.254  1.00  0.00    -0.319 A  
HETATM   17  C   UNL     1     -10.738   9.049  71.329  1.00  0.00    -0.379 A  
HETATM   18  C   UNL     1     -11.322   9.935  70.406  1.00  0.00    -0.376 A  
HETATM   19  C   UNL     1     -12.785  10.304  70.495  1.00  0.00    -0.325 C  
HETATM   20  C   UNL     1     -13.600   9.288  71.286  1.00  0.00    -0.287 C  
HETATM   21  C   UNL     1     -12.946   8.995  72.624  1.00  0.00    -0.339 C  
HETATM   22  C   UNL     1     -11.550   8.455  72.422  1.00  0.00    -0.380 C  
HETATM   23  O   UNL     1     -11.071   7.606  73.168  1.00  0.00    -0.404 OA 
ENDBRANCH  12  13
ENDBRANCH  11  12
ENDBRANCH   8  11
ENDBRANCH   7   8
ENDBRANCH   5   7
TORSDOF 5
ENDMDL
MODEL       72
REMARK 921   NORMALIZED FREE ENERGY PREDICTED BY IDOCK:   -5.35 KCAL/MOL
REMARK 922        TOTAL FREE ENERGY PREDICTED BY IDOCK:   -7.65 KCAL/MOL
REMARK 923 INTER-LIGAND FREE ENERGY PREDICTED BY IDOCK:   -6.88 KCAL/MOL
REMARK 924 INTRA-LIGAND FREE ENERGY PREDICTED BY IDOCK:   -0.77 KCAL/MOL
REMARK 927      BINDING AFFINITY PREDICTED BY RF-SCORE:    0.00 PKD
ROOT
HETATM    1  C   UNL     1     -10.222   7.075  71.608  1.00  0.00    -0.208 C  
HETATM    2  C   UNL     1     -11.292   7.189  70.507  1.00  0.00    -0.297 C  
HETATM    3  C   UNL     1     -12.673   6.982  71.163  1.00  0.00    -0.361 C  
HETATM    4  C   UNL     1     -11.091   6.091  69.452  1.00  0.00    -0.445 C  
HETATM    5  N   UNL     1     -11.308   8.536  69.897  1.00  0.00    -0.456 NA 
HETATM    6  H   UNL     1     -11.570   9.234  70.592  1.00  0.00     0.000 HD 
ENDROOT
BRANCH   5   7
HETATM    7  C   UNL     1     -10.061   8.933  69.226  1.00  0.00    -0.203 C  
BRANCH   7   8
HETATM    8  C   UNL     1     -10.197   9.184  67.710  1.00  0.00    -0.224 C  
HETATM    9  O   UNL     1      -8.954   8.829  67.085  1.00  0.00    -0.129 OA 
HETATM   10  H   UNL     1      -9.038   8.984  66.151  1.00  0.00     0.000 HD 
BRANCH   8  11
HETATM   11  C   UNL     1     -10.514  10.648  67.394  1.00  0.00    -0.235 C  
BRANCH  11  12
HETATM   12  O   UNL     1     -11.687  11.036  68.126  1.00  0.00    -0.497 OA 
BRANCH  12  13
HETATM   13  C   UNL     1     -11.770  12.386  68.374  1.00  0.00    -0.336 A  
HETATM   14  C   UNL     1     -11.391  13.353  67.433  1.00  0.00    -0.338 A  
HETATM   15  C   UNL     1     -11.437  14.708  67.753  1.00  0.00    -0.359 A  
HETATM   16  C   UNL     1     -11.904  15.104  69.003  1.00  0.00    -0.331 A  
HETATM   17  C   UNL     1     -12.344  14.145  69.924  1.00  0.00    -0.382 A  
HETATM   18  C   UNL     1     -12.274  12.772  69.627  1.00  0.00    -0.188 A  
HETATM   19  C   UNL     1     -12.765  11.734  70.609  1.00  0.00    -0.193 C  
HETATM   20  C   UNL     1     -12.834  12.264  72.037  1.00  0.00    -0.260 C  
HETATM   21  C   UNL     1     -13.586  13.582  72.089  1.00  0.00    -0.651 C  
HETATM   22  C   UNL     1     -12.909  14.611  71.216  1.00  0.00    -0.335 C  
HETATM   23  O   UNL     1     -12.880  15.799  71.521  1.00  0.00    -0.456 OA 
ENDBRANCH  12  13
ENDBRANCH  11  12
ENDBRANCH   8  11
ENDBRANCH   7   8
ENDBRANCH   5   7
TORSDOF 5
ENDMDL
MODEL       73
REMARK 921   NORMALIZED FREE ENERGY PREDICTED BY IDOCK:   -5.32 KCAL/MOL
REMARK 922        TOTAL FREE ENERGY PREDICTED BY IDOCK:   -7.60 KCAL/MOL
REMARK 923 INTER-LIGAND FREE ENERGY PREDICTED BY IDOCK:   -6.46 KCAL/MOL
REMARK 924 INTRA-LIGAND FREE ENERGY PREDICTED BY IDOCK:   -1.14 KCAL/MOL
REMARK 927      BINDING AFFINITY PREDICTED BY RF-SCORE:    0.00 PKD
ROOT
HETATM    1  C   UNL     1     -11.924  14.442  67.471  1.00  0.00    -0.389 C  
HETATM    2  C   UNL     1     -11.456  13.039  67.045  1.00  0.00    -0.333 C  
HETATM    3  C   UNL     1     -11.818  12.054  68.176  1.00  0.00    -0.352 C  
HETATM    4  C   UNL     1      -9.932  13.018  66.859  1.00  0.00    -0.243 C  
HETATM    5  N   UNL     1     -12.161  12.573  65.832  1.00  0.00    -0.624 NA 
HETATM    6  H   UNL     1     -13.158  12.472  66.021  1.00  0.00     0.000 HD 
ENDROOT
BRANCH   5   7
HETATM    7  C   UNL     1     -11.955  13.398  64.632  1.00  0.00    -0.399 C  
BRANCH   7   8
HETATM    8  C   UNL     1     -11.672  12.600  63.343  1.00  0.00    -0.498 C  
HETATM    9  O   UNL     1     -12.744  11.664  63.152  1.00  0.00    -0.875 OA 
HETATM   10  H   UNL     1     -12.569  11.173  62.357  1.00  0.00     0.000 HD 
BRANCH   8  11
HETATM   11  C   UNL     1     -10.348  11.834  63.418  1.00  0.00    -0.439 C  
BRANCH  11  12
HETATM   12  O   UNL     1     -10.483  10.771  64.375  1.00  0.00    -0.365 OA 
BRANCH  12  13
HETATM   13  C   UNL     1      -9.333  10.042  64.564  1.00  0.00    -0.286 A  
HETATM   14  C   UNL     1      -8.195  10.197  63.760  1.00  0.00    -0.163 A  
HETATM   15  C   UNL     1      -7.076   9.393  63.955  1.00  0.00    -0.099 A  
HETATM   16  C   UNL     1      -7.072   8.456  64.984  1.00  0.00    -0.079 A  
HETATM   17  C   UNL     1      -8.181   8.340  65.831  1.00  0.00    -0.119 A  
HETATM   18  C   UNL     1      -9.331   9.124  65.628  1.00  0.00    -0.300 A  
HETATM   19  C   UNL     1     -10.523   9.016  66.551  1.00  0.00    -0.192 C  
HETATM   20  C   UNL     1     -10.549   7.703  67.325  1.00  0.00    -0.388 C  
HETATM   21  C   UNL     1      -9.212   7.445  67.996  1.00  0.00    -0.132 C  
HETATM   22  C   UNL     1      -8.108   7.386  66.967  1.00  0.00    -0.113 C  
HETATM   23  O   UNL     1      -7.150   6.630  67.090  1.00  0.00    -0.072 OA 
ENDBRANCH  12  13
ENDBRANCH  11  12
ENDBRANCH   8  11
ENDBRANCH   7   8
ENDBRANCH   5   7
TORSDOF 5
ENDMDL
MODEL       74
REMARK 921   NORMALIZED FREE ENERGY PREDICTED BY IDOCK:   -5.31 KCAL/MOL
REMARK 922        TOTAL FREE ENERGY PREDICTED BY IDOCK:   -7.59 KCAL/MOL
REMARK 923 INTER-LIGAND FREE ENERGY PREDICTED BY IDOCK:   -7.12 KCAL/MOL
REMARK 924 INTRA-LIGAND FREE ENERGY PREDICTED BY IDOCK:   -0.48 KCAL/MOL
REMARK 927      BINDING AFFINITY PREDICTED BY RF-SCORE:    0.00 PKD
ROOT
HETATM    1  C   UNL     1     -10.580  16.809  67.509  1.00  0.00    -0.309 C  
HETATM    2  C   UNL     1     -10.053  15.832  66.443  1.00  0.00    -0.291 C  
HETATM    3  C   UNL     1      -8.550  16.116  66.238  1.00  0.00    -0.373 C  
HETATM    4  C   UNL     1     -10.772  16.062  65.106  1.00  0.00    -0.429 C  
HETATM    5  N   UNL     1     -10.163  14.425  66.887  1.00  0.00    -0.262 NA 
HETATM    6  H   UNL     1      -9.573  14.267  67.704  1.00  0.00     0.000 HD 
ENDROOT
BRANCH   5   7
HETATM    7  C   UNL     1     -11.532  13.960  67.154  1.00  0.00    -0.347 C  
BRANCH   7   8
HETATM    8  C   UNL     1     -11.727  13.287  68.529  1.00  0.00    -0.352 C  
HETATM    9  O   UNL     1     -10.625  13.662  69.371  1.00  0.00    -0.439 OA 
HETATM   10  H   UNL     1     -10.745  13.247  70.217  1.00  0.00     0.000 HD 
BRANCH   8  11
HETATM   11  C   UNL     1     -11.774  11.760  68.422  1.00  0.00    -0.325 C  
BRANCH  11  12
HETATM   12  O   UNL     1     -10.969  11.197  69.470  1.00  0.00    -0.242 OA 
BRANCH  12  13
HETATM   13  C   UNL     1     -11.664  10.381  70.330  1.00  0.00    -0.321 A  
HETATM   14  C   UNL     1     -12.686  10.854  71.165  1.00  0.00    -0.530 A  
HETATM   15  C   UNL     1     -13.320   9.999  72.062  1.00  0.00    -0.513 A  
HETATM   16  C   UNL     1     -12.963   8.654  72.100  1.00  0.00    -0.432 A  
HETATM   17  C   UNL     1     -11.988   8.162  71.225  1.00  0.00    -0.318 A  
HETATM   18  C   UNL     1     -11.316   9.020  70.334  1.00  0.00    -0.242 A  
HETATM   19  C   UNL     1     -10.277   8.490  69.374  1.00  0.00    -0.211 C  
HETATM   20  C   UNL     1      -9.703   7.148  69.812  1.00  0.00    -0.165 C  
HETATM   21  C   UNL     1     -10.813   6.165  70.137  1.00  0.00    -0.395 C  
HETATM   22  C   UNL     1     -11.691   6.707  71.240  1.00  0.00    -0.334 C  
HETATM   23  O   UNL     1     -12.199   5.972  72.081  1.00  0.00    -0.288 OA 
ENDBRANCH  12  13
ENDBRANCH  11  12
ENDBRANCH   8  11
ENDBRANCH   7   8
ENDBRANCH   5   7
TORSDOF 5
ENDMDL
MODEL       75
REMARK 921   NORMALIZED FREE ENERGY PREDICTED BY IDOCK:   -5.30 KCAL/MOL
REMARK 922        TOTAL FREE ENERGY PREDICTED BY IDOCK:   -7.58 KCAL/MOL
REMARK 923 INTER-LIGAND FREE ENERGY PREDICTED BY IDOCK:   -7.54 KCAL/MOL
REMARK 924 INTRA-LIGAND FREE ENERGY PREDICTED BY IDOCK:   -0.03 KCAL/MOL
REMARK 927      BINDING AFFINITY PREDICTED BY RF-SCORE:    0.00 PKD
ROOT
HETATM    1  C   UNL     1     -10.157  17.956  66.407  1.00  0.00    -0.369 C  
HETATM    2  C   UNL     1      -9.971  17.685  67.910  1.00  0.00    -0.323 C  
HETATM    3  C   UNL     1      -9.938  19.045  68.638  1.00  0.00    -0.482 C  
HETATM    4  C   UNL     1      -8.634  16.972  68.162  1.00  0.00    -0.228 C  
HETATM    5  N   UNL     1     -11.109  16.927  68.475  1.00  0.00    -0.287 NA 
HETATM    6  H   UNL     1     -11.965  17.478  68.410  1.00  0.00     0.000 HD 
ENDROOT
BRANCH   5   7
HETATM    7  C   UNL     1     -11.321  15.593  67.894  1.00  0.00    -0.302 C  
BRANCH   7   8
HETATM    8  C   UNL     1     -11.653  14.490  68.920  1.00  0.00    -0.309 C  
HETATM    9  O   UNL     1     -10.996  14.815  70.155  1.00  0.00    -0.385 OA 
HETATM   10  H   UNL     1     -11.200  14.135  70.786  1.00  0.00     0.000 HD 
BRANCH   8  11
HETATM   11  C   UNL     1     -11.183  13.109  68.454  1.00  0.00    -0.271 C  
BRANCH  11  12
HETATM   12  O   UNL     1     -12.209  12.521  67.638  1.00  0.00    -0.401 OA 
BRANCH  12  13
HETATM   13  C   UNL     1     -11.910  12.495  66.297  1.00  0.00    -0.390 A  
HETATM   14  C   UNL     1     -12.422  13.431  65.388  1.00  0.00    -0.543 A  
HETATM   15  C   UNL     1     -12.137  13.327  64.029  1.00  0.00    -0.508 A  
HETATM   16  C   UNL     1     -11.302  12.308  63.578  1.00  0.00    -0.549 A  
HETATM   17  C   UNL     1     -10.737  11.409  64.489  1.00  0.00    -0.391 A  
HETATM   18  C   UNL     1     -11.040  11.483  65.861  1.00  0.00    -0.274 A  
HETATM   19  C   UNL     1     -10.417  10.526  66.851  1.00  0.00    -0.303 C  
HETATM   20  C   UNL     1      -9.898   9.254  66.191  1.00  0.00    -0.363 C  
HETATM   21  C   UNL     1      -9.017   9.583  64.999  1.00  0.00    -0.258 C  
HETATM   22  C   UNL     1      -9.788  10.386  63.979  1.00  0.00    -0.289 C  
HETATM   23  O   UNL     1      -9.597  10.253  62.774  1.00  0.00    -0.315 OA 
ENDBRANCH  12  13
ENDBRANCH  11  12
ENDBRANCH   8  11
ENDBRANCH   7   8
ENDBRANCH   5   7
TORSDOF 5
ENDMDL
MODEL       76
REMARK 921   NORMALIZED FREE ENERGY PREDICTED BY IDOCK:   -5.26 KCAL/MOL
REMARK 922        TOTAL FREE ENERGY PREDICTED BY IDOCK:   -7.53 KCAL/MOL
REMARK 923 INTER-LIGAND FREE ENERGY PREDICTED BY IDOCK:   -6.57 KCAL/MOL
REMARK 924 INTRA-LIGAND FREE ENERGY PREDICTED BY IDOCK:   -0.96 KCAL/MOL
REMARK 927      BINDING AFFINITY PREDICTED BY RF-SCORE:    0.00 PKD
ROOT
HETATM    1  C   UNL     1     -10.339  17.415  68.450  1.00  0.00    -0.379 C  
HETATM    2  C   UNL     1     -10.641  16.014  69.011  1.00  0.00    -0.257 C  
HETATM    3  C   UNL     1     -11.403  16.188  70.342  1.00  0.00    -0.377 C  
HETATM    4  C   UNL     1      -9.333  15.262  69.301  1.00  0.00    -0.239 C  
HETATM    5  N   UNL     1     -11.526  15.243  68.111  1.00  0.00    -0.340 NA 
HETATM    6  H   UNL     1     -12.436  15.699  68.038  1.00  0.00     0.000 HD 
ENDROOT
BRANCH   5   7
HETATM    7  C   UNL     1     -10.981  14.982  66.771  1.00  0.00    -0.323 C  
BRANCH   7   8
HETATM    8  C   UNL     1     -11.162  13.532  66.274  1.00  0.00    -0.297 C  
HETATM    9  O   UNL     1     -11.917  13.569  65.053  1.00  0.00    -0.341 OA 
HETATM   10  H   UNL     1     -12.028  12.676  64.747  1.00  0.00     0.000 HD 
BRANCH   8  11
HETATM   11  C   UNL     1     -11.903  12.662  67.293  1.00  0.00    -0.328 C  
BRANCH  11  12
HETATM   12  O   UNL     1     -10.962  12.191  68.270  1.00  0.00    -0.209 OA 
BRANCH  12  13
HETATM   13  C   UNL     1     -11.544  11.604  69.368  1.00  0.00    -0.327 A  
HETATM   14  C   UNL     1     -12.395  12.300  70.238  1.00  0.00    -0.267 A  
HETATM   15  C   UNL     1     -12.913  11.677  71.370  1.00  0.00    -0.426 A  
HETATM   16  C   UNL     1     -12.616  10.340  71.616  1.00  0.00    -0.534 A  
HETATM   17  C   UNL     1     -11.819   9.621  70.718  1.00  0.00    -0.378 A  
HETATM   18  C   UNL     1     -11.263  10.245  69.586  1.00  0.00    -0.322 A  
HETATM   19  C   UNL     1     -10.417   9.469  68.603  1.00  0.00    -0.237 C  
HETATM   20  C   UNL     1      -9.841   8.192  69.204  1.00  0.00    -0.182 C  
HETATM   21  C   UNL     1     -10.927   7.374  69.878  1.00  0.00    -0.239 C  
HETATM   22  C   UNL     1     -11.590   8.176  70.972  1.00  0.00    -0.279 C  
HETATM   23  O   UNL     1     -11.988   7.651  72.007  1.00  0.00    -0.285 OA 
ENDBRANCH  12  13
ENDBRANCH  11  12
ENDBRANCH   8  11
ENDBRANCH   7   8
ENDBRANCH   5   7
TORSDOF 5
ENDMDL
MODEL       77
REMARK 921   NORMALIZED FREE ENERGY PREDICTED BY IDOCK:   -5.24 KCAL/MOL
REMARK 922        TOTAL FREE ENERGY PREDICTED BY IDOCK:   -7.50 KCAL/MOL
REMARK 923 INTER-LIGAND FREE ENERGY PREDICTED BY IDOCK:   -7.07 KCAL/MOL
REMARK 924 INTRA-LIGAND FREE ENERGY PREDICTED BY IDOCK:   -0.43 KCAL/MOL
REMARK 927      BINDING AFFINITY PREDICTED BY RF-SCORE:    0.00 PKD
ROOT
HETATM    1  C   UNL     1      -5.283  18.934  67.067  1.00  0.00    -0.144 C  
HETATM    2  C   UNL     1      -6.324  19.809  67.788  1.00  0.00    -0.211 C  
HETATM    3  C   UNL     1      -5.697  21.200  68.019  1.00  0.00    -0.396 C  
HETATM    4  C   UNL     1      -6.672  19.206  69.157  1.00  0.00    -0.346 C  
HETATM    5  N   UNL     1      -7.531  20.018  66.960  1.00  0.00    -0.255 NA 
HETATM    6  H   UNL     1      -7.292  20.535  66.114  1.00  0.00     0.000 HD 
ENDROOT
BRANCH   5   7
HETATM    7  C   UNL     1      -8.271  18.795  66.613  1.00  0.00    -0.289 C  
BRANCH   7   8
HETATM    8  C   UNL     1      -9.706  18.730  67.174  1.00  0.00    -0.301 C  
HETATM    9  O   UNL     1      -9.940  19.920  67.943  1.00  0.00    -0.378 OA 
HETATM   10  H   UNL     1     -10.824  19.880  68.289  1.00  0.00     0.000 HD 
BRANCH   8  11
HETATM   11  C   UNL     1      -9.920  17.507  68.071  1.00  0.00    -0.310 C  
BRANCH  11  12
HETATM   12  O   UNL     1     -11.281  17.068  67.939  1.00  0.00    -0.222 OA 
BRANCH  12  13
HETATM   13  C   UNL     1     -11.535  15.854  68.531  1.00  0.00    -0.377 A  
HETATM   14  C   UNL     1     -11.794  15.718  69.902  1.00  0.00    -0.355 A  
HETATM   15  C   UNL     1     -11.987  14.459  70.464  1.00  0.00    -0.395 A  
HETATM   16  C   UNL     1     -11.963  13.331  69.650  1.00  0.00    -0.376 A  
HETATM   17  C   UNL     1     -11.768  13.465  68.270  1.00  0.00    -0.391 A  
HETATM   18  C   UNL     1     -11.541  14.727  67.692  1.00  0.00    -0.374 A  
HETATM   19  C   UNL     1     -11.349  14.880  66.201  1.00  0.00    -0.307 C  
HETATM   20  C   UNL     1     -10.928  13.579  65.527  1.00  0.00    -0.295 C  
HETATM   21  C   UNL     1     -11.848  12.440  65.926  1.00  0.00    -0.467 C  
HETATM   22  C   UNL     1     -11.829  12.246  67.423  1.00  0.00    -0.257 C  
HETATM   23  O   UNL     1     -11.926  11.134  67.932  1.00  0.00    -0.624 OA 
ENDBRANCH  12  13
ENDBRANCH  11  12
ENDBRANCH   8  11
ENDBRANCH   7   8
ENDBRANCH   5   7
TORSDOF 5
ENDMDL
MODEL       78
REMARK 921   NORMALIZED FREE ENERGY PREDICTED BY IDOCK:   -5.20 KCAL/MOL
REMARK 922        TOTAL FREE ENERGY PREDICTED BY IDOCK:   -7.45 KCAL/MOL
REMARK 923 INTER-LIGAND FREE ENERGY PREDICTED BY IDOCK:   -6.96 KCAL/MOL
REMARK 924 INTRA-LIGAND FREE ENERGY PREDICTED BY IDOCK:   -0.49 KCAL/MOL
REMARK 927      BINDING AFFINITY PREDICTED BY RF-SCORE:    0.00 PKD
ROOT
HETATM    1  C   UNL     1     -11.208   6.424  71.093  1.00  0.00    -0.357 C  
HETATM    2  C   UNL     1     -11.146   7.881  71.585  1.00  0.00    -0.244 C  
HETATM    3  C   UNL     1     -10.569   7.876  73.016  1.00  0.00    -0.406 C  
HETATM    4  C   UNL     1     -12.556   8.488  71.637  1.00  0.00    -0.369 C  
HETATM    5  N   UNL     1     -10.230   8.699  70.759  1.00  0.00    -0.196 NA 
HETATM    6  H   UNL     1      -9.275   8.350  70.844  1.00  0.00     0.000 HD 
ENDROOT
BRANCH   5   7
HETATM    7  C   UNL     1     -10.602   8.815  69.341  1.00  0.00    -0.209 C  
BRANCH   7   8
HETATM    8  C   UNL     1     -10.568  10.253  68.783  1.00  0.00    -0.209 C  
HETATM    9  O   UNL     1      -9.640  11.016  69.570  1.00  0.00    -0.420 OA 
HETATM   10  H   UNL     1      -9.620  11.902  69.226  1.00  0.00     0.000 HD 
BRANCH   8  11
HETATM   11  C   UNL     1     -11.942  10.926  68.840  1.00  0.00    -0.206 C  
BRANCH  11  12
HETATM   12  O   UNL     1     -11.982  11.982  67.867  1.00  0.00    -0.526 OA 
BRANCH  12  13
HETATM   13  C   UNL     1     -11.836  13.239  68.402  1.00  0.00    -0.360 A  
HETATM   14  C   UNL     1     -12.204  13.551  69.718  1.00  0.00    -0.330 A  
HETATM   15  C   UNL     1     -12.093  14.854  70.195  1.00  0.00    -0.379 A  
HETATM   16  C   UNL     1     -11.571  15.846  69.369  1.00  0.00    -0.352 A  
HETATM   17  C   UNL     1     -11.141  15.528  68.076  1.00  0.00    -0.322 A  
HETATM   18  C   UNL     1     -11.277  14.223  67.569  1.00  0.00    -0.322 A  
HETATM   19  C   UNL     1     -10.798  13.870  66.180  1.00  0.00    -0.290 C  
HETATM   20  C   UNL     1     -10.661  15.091  65.278  1.00  0.00    -0.406 C  
HETATM   21  C   UNL     1      -9.854  16.181  65.961  1.00  0.00    -0.375 C  
HETATM   22  C   UNL     1     -10.516  16.596  67.253  1.00  0.00    -0.313 C  
HETATM   23  O   UNL     1     -10.486  17.756  67.651  1.00  0.00    -0.363 OA 
ENDBRANCH  12  13
ENDBRANCH  11  12
ENDBRANCH   8  11
ENDBRANCH   7   8
ENDBRANCH   5   7
TORSDOF 5
ENDMDL
MODEL       79
REMARK 921   NORMALIZED FREE ENERGY PREDICTED BY IDOCK:   -5.19 KCAL/MOL
REMARK 922        TOTAL FREE ENERGY PREDICTED BY IDOCK:   -7.44 KCAL/MOL
REMARK 923 INTER-LIGAND FREE ENERGY PREDICTED BY IDOCK:   -6.46 KCAL/MOL
REMARK 924 INTRA-LIGAND FREE ENERGY PREDICTED BY IDOCK:   -0.98 KCAL/MOL
REMARK 927      BINDING AFFINITY PREDICTED BY RF-SCORE:    0.00 PKD
ROOT
HETATM    1  C   UNL     1     -10.746  10.989  67.134  1.00  0.00    -0.313 C  
HETATM    2  C   UNL     1      -9.871  10.586  65.934  1.00  0.00    -0.234 C  
HETATM    3  C   UNL     1      -9.728   9.049  65.944  1.00  0.00    -0.306 C  
HETATM    4  C   UNL     1      -8.470  11.200  66.063  1.00  0.00    -0.138 C  
HETATM    5  N   UNL     1     -10.508  10.945  64.648  1.00  0.00    -0.337 NA 
HETATM    6  H   UNL     1     -11.377  10.425  64.528  1.00  0.00     0.000 HD 
ENDROOT
BRANCH   5   7
HETATM    7  C   UNL     1     -10.748  12.383  64.449  1.00  0.00    -0.339 C  
BRANCH   7   8
HETATM    8  C   UNL     1     -12.224  12.761  64.207  1.00  0.00    -0.425 C  
HETATM    9  O   UNL     1     -12.269  13.722  63.141  1.00  0.00    -1.048 OA 
HETATM   10  H   UNL     1     -13.178  13.955  62.992  1.00  0.00     0.000 HD 
BRANCH   8  11
HETATM   11  C   UNL     1     -12.875  13.368  65.453  1.00  0.00    -0.326 C  
BRANCH  11  12
HETATM   12  O   UNL     1     -12.213  14.603  65.767  1.00  0.00    -0.282 OA 
BRANCH  12  13
HETATM   13  C   UNL     1     -11.684  14.646  67.034  1.00  0.00    -0.362 A  
HETATM   14  C   UNL     1     -12.402  14.247  68.170  1.00  0.00    -0.005 A  
HETATM   15  C   UNL     1     -11.843  14.366  69.439  1.00  0.00    -0.369 A  
HETATM   16  C   UNL     1     -10.543  14.845  69.576  1.00  0.00    -0.242 A  
HETATM   17  C   UNL     1      -9.797  15.185  68.441  1.00  0.00    -0.223 A  
HETATM   18  C   UNL     1     -10.360  15.100  67.154  1.00  0.00    -0.263 A  
HETATM   19  C   UNL     1      -9.553  15.447  65.925  1.00  0.00    -0.386 C  
HETATM   20  C   UNL     1      -8.353  16.333  66.241  1.00  0.00    -0.343 C  
HETATM   21  C   UNL     1      -7.538  15.752  67.381  1.00  0.00    -0.220 C  
HETATM   22  C   UNL     1      -8.387  15.616  68.622  1.00  0.00    -0.177 C  
HETATM   23  O   UNL     1      -7.924  15.788  69.745  1.00  0.00    -0.121 OA 
ENDBRANCH  12  13
ENDBRANCH  11  12
ENDBRANCH   8  11
ENDBRANCH   7   8
ENDBRANCH   5   7
TORSDOF 5
ENDMDL
MODEL       80
REMARK 921   NORMALIZED FREE ENERGY PREDICTED BY IDOCK:   -5.16 KCAL/MOL
REMARK 922        TOTAL FREE ENERGY PREDICTED BY IDOCK:   -7.40 KCAL/MOL
REMARK 923 INTER-LIGAND FREE ENERGY PREDICTED BY IDOCK:   -6.95 KCAL/MOL
REMARK 924 INTRA-LIGAND FREE ENERGY PREDICTED BY IDOCK:   -0.45 KCAL/MOL
REMARK 927      BINDING AFFINITY PREDICTED BY RF-SCORE:    0.00 PKD
ROOT
HETATM    1  C   UNL     1      -9.003   6.860  70.201  1.00  0.00    -0.149 C  
HETATM    2  C   UNL     1     -10.239   7.193  69.346  1.00  0.00    -0.189 C  
HETATM    3  C   UNL     1     -10.856   5.864  68.863  1.00  0.00    -0.373 C  
HETATM    4  C   UNL     1      -9.830   8.010  68.112  1.00  0.00    -0.195 C  
HETATM    5  N   UNL     1     -11.281   7.883  70.137  1.00  0.00    -0.408 NA 
HETATM    6  H   UNL     1     -11.627   7.269  70.874  1.00  0.00     0.000 HD 
ENDROOT
BRANCH   5   7
HETATM    7  C   UNL     1     -10.879   9.179  70.706  1.00  0.00    -0.268 C  
BRANCH   7   8
HETATM    8  C   UNL     1     -11.866  10.334  70.437  1.00  0.00    -0.309 C  
HETATM    9  O   UNL     1     -13.200   9.809  70.515  1.00  0.00    -0.589 OA 
HETATM   10  H   UNL     1     -13.808  10.520  70.349  1.00  0.00     0.000 HD 
BRANCH   8  11
HETATM   11  C   UNL     1     -11.657  10.960  69.055  1.00  0.00    -0.316 C  
BRANCH  11  12
HETATM   12  O   UNL     1     -12.519  12.102  68.929  1.00  0.00     0.005 OA 
BRANCH  12  13
HETATM   13  C   UNL     1     -11.925  13.291  69.279  1.00  0.00    -0.303 A  
HETATM   14  C   UNL     1     -10.916  13.890  68.512  1.00  0.00    -0.277 A  
HETATM   15  C   UNL     1     -10.303  15.064  68.940  1.00  0.00    -0.244 A  
HETATM   16  C   UNL     1     -10.726  15.670  70.119  1.00  0.00    -0.355 A  
HETATM   17  C   UNL     1     -11.776  15.112  70.858  1.00  0.00    -0.378 A  
HETATM   18  C   UNL     1     -12.384  13.909  70.454  1.00  0.00    -0.433 A  
HETATM   19  C   UNL     1     -13.530  13.312  71.237  1.00  0.00    -0.048 C  
HETATM   20  C   UNL     1     -13.589  13.822  72.673  1.00  0.00    -0.617 C  
HETATM   21  C   UNL     1     -13.527  15.338  72.711  1.00  0.00    -0.619 C  
HETATM   22  C   UNL     1     -12.253  15.830  72.068  1.00  0.00    -0.465 C  
HETATM   23  O   UNL     1     -11.663  16.824  72.479  1.00  0.00    -0.421 OA 
ENDBRANCH  12  13
ENDBRANCH  11  12
ENDBRANCH   8  11
ENDBRANCH   7   8
ENDBRANCH   5   7
TORSDOF 5
ENDMDL
MODEL       81
REMARK 921   NORMALIZED FREE ENERGY PREDICTED BY IDOCK:   -5.15 KCAL/MOL
REMARK 922        TOTAL FREE ENERGY PREDICTED BY IDOCK:   -7.38 KCAL/MOL
REMARK 923 INTER-LIGAND FREE ENERGY PREDICTED BY IDOCK:   -6.73 KCAL/MOL
REMARK 924 INTRA-LIGAND FREE ENERGY PREDICTED BY IDOCK:   -0.65 KCAL/MOL
REMARK 927      BINDING AFFINITY PREDICTED BY RF-SCORE:    0.00 PKD
ROOT
HETATM    1  C   UNL     1     -12.229  12.893  65.794  1.00  0.00    -0.498 C  
HETATM    2  C   UNL     1     -11.306  13.440  64.691  1.00  0.00    -0.350 C  
HETATM    3  C   UNL     1     -11.892  14.781  64.201  1.00  0.00    -0.235 C  
HETATM    4  C   UNL     1     -11.264  12.470  63.501  1.00  0.00    -0.525 C  
HETATM    5  N   UNL     1      -9.950  13.731  65.206  1.00  0.00    -0.543 NA 
HETATM    6  H   UNL     1      -9.992  14.471  65.906  1.00  0.00     0.000 HD 
ENDROOT
BRANCH   5   7
HETATM    7  C   UNL     1      -9.222  12.570  65.740  1.00  0.00     0.122 C  
BRANCH   7   8
HETATM    8  C   UNL     1      -8.334  12.875  66.965  1.00  0.00    -0.107 C  
HETATM    9  O   UNL     1      -7.160  12.052  66.882  1.00  0.00    -0.289 OA 
HETATM   10  H   UNL     1      -6.614  12.240  67.637  1.00  0.00     0.000 HD 
BRANCH   8  11
HETATM   11  C   UNL     1      -9.055  12.585  68.284  1.00  0.00    -0.183 C  
BRANCH  11  12
HETATM   12  O   UNL     1     -10.374  13.151  68.226  1.00  0.00    -0.240 OA 
BRANCH  12  13
HETATM   13  C   UNL     1     -11.219  12.700  69.211  1.00  0.00    -0.193 A  
HETATM   14  C   UNL     1     -11.641  11.365  69.296  1.00  0.00    -0.384 A  
HETATM   15  C   UNL     1     -12.545  10.970  70.278  1.00  0.00    -0.321 A  
HETATM   16  C   UNL     1     -13.001  11.900  71.208  1.00  0.00    -0.334 A  
HETATM   17  C   UNL     1     -12.534  13.219  71.167  1.00  0.00    -0.397 A  
HETATM   18  C   UNL     1     -11.645  13.641  70.162  1.00  0.00    -0.208 A  
HETATM   19  C   UNL     1     -11.123  15.059  70.126  1.00  0.00    -0.271 C  
HETATM   20  C   UNL     1     -12.006  16.029  70.903  1.00  0.00    -0.376 C  
HETATM   21  C   UNL     1     -12.291  15.503  72.298  1.00  0.00    -0.482 C  
HETATM   22  C   UNL     1     -12.982  14.162  72.225  1.00  0.00    -0.382 C  
HETATM   23  O   UNL     1     -13.833  13.828  73.043  1.00  0.00    -0.538 OA 
ENDBRANCH  12  13
ENDBRANCH  11  12
ENDBRANCH   8  11
ENDBRANCH   7   8
ENDBRANCH   5   7
TORSDOF 5
ENDMDL
MODEL       82
REMARK 921   NORMALIZED FREE ENERGY PREDICTED BY IDOCK:   -5.12 KCAL/MOL
REMARK 922        TOTAL FREE ENERGY PREDICTED BY IDOCK:   -7.35 KCAL/MOL
REMARK 923 INTER-LIGAND FREE ENERGY PREDICTED BY IDOCK:   -6.39 KCAL/MOL
REMARK 924 INTRA-LIGAND FREE ENERGY PREDICTED BY IDOCK:   -0.95 KCAL/MOL
REMARK 927      BINDING AFFINITY PREDICTED BY RF-SCORE:    0.00 PKD
ROOT
HETATM    1  C   UNL     1     -10.155   9.736  65.724  1.00  0.00    -0.308 C  
HETATM    2  C   UNL     1      -9.411  10.821  64.925  1.00  0.00    -0.222 C  
HETATM    3  C   UNL     1     -10.328  11.275  63.771  1.00  0.00    -0.453 C  
HETATM    4  C   UNL     1      -8.122  10.247  64.318  1.00  0.00    -0.143 C  
HETATM    5  N   UNL     1      -9.140  12.018  65.750  1.00  0.00    -0.431 NA 
HETATM    6  H   UNL     1     -10.016  12.455  66.035  1.00  0.00     0.000 HD 
ENDROOT
BRANCH   5   7
HETATM    7  C   UNL     1      -8.285  11.788  66.924  1.00  0.00    -0.166 C  
BRANCH   7   8
HETATM    8  C   UNL     1      -8.412  12.855  68.032  1.00  0.00    -0.178 C  
HETATM    9  O   UNL     1      -7.866  12.309  69.243  1.00  0.00    -0.320 OA 
HETATM   10  H   UNL     1      -7.945  12.966  69.925  1.00  0.00     0.000 HD 
BRANCH   8  11
HETATM   11  C   UNL     1      -9.868  13.258  68.279  1.00  0.00    -0.231 C  
BRANCH  11  12
HETATM   12  O   UNL     1     -10.682  12.075  68.282  1.00  0.00    -0.207 OA 
BRANCH  12  13
HETATM   13  C   UNL     1     -11.477  11.947  69.396  1.00  0.00    -0.302 A  
HETATM   14  C   UNL     1     -12.155  13.030  69.972  1.00  0.00    -0.367 A  
HETATM   15  C   UNL     1     -12.900  12.861  71.136  1.00  0.00    -0.326 A  
HETATM   16  C   UNL     1     -13.005  11.596  71.707  1.00  0.00    -0.483 A  
HETATM   17  C   UNL     1     -12.383  10.498  71.101  1.00  0.00    -0.510 A  
HETATM   18  C   UNL     1     -11.601  10.659  69.943  1.00  0.00    -0.396 A  
HETATM   19  C   UNL     1     -10.943   9.474  69.274  1.00  0.00    -0.167 C  
HETATM   20  C   UNL     1     -10.788   8.283  70.211  1.00  0.00    -0.241 C  
HETATM   21  C   UNL     1     -12.101   7.962  70.901  1.00  0.00    -0.181 C  
HETATM   22  C   UNL     1     -12.584   9.152  71.696  1.00  0.00    -0.360 C  
HETATM   23  O   UNL     1     -13.180   9.019  72.760  1.00  0.00    -0.403 OA 
ENDBRANCH  12  13
ENDBRANCH  11  12
ENDBRANCH   8  11
ENDBRANCH   7   8
ENDBRANCH   5   7
TORSDOF 5
ENDMDL
MODEL       83
REMARK 921   NORMALIZED FREE ENERGY PREDICTED BY IDOCK:   -5.09 KCAL/MOL
REMARK 922        TOTAL FREE ENERGY PREDICTED BY IDOCK:   -7.31 KCAL/MOL
REMARK 923 INTER-LIGAND FREE ENERGY PREDICTED BY IDOCK:   -6.52 KCAL/MOL
REMARK 924 INTRA-LIGAND FREE ENERGY PREDICTED BY IDOCK:   -0.79 KCAL/MOL
REMARK 927      BINDING AFFINITY PREDICTED BY RF-SCORE:    0.00 PKD
ROOT
HETATM    1  C   UNL     1     -10.009   9.194  66.382  1.00  0.00    -0.358 C  
HETATM    2  C   UNL     1      -9.272  10.406  65.786  1.00  0.00    -0.174 C  
HETATM    3  C   UNL     1      -9.764  10.596  64.336  1.00  0.00    -0.368 C  
HETATM    4  C   UNL     1      -7.758  10.147  65.750  1.00  0.00    -0.136 C  
HETATM    5  N   UNL     1      -9.594  11.654  66.512  1.00  0.00    -0.203 NA 
HETATM    6  H   UNL     1     -10.585  11.872  66.412  1.00  0.00     0.000 HD 
ENDROOT
BRANCH   5   7
HETATM    7  C   UNL     1      -9.214  11.667  67.933  1.00  0.00    -0.171 C  
BRANCH   7   8
HETATM    8  C   UNL     1     -10.376  11.947  68.908  1.00  0.00    -0.107 C  
HETATM    9  O   UNL     1     -10.409  10.891  69.880  1.00  0.00    -0.441 OA 
HETATM   10  H   UNL     1     -11.125  11.064  70.480  1.00  0.00     0.000 HD 
BRANCH   8  11
HETATM   11  C   UNL     1     -11.728  12.007  68.191  1.00  0.00    -0.333 C  
BRANCH  11  12
HETATM   12  O   UNL     1     -12.235  13.349  68.268  1.00  0.00    -0.286 OA 
BRANCH  12  13
HETATM   13  C   UNL     1     -11.867  14.146  67.211  1.00  0.00    -0.419 A  
HETATM   14  C   UNL     1     -12.293  13.906  65.897  1.00  0.00    -0.517 A  
HETATM   15  C   UNL     1     -11.845  14.708  64.851  1.00  0.00    -0.403 A  
HETATM   16  C   UNL     1     -11.001  15.782  65.120  1.00  0.00    -0.394 A  
HETATM   17  C   UNL     1     -10.624  16.065  66.437  1.00  0.00    -0.284 A  
HETATM   18  C   UNL     1     -11.043  15.245  67.501  1.00  0.00    -0.324 A  
HETATM   19  C   UNL     1     -10.654  15.558  68.928  1.00  0.00    -0.240 C  
HETATM   20  C   UNL     1      -9.428  16.460  69.018  1.00  0.00    -0.258 C  
HETATM   21  C   UNL     1      -9.589  17.681  68.131  1.00  0.00    -0.297 C  
HETATM   22  C   UNL     1      -9.788  17.266  66.693  1.00  0.00    -0.295 C  
HETATM   23  O   UNL     1      -9.337  17.926  65.762  1.00  0.00    -0.507 OA 
ENDBRANCH  12  13
ENDBRANCH  11  12
ENDBRANCH   8  11
ENDBRANCH   7   8
ENDBRANCH   5   7
TORSDOF 5
ENDMDL
MODEL       84
REMARK 921   NORMALIZED FREE ENERGY PREDICTED BY IDOCK:   -5.08 KCAL/MOL
REMARK 922        TOTAL FREE ENERGY PREDICTED BY IDOCK:   -7.29 KCAL/MOL
REMARK 923 INTER-LIGAND FREE ENERGY PREDICTED BY IDOCK:   -6.66 KCAL/MOL
REMARK 924 INTRA-LIGAND FREE ENERGY PREDICTED BY IDOCK:   -0.64 KCAL/MOL
REMARK 927      BINDING AFFINITY PREDICTED BY RF-SCORE:    0.00 PKD
ROOT
HETATM    1  C   UNL     1      -9.127   8.290  69.705  1.00  0.00    -0.147 C  
HETATM    2  C   UNL     1     -10.150   7.422  68.951  1.00  0.00    -0.186 C  
HETATM    3  C   UNL     1     -11.136   6.841  69.986  1.00  0.00    -0.366 C  
HETATM    4  C   UNL     1      -9.443   6.252  68.251  1.00  0.00    -0.117 C  
HETATM    5  N   UNL     1     -10.952   8.223  68.001  1.00  0.00    -0.460 NA 
HETATM    6  H   UNL     1     -11.511   8.910  68.505  1.00  0.00     0.000 HD 
ENDROOT
BRANCH   5   7
HETATM    7  C   UNL     1     -10.184   8.880  66.933  1.00  0.00    -0.276 C  
BRANCH   7   8
HETATM    8  C   UNL     1     -10.431  10.398  66.804  1.00  0.00    -0.225 C  
HETATM    9  O   UNL     1      -9.157  11.059  66.792  1.00  0.00    -0.157 OA 
HETATM   10  H   UNL     1      -9.309  11.994  66.712  1.00  0.00     0.000 HD 
BRANCH   8  11
HETATM   11  C   UNL     1     -11.266  10.946  67.965  1.00  0.00    -0.314 C  
BRANCH  11  12
HETATM   12  O   UNL     1     -12.079  12.027  67.480  1.00  0.00    -0.555 OA 
BRANCH  12  13
HETATM   13  C   UNL     1     -11.885  13.213  68.147  1.00  0.00    -0.348 A  
HETATM   14  C   UNL     1     -12.143  13.364  69.516  1.00  0.00    -0.334 A  
HETATM   15  C   UNL     1     -11.988  14.603  70.133  1.00  0.00    -0.372 A  
HETATM   16  C   UNL     1     -11.533  15.688  69.391  1.00  0.00    -0.354 A  
HETATM   17  C   UNL     1     -11.212  15.529  68.038  1.00  0.00    -0.332 A  
HETATM   18  C   UNL     1     -11.394  14.292  67.393  1.00  0.00    -0.349 A  
HETATM   19  C   UNL     1     -11.031  14.110  65.938  1.00  0.00    -0.297 C  
HETATM   20  C   UNL     1     -10.966  15.430  65.179  1.00  0.00    -0.430 C  
HETATM   21  C   UNL     1     -10.102  16.436  65.918  1.00  0.00    -0.370 C  
HETATM   22  C   UNL     1     -10.654  16.691  67.300  1.00  0.00    -0.281 C  
HETATM   23  O   UNL     1     -10.587  17.796  67.829  1.00  0.00    -0.385 OA 
ENDBRANCH  12  13
ENDBRANCH  11  12
ENDBRANCH   8  11
ENDBRANCH   7   8
ENDBRANCH   5   7
TORSDOF 5
ENDMDL
MODEL       85
REMARK 921   NORMALIZED FREE ENERGY PREDICTED BY IDOCK:   -5.06 KCAL/MOL
REMARK 922        TOTAL FREE ENERGY PREDICTED BY IDOCK:   -7.27 KCAL/MOL
REMARK 923 INTER-LIGAND FREE ENERGY PREDICTED BY IDOCK:   -6.19 KCAL/MOL
REMARK 924 INTRA-LIGAND FREE ENERGY PREDICTED BY IDOCK:   -1.08 KCAL/MOL
REMARK 927      BINDING AFFINITY PREDICTED BY RF-SCORE:    0.00 PKD
ROOT
HETATM    1  C   UNL     1      -9.388   8.143  66.109  1.00  0.00    -0.232 C  
HETATM    2  C   UNL     1      -9.628   9.654  66.279  1.00  0.00    -0.221 C  
HETATM    3  C   UNL     1     -10.000  10.234  64.898  1.00  0.00    -0.393 C  
HETATM    4  C   UNL     1      -8.345  10.347  66.762  1.00  0.00    -0.126 C  
HETATM    5  N   UNL     1     -10.769   9.929  67.178  1.00  0.00    -0.238 NA 
HETATM    6  H   UNL     1     -11.632   9.568  66.771  1.00  0.00     0.000 HD 
ENDROOT
BRANCH   5   7
HETATM    7  C   UNL     1     -10.614   9.434  68.554  1.00  0.00    -0.197 C  
BRANCH   7   8
HETATM    8  C   UNL     1     -10.592  10.535  69.635  1.00  0.00    -0.242 C  
HETATM    9  O   UNL     1     -10.207   9.931  70.880  1.00  0.00    -0.338 OA 
HETATM   10  H   UNL     1     -10.193  10.609  71.546  1.00  0.00     0.000 HD 
BRANCH   8  11
HETATM   11  C   UNL     1     -11.959  11.202  69.806  1.00  0.00    -0.357 C  
BRANCH  11  12
HETATM   12  O   UNL     1     -12.190  12.076  68.690  1.00  0.00    -0.299 OA 
BRANCH  12  13
HETATM   13  C   UNL     1     -11.966  13.404  68.965  1.00  0.00    -0.315 A  
HETATM   14  C   UNL     1     -12.460  14.034  70.116  1.00  0.00    -0.380 A  
HETATM   15  C   UNL     1     -12.256  15.396  70.320  1.00  0.00    -0.414 A  
HETATM   16  C   UNL     1     -11.520  16.128  69.393  1.00  0.00    -0.296 A  
HETATM   17  C   UNL     1     -10.970  15.492  68.274  1.00  0.00    -0.305 A  
HETATM   18  C   UNL     1     -11.193  14.123  68.038  1.00  0.00    -0.302 A  
HETATM   19  C   UNL     1     -10.586  13.427  66.842  1.00  0.00    -0.273 C  
HETATM   20  C   UNL     1     -10.193  14.398  65.735  1.00  0.00    -0.355 C  
HETATM   21  C   UNL     1      -9.356  15.538  66.288  1.00  0.00    -0.355 C  
HETATM   22  C   UNL     1     -10.123  16.289  67.349  1.00  0.00    -0.260 C  
HETATM   23  O   UNL     1     -10.007  17.502  67.495  1.00  0.00    -0.294 OA 
ENDBRANCH  12  13
ENDBRANCH  11  12
ENDBRANCH   8  11
ENDBRANCH   7   8
ENDBRANCH   5   7
TORSDOF 5
ENDMDL
MODEL       86
REMARK 921   NORMALIZED FREE ENERGY PREDICTED BY IDOCK:   -5.04 KCAL/MOL
REMARK 922        TOTAL FREE ENERGY PREDICTED BY IDOCK:   -7.25 KCAL/MOL
REMARK 923 INTER-LIGAND FREE ENERGY PREDICTED BY IDOCK:   -6.46 KCAL/MOL
REMARK 924 INTRA-LIGAND FREE ENERGY PREDICTED BY IDOCK:   -0.78 KCAL/MOL
REMARK 927      BINDING AFFINITY PREDICTED BY RF-SCORE:    0.00 PKD
ROOT
HETATM    1  C   UNL     1     -10.299  14.884  65.230  1.00  0.00    -0.424 C  
HETATM    2  C   UNL     1     -11.168  13.646  65.514  1.00  0.00    -0.293 C  
HETATM    3  C   UNL     1     -12.205  13.521  64.377  1.00  0.00    -0.440 C  
HETATM    4  C   UNL     1     -11.926  13.818  66.839  1.00  0.00    -0.460 C  
HETATM    5  N   UNL     1     -10.369  12.402  65.500  1.00  0.00    -0.266 NA 
HETATM    6  H   UNL     1      -9.981  12.244  64.570  1.00  0.00     0.000 HD 
ENDROOT
BRANCH   5   7
HETATM    7  C   UNL     1      -9.304  12.331  66.511  1.00  0.00    -0.230 C  
BRANCH   7   8
HETATM    8  C   UNL     1      -8.491  11.019  66.500  1.00  0.00    -0.161 C  
HETATM    9  O   UNL     1      -7.383  11.188  65.603  1.00  0.00    -0.365 OA 
HETATM   10  H   UNL     1      -6.883  10.380  65.596  1.00  0.00     0.000 HD 
BRANCH   8  11
HETATM   11  C   UNL     1      -9.331   9.826  66.036  1.00  0.00    -0.196 C  
BRANCH  11  12
HETATM   12  O   UNL     1     -10.507   9.740  66.857  1.00  0.00    -0.238 OA 
BRANCH  12  13
HETATM   13  C   UNL     1     -10.607   8.569  67.569  1.00  0.00    -0.214 A  
HETATM   14  C   UNL     1     -10.529   7.306  66.965  1.00  0.00    -0.398 A  
HETATM   15  C   UNL     1     -10.697   6.149  67.721  1.00  0.00    -0.382 A  
HETATM   16  C   UNL     1     -10.901   6.248  69.094  1.00  0.00    -0.403 A  
HETATM   17  C   UNL     1     -10.916   7.503  69.712  1.00  0.00    -0.195 A  
HETATM   18  C   UNL     1     -10.780   8.683  68.958  1.00  0.00    -0.122 A  
HETATM   19  C   UNL     1     -10.777  10.040  69.623  1.00  0.00    -0.282 C  
HETATM   20  C   UNL     1     -11.420  10.017  71.005  1.00  0.00    -0.463 C  
HETATM   21  C   UNL     1     -10.839   8.902  71.855  1.00  0.00    -0.433 C  
HETATM   22  C   UNL     1     -11.057   7.564  71.190  1.00  0.00    -0.251 C  
HETATM   23  O   UNL     1     -11.276   6.548  71.841  1.00  0.00    -0.247 OA 
ENDBRANCH  12  13
ENDBRANCH  11  12
ENDBRANCH   8  11
ENDBRANCH   7   8
ENDBRANCH   5   7
TORSDOF 5
ENDMDL
MODEL       87
REMARK 921   NORMALIZED FREE ENERGY PREDICTED BY IDOCK:   -5.04 KCAL/MOL
REMARK 922        TOTAL FREE ENERGY PREDICTED BY IDOCK:   -7.24 KCAL/MOL
REMARK 923 INTER-LIGAND FREE ENERGY PREDICTED BY IDOCK:   -6.68 KCAL/MOL
REMARK 924 INTRA-LIGAND FREE ENERGY PREDICTED BY IDOCK:   -0.56 KCAL/MOL
REMARK 927      BINDING AFFINITY PREDICTED BY RF-SCORE:    0.00 PKD
ROOT
HETATM    1  C   UNL     1     -10.861   6.020  67.556  1.00  0.00    -0.393 C  
HETATM    2  C   UNL     1      -9.714   5.835  68.565  1.00  0.00    -0.131 C  
HETATM    3  C   UNL     1      -8.657   4.915  67.920  1.00  0.00    -0.103 C  
HETATM    4  C   UNL     1     -10.230   5.154  69.842  1.00  0.00    -0.361 C  
HETATM    5  N   UNL     1      -9.037   7.116  68.865  1.00  0.00    -0.132 NA 
HETATM    6  H   UNL     1      -8.593   7.484  68.024  1.00  0.00     0.000 HD 
ENDROOT
BRANCH   5   7
HETATM    7  C   UNL     1      -9.891   8.145  69.478  1.00  0.00    -0.181 C  
BRANCH   7   8
HETATM    8  C   UNL     1      -9.953   9.476  68.700  1.00  0.00    -0.167 C  
HETATM    9  O   UNL     1     -11.334   9.801  68.478  1.00  0.00    -0.498 OA 
HETATM   10  H   UNL     1     -11.371  10.620  67.999  1.00  0.00     0.000 HD 
BRANCH   8  11
HETATM   11  C   UNL     1      -9.237   9.388  67.349  1.00  0.00    -0.126 C  
BRANCH  11  12
HETATM   12  O   UNL     1      -8.975  10.718  66.876  1.00  0.00    -0.138 OA 
BRANCH  12  13
HETATM   13  C   UNL     1      -9.550  11.002  65.660  1.00  0.00    -0.226 A  
HETATM   14  C   UNL     1      -9.203  10.326  64.481  1.00  0.00    -0.295 A  
HETATM   15  C   UNL     1      -9.771  10.691  63.264  1.00  0.00    -0.385 A  
HETATM   16  C   UNL     1     -10.722  11.707  63.224  1.00  0.00    -0.404 A  
HETATM   17  C   UNL     1     -11.119  12.342  64.407  1.00  0.00    -0.381 A  
HETATM   18  C   UNL     1     -10.532  12.006  65.640  1.00  0.00    -0.293 A  
HETATM   19  C   UNL     1     -10.971  12.675  66.922  1.00  0.00    -0.297 C  
HETATM   20  C   UNL     1     -11.667  14.009  66.679  1.00  0.00    -0.420 C  
HETATM   21  C   UNL     1     -12.765  13.865  65.640  1.00  0.00    -0.534 C  
HETATM   22  C   UNL     1     -12.193  13.365  64.335  1.00  0.00    -0.389 C  
HETATM   23  O   UNL     1     -12.638  13.733  63.252  1.00  0.00    -0.830 OA 
ENDBRANCH  12  13
ENDBRANCH  11  12
ENDBRANCH   8  11
ENDBRANCH   7   8
ENDBRANCH   5   7
TORSDOF 5
ENDMDL
MODEL       88
REMARK 921   NORMALIZED FREE ENERGY PREDICTED BY IDOCK:   -5.03 KCAL/MOL
REMARK 922        TOTAL FREE ENERGY PREDICTED BY IDOCK:   -7.23 KCAL/MOL
REMARK 923 INTER-LIGAND FREE ENERGY PREDICTED BY IDOCK:   -6.15 KCAL/MOL
REMARK 924 INTRA-LIGAND FREE ENERGY PREDICTED BY IDOCK:   -1.07 KCAL/MOL
REMARK 927      BINDING AFFINITY PREDICTED BY RF-SCORE:    0.00 PKD
ROOT
HETATM    1  C   UNL     1     -10.804   7.118  67.206  1.00  0.00    -0.382 C  
HETATM    2  C   UNL     1      -9.424   7.338  67.852  1.00  0.00    -0.135 C  
HETATM    3  C   UNL     1      -8.559   8.147  66.862  1.00  0.00    -0.126 C  
HETATM    4  C   UNL     1      -8.732   5.990  68.105  1.00  0.00    -0.113 C  
HETATM    5  N   UNL     1      -9.521   8.143  69.089  1.00  0.00    -0.155 NA 
HETATM    6  H   UNL     1      -9.864   9.079  68.873  1.00  0.00     0.000 HD 
ENDROOT
BRANCH   5   7
HETATM    7  C   UNL     1     -10.328   7.543  70.163  1.00  0.00    -0.216 C  
BRANCH   7   8
HETATM    8  C   UNL     1     -11.133   8.556  71.005  1.00  0.00    -0.260 C  
HETATM    9  O   UNL     1     -12.530   8.288  70.811  1.00  0.00    -0.501 OA 
HETATM   10  H   UNL     1     -13.025   8.911  71.329  1.00  0.00     0.000 HD 
BRANCH   8  11
HETATM   11  C   UNL     1     -10.842  10.003  70.598  1.00  0.00    -0.297 C  
BRANCH  11  12
HETATM   12  O   UNL     1     -11.541  10.290  69.377  1.00  0.00    -0.220 OA 
BRANCH  12  13
HETATM   13  C   UNL     1     -11.637  11.631  69.091  1.00  0.00    -0.314 A  
HETATM   14  C   UNL     1     -12.000  12.587  70.051  1.00  0.00    -0.372 A  
HETATM   15  C   UNL     1     -12.142  13.926  69.698  1.00  0.00    -0.404 A  
HETATM   16  C   UNL     1     -11.881  14.324  68.390  1.00  0.00    -0.373 A  
HETATM   17  C   UNL     1     -11.457  13.385  67.442  1.00  0.00    -0.368 A  
HETATM   18  C   UNL     1     -11.339  12.023  67.776  1.00  0.00    -0.370 A  
HETATM   19  C   UNL     1     -10.863  11.009  66.762  1.00  0.00    -0.307 C  
HETATM   20  C   UNL     1     -11.031  11.492  65.325  1.00  0.00    -0.291 C  
HETATM   21  C   UNL     1     -10.440  12.879  65.148  1.00  0.00    -0.326 C  
HETATM   22  C   UNL     1     -11.112  13.861  66.078  1.00  0.00    -0.289 C  
HETATM   23  O   UNL     1     -11.308  15.028  65.753  1.00  0.00    -0.337 OA 
ENDBRANCH  12  13
ENDBRANCH  11  12
ENDBRANCH   8  11
ENDBRANCH   7   8
ENDBRANCH   5   7
TORSDOF 5
ENDMDL
MODEL       89
REMARK 921   NORMALIZED FREE ENERGY PREDICTED BY IDOCK:   -5.02 KCAL/MOL
REMARK 922        TOTAL FREE ENERGY PREDICTED BY IDOCK:   -7.22 KCAL/MOL
REMARK 923 INTER-LIGAND FREE ENERGY PREDICTED BY IDOCK:   -6.23 KCAL/MOL
REMARK 924 INTRA-LIGAND FREE ENERGY PREDICTED BY IDOCK:   -0.99 KCAL/MOL
REMARK 927      BINDING AFFINITY PREDICTED BY RF-SCORE:    0.00 PKD
ROOT
HETATM    1  C   UNL     1      -7.997  13.363  67.753  1.00  0.00    -0.167 C  
HETATM    2  C   UNL     1      -6.609  13.915  68.124  1.00  0.00    -0.127 C  
HETATM    3  C   UNL     1      -5.549  12.910  67.628  1.00  0.00    -0.120 C  
HETATM    4  C   UNL     1      -6.476  14.043  69.649  1.00  0.00    -0.122 C  
HETATM    5  N   UNL     1      -6.331  15.198  67.442  1.00  0.00    -0.320 NA 
HETATM    6  H   UNL     1      -6.299  15.060  66.432  1.00  0.00     0.000 HD 
ENDROOT
BRANCH   5   7
HETATM    7  C   UNL     1      -7.254  16.295  67.773  1.00  0.00    -0.134 C  
BRANCH   7   8
HETATM    8  C   UNL     1      -8.148  16.758  66.604  1.00  0.00    -0.265 C  
HETATM    9  O   UNL     1      -7.353  17.572  65.728  1.00  0.00    -0.456 OA 
HETATM   10  H   UNL     1      -7.904  17.857  65.009  1.00  0.00     0.000 HD 
BRANCH   8  11
HETATM   11  C   UNL     1      -9.350  17.574  67.088  1.00  0.00    -0.250 C  
BRANCH  11  12
HETATM   12  O   UNL     1     -10.550  16.989  66.558  1.00  0.00    -0.270 OA 
BRANCH  12  13
HETATM   13  C   UNL     1     -11.024  15.927  67.290  1.00  0.00    -0.234 A  
HETATM   14  C   UNL     1     -11.372  16.035  68.644  1.00  0.00    -0.383 A  
HETATM   15  C   UNL     1     -11.790  14.915  69.358  1.00  0.00    -0.356 A  
HETATM   16  C   UNL     1     -11.903  13.688  68.710  1.00  0.00    -0.395 A  
HETATM   17  C   UNL     1     -11.618  13.588  67.344  1.00  0.00    -0.392 A  
HETATM   18  C   UNL     1     -11.164  14.703  66.616  1.00  0.00    -0.349 A  
HETATM   19  C   UNL     1     -10.874  14.604  65.136  1.00  0.00    -0.414 C  
HETATM   20  C   UNL     1     -10.630  13.170  64.680  1.00  0.00    -0.410 C  
HETATM   21  C   UNL     1     -11.739  12.253  65.163  1.00  0.00    -0.414 C  
HETATM   22  C   UNL     1     -11.827  12.280  66.670  1.00  0.00    -0.289 C  
HETATM   23  O   UNL     1     -12.126  11.282  67.318  1.00  0.00    -0.362 OA 
ENDBRANCH  12  13
ENDBRANCH  11  12
ENDBRANCH   8  11
ENDBRANCH   7   8
ENDBRANCH   5   7
TORSDOF 5
ENDMDL
MODEL       90
REMARK 921   NORMALIZED FREE ENERGY PREDICTED BY IDOCK:   -5.02 KCAL/MOL
REMARK 922        TOTAL FREE ENERGY PREDICTED BY IDOCK:   -7.21 KCAL/MOL
REMARK 923 INTER-LIGAND FREE ENERGY PREDICTED BY IDOCK:   -6.74 KCAL/MOL
REMARK 924 INTRA-LIGAND FREE ENERGY PREDICTED BY IDOCK:   -0.48 KCAL/MOL
REMARK 927      BINDING AFFINITY PREDICTED BY RF-SCORE:    0.00 PKD
ROOT
HETATM    1  C   UNL     1      -8.719  18.229  66.453  1.00  0.00    -0.260 C  
HETATM    2  C   UNL     1      -9.579  17.751  67.637  1.00  0.00    -0.266 C  
HETATM    3  C   UNL     1     -10.263  18.987  68.258  1.00  0.00    -0.460 C  
HETATM    4  C   UNL     1      -8.694  17.100  68.711  1.00  0.00    -0.235 C  
HETATM    5  N   UNL     1     -10.659  16.842  67.196  1.00  0.00    -0.290 NA 
HETATM    6  H   UNL     1     -11.307  17.337  66.583  1.00  0.00     0.000 HD 
ENDROOT
BRANCH   5   7
HETATM    7  C   UNL     1     -10.208  15.598  66.556  1.00  0.00    -0.283 C  
BRANCH   7   8
HETATM    8  C   UNL     1     -11.187  14.413  66.689  1.00  0.00    -0.339 C  
HETATM    9  O   UNL     1     -12.166  14.522  65.644  1.00  0.00    -0.351 OA 
HETATM   10  H   UNL     1     -12.769  13.792  65.727  1.00  0.00     0.000 HD 
BRANCH   8  11
HETATM   11  C   UNL     1     -11.903  14.407  68.043  1.00  0.00    -0.325 C  
BRANCH  11  12
HETATM   12  O   UNL     1     -11.116  13.654  68.980  1.00  0.00    -0.251 OA 
BRANCH  12  13
HETATM   13  C   UNL     1     -11.852  13.054  69.972  1.00  0.00    -0.285 A  
HETATM   14  C   UNL     1     -12.740  13.764  70.793  1.00  0.00    -0.361 A  
HETATM   15  C   UNL     1     -13.419  13.120  71.824  1.00  0.00    -0.420 A  
HETATM   16  C   UNL     1     -13.245  11.752  72.013  1.00  0.00    -0.460 A  
HETATM   17  C   UNL     1     -12.410  11.026  71.157  1.00  0.00    -0.465 A  
HETATM   18  C   UNL     1     -11.693  11.667  70.130  1.00  0.00    -0.381 A  
HETATM   19  C   UNL     1     -10.805  10.884  69.192  1.00  0.00    -0.280 C  
HETATM   20  C   UNL     1     -10.389   9.535  69.766  1.00  0.00    -0.251 C  
HETATM   21  C   UNL     1     -11.596   8.767  70.271  1.00  0.00    -0.027 C  
HETATM   22  C   UNL     1     -12.313   9.555  71.341  1.00  0.00    -0.364 C  
HETATM   23  O   UNL     1     -12.856   9.005  72.294  1.00  0.00    -0.385 OA 
ENDBRANCH  12  13
ENDBRANCH  11  12
ENDBRANCH   8  11
ENDBRANCH   7   8
ENDBRANCH   5   7
TORSDOF 5
ENDMDL
MODEL       91
REMARK 921   NORMALIZED FREE ENERGY PREDICTED BY IDOCK:   -5.01 KCAL/MOL
REMARK 922        TOTAL FREE ENERGY PREDICTED BY IDOCK:   -7.21 KCAL/MOL
REMARK 923 INTER-LIGAND FREE ENERGY PREDICTED BY IDOCK:   -6.30 KCAL/MOL
REMARK 924 INTRA-LIGAND FREE ENERGY PREDICTED BY IDOCK:   -0.91 KCAL/MOL
REMARK 927      BINDING AFFINITY PREDICTED BY RF-SCORE:    0.00 PKD
ROOT
HETATM    1  C   UNL     1      -8.602   9.082  62.539  1.00  0.00    -0.210 C  
HETATM    2  C   UNL     1      -8.117  10.392  63.185  1.00  0.00    -0.141 C  
HETATM    3  C   UNL     1      -6.920  10.913  62.362  1.00  0.00    -0.043 C  
HETATM    4  C   UNL     1      -7.637  10.135  64.621  1.00  0.00    -0.135 C  
HETATM    5  N   UNL     1      -9.156  11.443  63.137  1.00  0.00    -0.509 NA 
HETATM    6  H   UNL     1      -9.365  11.687  62.169  1.00  0.00     0.000 HD 
ENDROOT
BRANCH   5   7
HETATM    7  C   UNL     1     -10.398  11.127  63.858  1.00  0.00    -0.380 C  
BRANCH   7   8
HETATM    8  C   UNL     1     -11.345  12.328  64.066  1.00  0.00    -0.399 C  
HETATM    9  O   UNL     1     -11.700  12.847  62.775  1.00  0.00    -0.687 OA 
HETATM   10  H   UNL     1     -12.282  13.586  62.904  1.00  0.00     0.000 HD 
BRANCH   8  11
HETATM   11  C   UNL     1     -10.690  13.442  64.888  1.00  0.00    -0.369 C  
BRANCH  11  12
HETATM   12  O   UNL     1      -9.996  12.851  65.998  1.00  0.00    -0.267 OA 
BRANCH  12  13
HETATM   13  C   UNL     1     -10.678  12.928  67.188  1.00  0.00    -0.253 A  
HETATM   14  C   UNL     1     -11.333  14.093  67.613  1.00  0.00    -0.342 A  
HETATM   15  C   UNL     1     -11.960  14.140  68.855  1.00  0.00    -0.376 A  
HETATM   16  C   UNL     1     -11.972  13.006  69.663  1.00  0.00    -0.367 A  
HETATM   17  C   UNL     1     -11.375  11.821  69.217  1.00  0.00    -0.348 A  
HETATM   18  C   UNL     1     -10.710  11.767  67.978  1.00  0.00    -0.244 A  
HETATM   19  C   UNL     1     -10.081  10.485  67.485  1.00  0.00    -0.225 C  
HETATM   20  C   UNL     1      -9.802   9.497  68.611  1.00  0.00    -0.173 C  
HETATM   21  C   UNL     1     -11.035   9.297  69.474  1.00  0.00    -0.169 C  
HETATM   22  C   UNL     1     -11.478  10.610  70.072  1.00  0.00    -0.325 C  
HETATM   23  O   UNL     1     -11.968  10.676  71.195  1.00  0.00    -0.342 OA 
ENDBRANCH  12  13
ENDBRANCH  11  12
ENDBRANCH   8  11
ENDBRANCH   7   8
ENDBRANCH   5   7
TORSDOF 5
ENDMDL
MODEL       92
REMARK 921   NORMALIZED FREE ENERGY PREDICTED BY IDOCK:   -5.01 KCAL/MOL
REMARK 922        TOTAL FREE ENERGY PREDICTED BY IDOCK:   -7.21 KCAL/MOL
REMARK 923 INTER-LIGAND FREE ENERGY PREDICTED BY IDOCK:   -6.53 KCAL/MOL
REMARK 924 INTRA-LIGAND FREE ENERGY PREDICTED BY IDOCK:   -0.67 KCAL/MOL
REMARK 927      BINDING AFFINITY PREDICTED BY RF-SCORE:    0.00 PKD
ROOT
HETATM    1  C   UNL     1     -10.113   5.784  71.980  1.00  0.00    -0.225 C  
HETATM    2  C   UNL     1     -10.303   7.311  72.021  1.00  0.00    -0.192 C  
HETATM    3  C   UNL     1      -9.355   7.880  73.097  1.00  0.00    -0.337 C  
HETATM    4  C   UNL     1     -11.745   7.659  72.419  1.00  0.00    -0.366 C  
HETATM    5  N   UNL     1      -9.922   7.944  70.740  1.00  0.00    -0.184 NA 
HETATM    6  H   UNL     1      -8.928   7.807  70.562  1.00  0.00     0.000 HD 
ENDROOT
BRANCH   5   7
HETATM    7  C   UNL     1     -10.709   7.516  69.573  1.00  0.00    -0.217 C  
BRANCH   7   8
HETATM    8  C   UNL     1     -10.770   8.546  68.426  1.00  0.00    -0.032 C  
HETATM    9  O   UNL     1      -9.850   8.132  67.404  1.00  0.00    -0.157 OA 
HETATM   10  H   UNL     1      -9.888   8.767  66.698  1.00  0.00     0.000 HD 
BRANCH   8  11
HETATM   11  C   UNL     1     -10.393   9.955  68.895  1.00  0.00    -0.205 C  
BRANCH  11  12
HETATM   12  O   UNL     1     -11.472  10.850  68.583  1.00  0.00    -0.268 OA 
BRANCH  12  13
HETATM   13  C   UNL     1     -11.944  11.553  69.666  1.00  0.00    -0.339 A  
HETATM   14  C   UNL     1     -12.442  10.927  70.817  1.00  0.00    -0.489 A  
HETATM   15  C   UNL     1     -12.965  11.683  71.863  1.00  0.00    -0.442 A  
HETATM   16  C   UNL     1     -12.954  13.072  71.781  1.00  0.00    -0.420 A  
HETATM   17  C   UNL     1     -12.401  13.704  70.662  1.00  0.00    -0.440 A  
HETATM   18  C   UNL     1     -11.897  12.954  69.583  1.00  0.00    -0.387 A  
HETATM   19  C   UNL     1     -11.281  13.632  68.381  1.00  0.00    -0.306 C  
HETATM   20  C   UNL     1     -11.717  15.086  68.239  1.00  0.00    -0.338 C  
HETATM   21  C   UNL     1     -11.530  15.836  69.545  1.00  0.00    -0.356 C  
HETATM   22  C   UNL     1     -12.335  15.188  70.646  1.00  0.00    -0.368 C  
HETATM   23  O   UNL     1     -12.862  15.849  71.536  1.00  0.00    -0.465 OA 
ENDBRANCH  12  13
ENDBRANCH  11  12
ENDBRANCH   8  11
ENDBRANCH   7   8
ENDBRANCH   5   7
TORSDOF 5
ENDMDL
MODEL       93
REMARK 921   NORMALIZED FREE ENERGY PREDICTED BY IDOCK:   -5.00 KCAL/MOL
REMARK 922        TOTAL FREE ENERGY PREDICTED BY IDOCK:   -7.20 KCAL/MOL
REMARK 923 INTER-LIGAND FREE ENERGY PREDICTED BY IDOCK:   -6.66 KCAL/MOL
REMARK 924 INTRA-LIGAND FREE ENERGY PREDICTED BY IDOCK:   -0.54 KCAL/MOL
REMARK 927      BINDING AFFINITY PREDICTED BY RF-SCORE:    0.00 PKD
ROOT
HETATM    1  C   UNL     1     -10.897  15.084  64.950  1.00  0.00    -0.430 C  
HETATM    2  C   UNL     1     -11.359  13.618  64.872  1.00  0.00    -0.344 C  
HETATM    3  C   UNL     1     -11.931  13.374  63.460  1.00  0.00    -0.467 C  
HETATM    4  C   UNL     1     -12.473  13.354  65.895  1.00  0.00    -0.468 C  
HETATM    5  N   UNL     1     -10.228  12.679  65.041  1.00  0.00    -0.339 NA 
HETATM    6  H   UNL     1      -9.563  12.787  64.276  1.00  0.00     0.000 HD 
ENDROOT
BRANCH   5   7
HETATM    7  C   UNL     1      -9.531  12.767  66.333  1.00  0.00    -0.229 C  
BRANCH   7   8
HETATM    8  C   UNL     1      -9.536  11.462  67.157  1.00  0.00    -0.179 C  
HETATM    9  O   UNL     1     -10.294  10.480  66.434  1.00  0.00    -0.232 OA 
HETATM   10  H   UNL     1     -10.297   9.677  66.942  1.00  0.00     0.000 HD 
BRANCH   8  11
HETATM   11  C   UNL     1     -10.164  11.658  68.540  1.00  0.00    -0.210 C  
BRANCH  11  12
HETATM   12  O   UNL     1      -9.738  10.587  69.398  1.00  0.00    -0.215 OA 
BRANCH  12  13
HETATM   13  C   UNL     1     -10.747  10.047  70.159  1.00  0.00    -0.307 A  
HETATM   14  C   UNL     1     -11.800  10.813  70.676  1.00  0.00    -0.460 A  
HETATM   15  C   UNL     1     -12.766  10.230  71.492  1.00  0.00    -0.557 A  
HETATM   16  C   UNL     1     -12.706   8.866  71.761  1.00  0.00    -0.421 A  
HETATM   17  C   UNL     1     -11.693   8.083  71.196  1.00  0.00    -0.307 A  
HETATM   18  C   UNL     1     -10.692   8.663  70.395  1.00  0.00    -0.248 A  
HETATM   19  C   UNL     1      -9.608   7.819  69.767  1.00  0.00    -0.167 C  
HETATM   20  C   UNL     1      -9.422   6.481  70.473  1.00  0.00    -0.173 C  
HETATM   21  C   UNL     1     -10.752   5.768  70.639  1.00  0.00    -0.351 C  
HETATM   22  C   UNL     1     -11.709   6.618  71.441  1.00  0.00    -0.324 C  
HETATM   23  O   UNL     1     -12.518   6.121  72.218  1.00  0.00    -0.236 OA 
ENDBRANCH  12  13
ENDBRANCH  11  12
ENDBRANCH   8  11
ENDBRANCH   7   8
ENDBRANCH   5   7
TORSDOF 5
ENDMDL
MODEL       94
REMARK 921   NORMALIZED FREE ENERGY PREDICTED BY IDOCK:   -4.92 KCAL/MOL
REMARK 922        TOTAL FREE ENERGY PREDICTED BY IDOCK:   -7.09 KCAL/MOL
REMARK 923 INTER-LIGAND FREE ENERGY PREDICTED BY IDOCK:   -6.66 KCAL/MOL
REMARK 924 INTRA-LIGAND FREE ENERGY PREDICTED BY IDOCK:   -0.43 KCAL/MOL
REMARK 927      BINDING AFFINITY PREDICTED BY RF-SCORE:    0.00 PKD
ROOT
HETATM    1  C   UNL     1      -9.313   2.600  65.007  1.00  0.00    -0.115 C  
HETATM    2  C   UNL     1      -9.980   3.871  64.450  1.00  0.00    -0.196 C  
HETATM    3  C   UNL     1     -10.766   3.478  63.182  1.00  0.00    -0.215 C  
HETATM    4  C   UNL     1      -8.915   4.904  64.055  1.00  0.00    -0.037 C  
HETATM    5  N   UNL     1     -10.961   4.435  65.402  1.00  0.00    -0.826 NA 
HETATM    6  H   UNL     1     -11.727   3.777  65.549  1.00  0.00     0.000 HD 
ENDROOT
BRANCH   5   7
HETATM    7  C   UNL     1     -10.405   4.860  66.696  1.00  0.00    -0.242 C  
BRANCH   7   8
HETATM    8  C   UNL     1     -11.027   6.149  67.271  1.00  0.00    -0.326 C  
HETATM    9  O   UNL     1     -10.487   7.267  66.549  1.00  0.00    -0.493 OA 
HETATM   10  H   UNL     1     -10.870   8.061  66.904  1.00  0.00     0.000 HD 
BRANCH   8  11
HETATM   11  C   UNL     1     -10.718   6.322  68.761  1.00  0.00    -0.297 C  
BRANCH  11  12
HETATM   12  O   UNL     1     -10.511   7.718  69.032  1.00  0.00    -0.216 OA 
BRANCH  12  13
HETATM   13  C   UNL     1     -11.250   8.196  70.088  1.00  0.00    -0.134 A  
HETATM   14  C   UNL     1     -11.680   7.381  71.144  1.00  0.00    -0.322 A  
HETATM   15  C   UNL     1     -12.477   7.901  72.160  1.00  0.00    -0.304 A  
HETATM   16  C   UNL     1     -12.813   9.252  72.147  1.00  0.00    -0.485 A  
HETATM   17  C   UNL     1     -12.334  10.085  71.130  1.00  0.00    -0.477 A  
HETATM   18  C   UNL     1     -11.554   9.568  70.079  1.00  0.00    -0.091 A  
HETATM   19  C   UNL     1     -11.018  10.466  68.989  1.00  0.00    -0.282 C  
HETATM   20  C   UNL     1     -11.795  11.772  68.870  1.00  0.00    -0.381 C  
HETATM   21  C   UNL     1     -11.933  12.445  70.223  1.00  0.00    -0.371 C  
HETATM   22  C   UNL     1     -12.648  11.535  71.194  1.00  0.00    -0.359 C  
HETATM   23  O   UNL     1     -13.409  11.975  72.050  1.00  0.00    -0.495 OA 
ENDBRANCH  12  13
ENDBRANCH  11  12
ENDBRANCH   8  11
ENDBRANCH   7   8
ENDBRANCH   5   7
TORSDOF 5
ENDMDL
MODEL       95
REMARK 921   NORMALIZED FREE ENERGY PREDICTED BY IDOCK:   -4.92 KCAL/MOL
REMARK 922        TOTAL FREE ENERGY PREDICTED BY IDOCK:   -7.09 KCAL/MOL
REMARK 923 INTER-LIGAND FREE ENERGY PREDICTED BY IDOCK:   -6.28 KCAL/MOL
REMARK 924 INTRA-LIGAND FREE ENERGY PREDICTED BY IDOCK:   -0.81 KCAL/MOL
REMARK 927      BINDING AFFINITY PREDICTED BY RF-SCORE:    0.00 PKD
ROOT
HETATM    1  C   UNL     1     -11.614  14.512  64.546  1.00  0.00    -0.385 C  
HETATM    2  C   UNL     1     -11.167  13.145  65.095  1.00  0.00    -0.294 C  
HETATM    3  C   UNL     1     -11.356  12.099  63.977  1.00  0.00    -0.468 C  
HETATM    4  C   UNL     1     -12.043  12.737  66.288  1.00  0.00    -0.400 C  
HETATM    5  N   UNL     1      -9.730  13.140  65.445  1.00  0.00    -0.497 NA 
HETATM    6  H   UNL     1      -9.164  13.286  64.610  1.00  0.00     0.000 HD 
ENDROOT
BRANCH   5   7
HETATM    7  C   UNL     1      -9.339  14.092  66.495  1.00  0.00    -0.265 C  
BRANCH   7   8
HETATM    8  C   UNL     1      -8.343  13.533  67.533  1.00  0.00    -0.184 C  
HETATM    9  O   UNL     1      -7.016  13.886  67.114  1.00  0.00    -0.398 OA 
HETATM   10  H   UNL     1      -6.403  13.542  67.753  1.00  0.00     0.000 HD 
BRANCH   8  11
HETATM   11  C   UNL     1      -8.438  12.010  67.659  1.00  0.00    -0.160 C  
BRANCH  11  12
HETATM   12  O   UNL     1      -9.659  11.677  68.337  1.00  0.00    -0.189 OA 
BRANCH  12  13
HETATM   13  C   UNL     1      -9.726  10.370  68.757  1.00  0.00    -0.183 A  
HETATM   14  C   UNL     1      -8.814   9.391  68.337  1.00  0.00    -0.128 A  
HETATM   15  C   UNL     1      -8.960   8.067  68.744  1.00  0.00    -0.141 A  
HETATM   16  C   UNL     1      -9.995   7.723  69.608  1.00  0.00    -0.190 A  
HETATM   17  C   UNL     1     -10.870   8.707  70.082  1.00  0.00    -0.242 A  
HETATM   18  C   UNL     1     -10.755  10.043  69.655  1.00  0.00    -0.282 A  
HETATM   19  C   UNL     1     -11.685  11.113  70.179  1.00  0.00    -0.439 C  
HETATM   20  C   UNL     1     -12.978  10.540  70.746  1.00  0.00    -0.413 C  
HETATM   21  C   UNL     1     -12.688   9.425  71.735  1.00  0.00    -0.476 C  
HETATM   22  C   UNL     1     -11.912   8.316  71.066  1.00  0.00    -0.241 C  
HETATM   23  O   UNL     1     -12.080   7.138  71.365  1.00  0.00    -0.304 OA 
ENDBRANCH  12  13
ENDBRANCH  11  12
ENDBRANCH   8  11
ENDBRANCH   7   8
ENDBRANCH   5   7
TORSDOF 5
ENDMDL
MODEL       96
REMARK 921   NORMALIZED FREE ENERGY PREDICTED BY IDOCK:   -4.92 KCAL/MOL
REMARK 922        TOTAL FREE ENERGY PREDICTED BY IDOCK:   -7.09 KCAL/MOL
REMARK 923 INTER-LIGAND FREE ENERGY PREDICTED BY IDOCK:   -6.45 KCAL/MOL
REMARK 924 INTRA-LIGAND FREE ENERGY PREDICTED BY IDOCK:   -0.64 KCAL/MOL
REMARK 927      BINDING AFFINITY PREDICTED BY RF-SCORE:    0.00 PKD
ROOT
HETATM    1  C   UNL     1     -12.643  13.399  65.486  1.00  0.00    -0.520 C  
HETATM    2  C   UNL     1     -11.261  13.905  65.934  1.00  0.00    -0.297 C  
HETATM    3  C   UNL     1     -11.439  14.658  67.269  1.00  0.00    -0.386 C  
HETATM    4  C   UNL     1     -10.690  14.887  64.900  1.00  0.00    -0.426 C  
HETATM    5  N   UNL     1     -10.329  12.787  66.197  1.00  0.00    -0.264 NA 
HETATM    6  H   UNL     1     -10.668  12.222  66.976  1.00  0.00     0.000 HD 
ENDROOT
BRANCH   5   7
HETATM    7  C   UNL     1     -10.038  11.929  65.039  1.00  0.00    -0.264 C  
BRANCH   7   8
HETATM    8  C   UNL     1      -9.152  10.705  65.350  1.00  0.00    -0.189 C  
HETATM    9  O   UNL     1      -9.577   9.620  64.511  1.00  0.00    -0.429 OA 
HETATM   10  H   UNL     1      -9.031   8.866  64.703  1.00  0.00     0.000 HD 
BRANCH   8  11
HETATM   11  C   UNL     1      -9.260  10.273  66.816  1.00  0.00    -0.157 C  
BRANCH  11  12
HETATM   12  O   UNL     1     -10.609   9.855  67.077  1.00  0.00    -0.238 OA 
BRANCH  12  13
HETATM   13  C   UNL     1     -11.023  10.081  68.367  1.00  0.00    -0.217 A  
HETATM   14  C   UNL     1     -11.574  11.301  68.784  1.00  0.00    -0.383 A  
HETATM   15  C   UNL     1     -11.923  11.501  70.117  1.00  0.00    -0.452 A  
HETATM   16  C   UNL     1     -11.763  10.466  71.033  1.00  0.00    -0.430 A  
HETATM   17  C   UNL     1     -11.274   9.225  70.611  1.00  0.00    -0.333 A  
HETATM   18  C   UNL     1     -10.887   9.017  69.274  1.00  0.00    -0.131 A  
HETATM   19  C   UNL     1     -10.376   7.673  68.809  1.00  0.00    -0.218 C  
HETATM   20  C   UNL     1      -9.863   6.811  69.956  1.00  0.00    -0.179 C  
HETATM   21  C   UNL     1     -10.885   6.738  71.076  1.00  0.00    -0.280 C  
HETATM   22  C   UNL     1     -11.192   8.120  71.601  1.00  0.00    -0.261 C  
HETATM   23  O   UNL     1     -11.432   8.323  72.787  1.00  0.00    -0.391 OA 
ENDBRANCH  12  13
ENDBRANCH  11  12
ENDBRANCH   8  11
ENDBRANCH   7   8
ENDBRANCH   5   7
TORSDOF 5
ENDMDL
MODEL       97
REMARK 921   NORMALIZED FREE ENERGY PREDICTED BY IDOCK:   -4.91 KCAL/MOL
REMARK 922        TOTAL FREE ENERGY PREDICTED BY IDOCK:   -7.07 KCAL/MOL
REMARK 923 INTER-LIGAND FREE ENERGY PREDICTED BY IDOCK:   -6.27 KCAL/MOL
REMARK 924 INTRA-LIGAND FREE ENERGY PREDICTED BY IDOCK:   -0.81 KCAL/MOL
REMARK 927      BINDING AFFINITY PREDICTED BY RF-SCORE:    0.00 PKD
ROOT
HETATM    1  C   UNL     1      -8.967   6.781  68.170  1.00  0.00    -0.118 C  
HETATM    2  C   UNL     1      -9.347   6.549  66.697  1.00  0.00    -0.158 C  
HETATM    3  C   UNL     1     -10.544   5.576  66.663  1.00  0.00    -0.365 C  
HETATM    4  C   UNL     1      -8.179   5.901  65.939  1.00  0.00    -0.127 C  
HETATM    5  N   UNL     1      -9.796   7.799  66.045  1.00  0.00    -0.431 NA 
HETATM    6  H   UNL     1     -10.649   8.140  66.487  1.00  0.00     0.000 HD 
ENDROOT
BRANCH   5   7
HETATM    7  C   UNL     1      -8.791   8.871  65.990  1.00  0.00    -0.172 C  
BRANCH   7   8
HETATM    8  C   UNL     1      -9.037   9.928  64.894  1.00  0.00    -0.224 C  
HETATM    9  O   UNL     1      -7.961  10.879  64.940  1.00  0.00    -0.357 OA 
HETATM   10  H   UNL     1      -8.113  11.530  64.265  1.00  0.00     0.000 HD 
BRANCH   8  11
HETATM   11  C   UNL     1     -10.363  10.667  65.093  1.00  0.00    -0.261 C  
BRANCH  11  12
HETATM   12  O   UNL     1     -10.796  10.483  66.451  1.00  0.00    -0.146 OA 
BRANCH  12  13
HETATM   13  C   UNL     1     -11.163  11.648  67.082  1.00  0.00    -0.309 A  
HETATM   14  C   UNL     1     -11.237  12.880  66.416  1.00  0.00    -0.337 A  
HETATM   15  C   UNL     1     -11.556  14.042  67.113  1.00  0.00    -0.397 A  
HETATM   16  C   UNL     1     -11.843  13.972  68.473  1.00  0.00    -0.399 A  
HETATM   17  C   UNL     1     -11.832  12.737  69.130  1.00  0.00    -0.352 A  
HETATM   18  C   UNL     1     -11.482  11.558  68.446  1.00  0.00    -0.364 A  
HETATM   19  C   UNL     1     -11.487  10.218  69.146  1.00  0.00    -0.210 C  
HETATM   20  C   UNL     1     -11.396  10.348  70.662  1.00  0.00    -0.411 C  
HETATM   21  C   UNL     1     -12.427  11.331  71.185  1.00  0.00    -0.479 C  
HETATM   22  C   UNL     1     -12.221  12.692  70.563  1.00  0.00    -0.299 C  
HETATM   23  O   UNL     1     -12.430  13.726  71.188  1.00  0.00    -0.350 OA 
ENDBRANCH  12  13
ENDBRANCH  11  12
ENDBRANCH   8  11
ENDBRANCH   7   8
ENDBRANCH   5   7
TORSDOF 5
ENDMDL
MODEL       98
REMARK 921   NORMALIZED FREE ENERGY PREDICTED BY IDOCK:   -4.91 KCAL/MOL
REMARK 922        TOTAL FREE ENERGY PREDICTED BY IDOCK:   -7.07 KCAL/MOL
REMARK 923 INTER-LIGAND FREE ENERGY PREDICTED BY IDOCK:   -6.39 KCAL/MOL
REMARK 924 INTRA-LIGAND FREE ENERGY PREDICTED BY IDOCK:   -0.68 KCAL/MOL
REMARK 927      BINDING AFFINITY PREDICTED BY RF-SCORE:    0.00 PKD
ROOT
HETATM    1  C   UNL     1      -9.969  19.662  68.242  1.00  0.00    -0.543 C  
HETATM    2  C   UNL     1      -8.592  19.328  67.642  1.00  0.00    -0.296 C  
HETATM    3  C   UNL     1      -7.796  20.644  67.515  1.00  0.00    -0.298 C  
HETATM    4  C   UNL     1      -8.753  18.726  66.238  1.00  0.00    -0.244 C  
HETATM    5  N   UNL     1      -7.809  18.440  68.529  1.00  0.00    -0.301 NA 
HETATM    6  H   UNL     1      -7.605  18.914  69.409  1.00  0.00     0.000 HD 
ENDROOT
BRANCH   5   7
HETATM    7  C   UNL     1      -8.414  17.126  68.791  1.00  0.00    -0.225 C  
BRANCH   7   8
HETATM    8  C   UNL     1      -7.427  15.941  68.738  1.00  0.00    -0.170 C  
HETATM    9  O   UNL     1      -6.645  16.063  67.540  1.00  0.00    -0.147 OA 
HETATM   10  H   UNL     1      -6.037  15.333  67.508  1.00  0.00     0.000 HD 
BRANCH   8  11
HETATM   11  C   UNL     1      -8.148  14.590  68.728  1.00  0.00    -0.146 C  
BRANCH  11  12
HETATM   12  O   UNL     1      -8.065  14.032  67.407  1.00  0.00    -0.173 OA 
BRANCH  12  13
HETATM   13  C   UNL     1      -9.093  13.174  67.098  1.00  0.00    -0.230 A  
HETATM   14  C   UNL     1      -9.133  11.846  67.547  1.00  0.00    -0.178 A  
HETATM   15  C   UNL     1     -10.167  10.998  67.158  1.00  0.00    -0.243 A  
HETATM   16  C   UNL     1     -11.190  11.487  66.351  1.00  0.00    -0.307 A  
HETATM   17  C   UNL     1     -11.189  12.828  65.952  1.00  0.00    -0.334 A  
HETATM   18  C   UNL     1     -10.136  13.689  66.311  1.00  0.00    -0.301 A  
HETATM   19  C   UNL     1     -10.140  15.143  65.899  1.00  0.00    -0.349 C  
HETATM   20  C   UNL     1     -11.052  15.413  64.708  1.00  0.00    -0.416 C  
HETATM   21  C   UNL     1     -12.432  14.824  64.939  1.00  0.00    -0.189 C  
HETATM   22  C   UNL     1     -12.339  13.333  65.157  1.00  0.00    -0.466 C  
HETATM   23  O   UNL     1     -13.209  12.566  64.757  1.00  0.00    -0.839 OA 
ENDBRANCH  12  13
ENDBRANCH  11  12
ENDBRANCH   8  11
ENDBRANCH   7   8
ENDBRANCH   5   7
TORSDOF 5
ENDMDL
MODEL       99
REMARK 921   NORMALIZED FREE ENERGY PREDICTED BY IDOCK:   -4.90 KCAL/MOL
REMARK 922        TOTAL FREE ENERGY PREDICTED BY IDOCK:   -7.07 KCAL/MOL
REMARK 923 INTER-LIGAND FREE ENERGY PREDICTED BY IDOCK:   -6.63 KCAL/MOL
REMARK 924 INTRA-LIGAND FREE ENERGY PREDICTED BY IDOCK:   -0.44 KCAL/MOL
REMARK 927      BINDING AFFINITY PREDICTED BY RF-SCORE:    0.00 PKD
ROOT
HETATM    1  C   UNL     1     -13.159   9.876  72.113  1.00  0.00    -0.497 C  
HETATM    2  C   UNL     1     -12.580   8.522  71.667  1.00  0.00    -0.333 C  
HETATM    3  C   UNL     1     -13.761   7.577  71.362  1.00  0.00    -0.414 C  
HETATM    4  C   UNL     1     -11.746   7.900  72.797  1.00  0.00    -0.338 C  
HETATM    5  N   UNL     1     -11.800   8.646  70.417  1.00  0.00    -0.475 NA 
HETATM    6  H   UNL     1     -12.407   8.938  69.651  1.00  0.00     0.000 HD 
ENDROOT
BRANCH   5   7
HETATM    7  C   UNL     1     -10.626   9.528  70.497  1.00  0.00    -0.297 C  
BRANCH   7   8
HETATM    8  C   UNL     1      -9.417   9.068  69.657  1.00  0.00    -0.171 C  
HETATM    9  O   UNL     1      -8.277   9.850  70.047  1.00  0.00    -0.175 OA 
HETATM   10  H   UNL     1      -7.533   9.567  69.529  1.00  0.00     0.000 HD 
BRANCH   8  11
HETATM   11  C   UNL     1      -9.656   9.250  68.155  1.00  0.00    -0.143 C  
BRANCH  11  12
HETATM   12  O   UNL     1      -9.166  10.541  67.761  1.00  0.00    -0.144 OA 
BRANCH  12  13
HETATM   13  C   UNL     1     -10.130  11.368  67.237  1.00  0.00    -0.192 A  
HETATM   14  C   UNL     1     -10.974  12.151  68.036  1.00  0.00    -0.271 A  
HETATM   15  C   UNL     1     -11.976  12.927  67.460  1.00  0.00    -0.354 A  
HETATM   16  C   UNL     1     -12.111  12.957  66.075  1.00  0.00    -0.484 A  
HETATM   17  C   UNL     1     -11.231  12.227  65.268  1.00  0.00    -0.372 A  
HETATM   18  C   UNL     1     -10.234  11.413  65.837  1.00  0.00    -0.292 A  
HETATM   19  C   UNL     1      -9.269  10.638  64.969  1.00  0.00    -0.245 C  
HETATM   20  C   UNL     1      -9.792  10.429  63.553  1.00  0.00    -0.268 C  
HETATM   21  C   UNL     1     -10.260  11.740  62.950  1.00  0.00    -0.071 C  
HETATM   22  C   UNL     1     -11.357  12.346  63.792  1.00  0.00    -0.464 C  
HETATM   23  O   UNL     1     -12.285  12.973  63.291  1.00  0.00    -0.631 OA 
ENDBRANCH  12  13
ENDBRANCH  11  12
ENDBRANCH   8  11
ENDBRANCH   7   8
ENDBRANCH   5   7
TORSDOF 5
ENDMDL
MODEL      100
REMARK 921   NORMALIZED FREE ENERGY PREDICTED BY IDOCK:   -4.89 KCAL/MOL
REMARK 922        TOTAL FREE ENERGY PREDICTED BY IDOCK:   -7.06 KCAL/MOL
REMARK 923 INTER-LIGAND FREE ENERGY PREDICTED BY IDOCK:   -6.35 KCAL/MOL
REMARK 924 INTRA-LIGAND FREE ENERGY PREDICTED BY IDOCK:   -0.71 KCAL/MOL
REMARK 927      BINDING AFFINITY PREDICTED BY RF-SCORE:    0.00 PKD
ROOT
HETATM    1  C   UNL     1      -9.820   3.998  65.140  1.00  0.00    -0.203 C  
HETATM    2  C   UNL     1      -8.937   5.142  65.670  1.00  0.00    -0.154 C  
HETATM    3  C   UNL     1      -7.965   5.552  64.545  1.00  0.00    -0.119 C  
HETATM    4  C   UNL     1      -8.108   4.664  66.871  1.00  0.00    -0.103 C  
HETATM    5  N   UNL     1      -9.736   6.341  66.001  1.00  0.00    -0.385 NA 
HETATM    6  H   UNL     1     -10.175   6.715  65.159  1.00  0.00     0.000 HD 
ENDROOT
BRANCH   5   7
HETATM    7  C   UNL     1     -10.745   6.150  67.055  1.00  0.00    -0.350 C  
BRANCH   7   8
HETATM    8  C   UNL     1     -10.399   6.814  68.404  1.00  0.00    -0.191 C  
HETATM    9  O   UNL     1     -11.607   6.919  69.173  1.00  0.00    -0.558 OA 
HETATM   10  H   UNL     1     -11.394   7.328  70.004  1.00  0.00     0.000 HD 
BRANCH   8  11
HETATM   11  C   UNL     1      -9.800   8.211  68.222  1.00  0.00    -0.171 C  
BRANCH  11  12
HETATM   12  O   UNL     1     -10.443   8.849  67.107  1.00  0.00    -0.275 OA 
BRANCH  12  13
HETATM   13  C   UNL     1     -10.884  10.123  67.371  1.00  0.00    -0.261 A  
HETATM   14  C   UNL     1     -11.328  10.524  68.639  1.00  0.00    -0.315 A  
HETATM   15  C   UNL     1     -11.823  11.810  68.841  1.00  0.00    -0.381 A  
HETATM   16  C   UNL     1     -11.836  12.716  67.785  1.00  0.00    -0.381 A  
HETATM   17  C   UNL     1     -11.335  12.342  66.533  1.00  0.00    -0.403 A  
HETATM   18  C   UNL     1     -10.861  11.037  66.304  1.00  0.00    -0.234 A  
HETATM   19  C   UNL     1     -10.302  10.633  64.960  1.00  0.00    -0.341 C  
HETATM   20  C   UNL     1     -10.765  11.549  63.832  1.00  0.00    -0.458 C  
HETATM   21  C   UNL     1     -10.540  13.006  64.192  1.00  0.00    -0.421 C  
HETATM   22  C   UNL     1     -11.292  13.360  65.452  1.00  0.00    -0.291 C  
HETATM   23  O   UNL     1     -11.794  14.468  65.615  1.00  0.00    -0.356 OA 
ENDBRANCH  12  13
ENDBRANCH  11  12
ENDBRANCH   8  11
ENDBRANCH   7   8
ENDBRANCH   5   7
TORSDOF 5
ENDMDL
MODEL      101
REMARK 921   NORMALIZED FREE ENERGY PREDICTED BY IDOCK:   -4.89 KCAL/MOL
REMARK 922        TOTAL FREE ENERGY PREDICTED BY IDOCK:   -7.05 KCAL/MOL
REMARK 923 INTER-LIGAND FREE ENERGY PREDICTED BY IDOCK:   -6.35 KCAL/MOL
REMARK 924 INTRA-LIGAND FREE ENERGY PREDICTED BY IDOCK:   -0.70 KCAL/MOL
REMARK 927      BINDING AFFINITY PREDICTED BY RF-SCORE:    0.00 PKD
ROOT
HETATM    1  C   UNL     1      -9.200   8.205  69.650  1.00  0.00    -0.155 C  
HETATM    2  C   UNL     1      -9.927   9.551  69.819  1.00  0.00    -0.213 C  
HETATM    3  C   UNL     1     -10.600   9.556  71.208  1.00  0.00    -0.358 C  
HETATM    4  C   UNL     1     -11.022   9.704  68.753  1.00  0.00    -0.153 C  
HETATM    5  N   UNL     1      -8.983  10.689  69.799  1.00  0.00    -0.353 NA 
HETATM    6  H   UNL     1      -8.346  10.631  70.594  1.00  0.00     0.000 HD 
ENDROOT
BRANCH   5   7
HETATM    7  C   UNL     1      -8.221  10.847  68.551  1.00  0.00    -0.140 C  
BRANCH   7   8
HETATM    8  C   UNL     1      -7.041  11.837  68.639  1.00  0.00    -0.101 C  
HETATM    9  O   UNL     1      -6.850  12.185  70.019  1.00  0.00    -0.347 OA 
HETATM   10  H   UNL     1      -6.124  12.795  70.072  1.00  0.00     0.000 HD 
BRANCH   8  11
HETATM   11  C   UNL     1      -7.300  13.115  67.834  1.00  0.00    -0.131 C  
BRANCH  11  12
HETATM   12  O   UNL     1      -8.709  13.393  67.848  1.00  0.00    -0.166 OA 
BRANCH  12  13
HETATM   13  C   UNL     1      -9.075  14.456  67.058  1.00  0.00    -0.236 A  
HETATM   14  C   UNL     1      -8.391  15.680  67.069  1.00  0.00    -0.261 A  
HETATM   15  C   UNL     1      -8.837  16.747  66.294  1.00  0.00    -0.334 A  
HETATM   16  C   UNL     1      -9.948  16.583  65.471  1.00  0.00    -0.137 A  
HETATM   17  C   UNL     1     -10.598  15.345  65.409  1.00  0.00    -0.430 A  
HETATM   18  C   UNL     1     -10.177  14.266  66.209  1.00  0.00    -0.307 A  
HETATM   19  C   UNL     1     -10.863  12.922  66.130  1.00  0.00    -0.300 C  
HETATM   20  C   UNL     1     -12.268  13.013  65.545  1.00  0.00    -0.521 C  
HETATM   21  C   UNL     1     -12.261  13.789  64.240  1.00  0.00    -0.444 C  
HETATM   22  C   UNL     1     -11.730  15.185  64.460  1.00  0.00    -0.328 C  
HETATM   23  O   UNL     1     -12.163  16.147  63.834  1.00  0.00    -0.935 OA 
ENDBRANCH  12  13
ENDBRANCH  11  12
ENDBRANCH   8  11
ENDBRANCH   7   8
ENDBRANCH   5   7
TORSDOF 5
ENDMDL
MODEL      102
REMARK 921   NORMALIZED FREE ENERGY PREDICTED BY IDOCK:   -4.89 KCAL/MOL
REMARK 922        TOTAL FREE ENERGY PREDICTED BY IDOCK:   -7.04 KCAL/MOL
REMARK 923 INTER-LIGAND FREE ENERGY PREDICTED BY IDOCK:   -6.34 KCAL/MOL
REMARK 924 INTRA-LIGAND FREE ENERGY PREDICTED BY IDOCK:   -0.70 KCAL/MOL
REMARK 927      BINDING AFFINITY PREDICTED BY RF-SCORE:    0.00 PKD
ROOT
HETATM    1  C   UNL     1      -5.610  19.146  67.130  1.00  0.00    -0.167 C  
HETATM    2  C   UNL     1      -6.683  19.804  68.016  1.00  0.00    -0.254 C  
HETATM    3  C   UNL     1      -5.982  20.839  68.922  1.00  0.00    -0.356 C  
HETATM    4  C   UNL     1      -7.352  18.754  68.915  1.00  0.00    -0.325 C  
HETATM    5  N   UNL     1      -7.677  20.547  67.211  1.00  0.00    -0.330 NA 
HETATM    6  H   UNL     1      -7.226  21.321  66.723  1.00  0.00     0.000 HD 
ENDROOT
BRANCH   5   7
HETATM    7  C   UNL     1      -8.448  19.731  66.262  1.00  0.00    -0.361 C  
BRANCH   7   8
HETATM    8  C   UNL     1      -9.978  19.796  66.452  1.00  0.00    -0.470 C  
HETATM    9  O   UNL     1     -10.245  20.393  67.731  1.00  0.00    -0.358 OA 
HETATM   10  H   UNL     1     -11.187  20.433  67.848  1.00  0.00     0.000 HD 
BRANCH   8  11
HETATM   11  C   UNL     1     -10.624  18.409  66.405  1.00  0.00    -0.309 C  
BRANCH  11  12
HETATM   12  O   UNL     1      -9.914  17.599  65.455  1.00  0.00    -0.533 OA 
BRANCH  12  13
HETATM   13  C   UNL     1     -10.205  16.258  65.537  1.00  0.00    -0.298 A  
HETATM   14  C   UNL     1     -11.311  15.682  64.898  1.00  0.00    -0.319 A  
HETATM   15  C   UNL     1     -11.597  14.329  65.060  1.00  0.00    -0.367 A  
HETATM   16  C   UNL     1     -10.752  13.535  65.829  1.00  0.00    -0.278 A  
HETATM   17  C   UNL     1      -9.610  14.091  66.417  1.00  0.00    -0.299 A  
HETATM   18  C   UNL     1      -9.325  15.462  66.288  1.00  0.00    -0.351 A  
HETATM   19  C   UNL     1      -8.083  16.063  66.906  1.00  0.00    -0.282 C  
HETATM   20  C   UNL     1      -7.514  15.207  68.031  1.00  0.00    -0.128 C  
HETATM   21  C   UNL     1      -7.357  13.765  67.588  1.00  0.00    -0.182 C  
HETATM   22  C   UNL     1      -8.689  13.195  67.164  1.00  0.00    -0.213 C  
HETATM   23  O   UNL     1      -8.983  12.020  67.364  1.00  0.00    -0.165 OA 
ENDBRANCH  12  13
ENDBRANCH  11  12
ENDBRANCH   8  11
ENDBRANCH   7   8
ENDBRANCH   5   7
TORSDOF 5
ENDMDL
MODEL      103
REMARK 921   NORMALIZED FREE ENERGY PREDICTED BY IDOCK:   -4.88 KCAL/MOL
REMARK 922        TOTAL FREE ENERGY PREDICTED BY IDOCK:   -7.04 KCAL/MOL
REMARK 923 INTER-LIGAND FREE ENERGY PREDICTED BY IDOCK:   -6.01 KCAL/MOL
REMARK 924 INTRA-LIGAND FREE ENERGY PREDICTED BY IDOCK:   -1.02 KCAL/MOL
REMARK 927      BINDING AFFINITY PREDICTED BY RF-SCORE:    0.00 PKD
ROOT
HETATM    1  C   UNL     1      -9.259   2.884  69.873  1.00  0.00    -0.216 C  
HETATM    2  C   UNL     1      -9.417   4.373  69.515  1.00  0.00    -0.181 C  
HETATM    3  C   UNL     1      -9.869   4.462  68.042  1.00  0.00    -0.135 C  
HETATM    4  C   UNL     1      -8.072   5.100  69.650  1.00  0.00    -0.089 C  
HETATM    5  N   UNL     1     -10.473   5.021  70.324  1.00  0.00    -0.232 NA 
HETATM    6  H   UNL     1     -11.380   4.603  70.119  1.00  0.00     0.000 HD 
ENDROOT
BRANCH   5   7
HETATM    7  C   UNL     1     -10.234   5.026  71.775  1.00  0.00    -0.207 C  
BRANCH   7   8
HETATM    8  C   UNL     1     -11.198   5.919  72.582  1.00  0.00    -0.291 C  
HETATM    9  O   UNL     1     -12.235   5.084  73.122  1.00  0.00    -0.445 OA 
HETATM   10  H   UNL     1     -12.828   5.635  73.620  1.00  0.00     0.000 HD 
BRANCH   8  11
HETATM   11  C   UNL     1     -11.836   7.009  71.716  1.00  0.00    -0.312 C  
BRANCH  11  12
HETATM   12  O   UNL     1     -10.794   7.802  71.128  1.00  0.00    -0.230 OA 
BRANCH  12  13
HETATM   13  C   UNL     1     -11.230   8.992  70.596  1.00  0.00    -0.270 A  
HETATM   14  C   UNL     1     -11.917   9.953  71.351  1.00  0.00    -0.489 A  
HETATM   15  C   UNL     1     -12.392  11.117  70.751  1.00  0.00    -0.504 A  
HETATM   16  C   UNL     1     -12.145  11.345  69.401  1.00  0.00    -0.358 A  
HETATM   17  C   UNL     1     -11.405  10.419  68.656  1.00  0.00    -0.277 A  
HETATM   18  C   UNL     1     -10.945   9.224  69.240  1.00  0.00    -0.105 A  
HETATM   19  C   UNL     1     -10.130   8.230  68.446  1.00  0.00    -0.227 C  
HETATM   20  C   UNL     1     -10.307   8.395  66.941  1.00  0.00    -0.378 C  
HETATM   21  C   UNL     1     -10.106   9.841  66.528  1.00  0.00    -0.307 C  
HETATM   22  C   UNL     1     -11.093  10.735  67.239  1.00  0.00    -0.270 C  
HETATM   23  O   UNL     1     -11.575  11.725  66.697  1.00  0.00    -0.490 OA 
ENDBRANCH  12  13
ENDBRANCH  11  12
ENDBRANCH   8  11
ENDBRANCH   7   8
ENDBRANCH   5   7
TORSDOF 5
ENDMDL
MODEL      104
REMARK 921   NORMALIZED FREE ENERGY PREDICTED BY IDOCK:   -4.88 KCAL/MOL
REMARK 922        TOTAL FREE ENERGY PREDICTED BY IDOCK:   -7.04 KCAL/MOL
REMARK 923 INTER-LIGAND FREE ENERGY PREDICTED BY IDOCK:   -6.13 KCAL/MOL
REMARK 924 INTRA-LIGAND FREE ENERGY PREDICTED BY IDOCK:   -0.91 KCAL/MOL
REMARK 927      BINDING AFFINITY PREDICTED BY RF-SCORE:    0.00 PKD
ROOT
HETATM    1  C   UNL     1     -11.567  13.704  68.287  1.00  0.00    -0.374 C  
HETATM    2  C   UNL     1     -10.943  12.321  68.545  1.00  0.00    -0.240 C  
HETATM    3  C   UNL     1      -9.446  12.399  68.176  1.00  0.00    -0.214 C  
HETATM    4  C   UNL     1     -11.603  11.261  67.651  1.00  0.00    -0.290 C  
HETATM    5  N   UNL     1     -11.010  11.948  69.975  1.00  0.00    -0.314 NA 
HETATM    6  H   UNL     1     -10.456  12.597  70.534  1.00  0.00     0.000 HD 
ENDROOT
BRANCH   5   7
HETATM    7  C   UNL     1     -12.368  11.837  70.528  1.00  0.00    -0.299 C  
BRANCH   7   8
HETATM    8  C   UNL     1     -12.721  10.444  71.092  1.00  0.00    -0.415 C  
HETATM    9  O   UNL     1     -13.411  10.628  72.338  1.00  0.00    -0.612 OA 
HETATM   10  H   UNL     1     -13.627   9.770  72.684  1.00  0.00     0.000 HD 
BRANCH   8  11
HETATM   11  C   UNL     1     -11.474   9.588  71.333  1.00  0.00    -0.392 C  
BRANCH  11  12
HETATM   12  O   UNL     1     -11.086   8.975  70.093  1.00  0.00    -0.239 OA 
BRANCH  12  13
HETATM   13  C   UNL     1     -10.848   7.625  70.189  1.00  0.00    -0.248 A  
HETATM   14  C   UNL     1     -10.954   6.920  71.396  1.00  0.00    -0.270 A  
HETATM   15  C   UNL     1     -10.645   5.564  71.452  1.00  0.00    -0.310 A  
HETATM   16  C   UNL     1     -10.267   4.895  70.291  1.00  0.00    -0.299 A  
HETATM   17  C   UNL     1     -10.221   5.579  69.071  1.00  0.00    -0.298 A  
HETATM   18  C   UNL     1     -10.501   6.956  69.003  1.00  0.00    -0.223 A  
HETATM   19  C   UNL     1     -10.470   7.695  67.686  1.00  0.00    -0.313 C  
HETATM   20  C   UNL     1      -9.652   6.969  66.624  1.00  0.00    -0.220 C  
HETATM   21  C   UNL     1     -10.074   5.515  66.517  1.00  0.00    -0.241 C  
HETATM   22  C   UNL     1      -9.891   4.814  67.841  1.00  0.00    -0.134 C  
HETATM   23  O   UNL     1      -9.549   3.638  67.908  1.00  0.00    -0.184 OA 
ENDBRANCH  12  13
ENDBRANCH  11  12
ENDBRANCH   8  11
ENDBRANCH   7   8
ENDBRANCH   5   7
TORSDOF 5
ENDMDL
MODEL      105
REMARK 921   NORMALIZED FREE ENERGY PREDICTED BY IDOCK:   -4.87 KCAL/MOL
REMARK 922        TOTAL FREE ENERGY PREDICTED BY IDOCK:   -7.03 KCAL/MOL
REMARK 923 INTER-LIGAND FREE ENERGY PREDICTED BY IDOCK:   -6.45 KCAL/MOL
REMARK 924 INTRA-LIGAND FREE ENERGY PREDICTED BY IDOCK:   -0.58 KCAL/MOL
REMARK 927      BINDING AFFINITY PREDICTED BY RF-SCORE:    0.00 PKD
ROOT
HETATM    1  C   UNL     1      -7.623  11.852  68.728  1.00  0.00    -0.090 C  
HETATM    2  C   UNL     1      -7.170  12.515  67.415  1.00  0.00    -0.146 C  
HETATM    3  C   UNL     1      -6.390  11.465  66.596  1.00  0.00    -0.127 C  
HETATM    4  C   UNL     1      -6.228  13.693  67.708  1.00  0.00    -0.159 C  
HETATM    5  N   UNL     1      -8.323  12.931  66.586  1.00  0.00    -0.418 NA 
HETATM    6  H   UNL     1      -8.861  12.115  66.297  1.00  0.00     0.000 HD 
ENDROOT
BRANCH   5   7
HETATM    7  C   UNL     1      -9.209  13.929  67.203  1.00  0.00    -0.239 C  
BRANCH   7   8
HETATM    8  C   UNL     1     -10.699  13.787  66.827  1.00  0.00    -0.276 C  
HETATM    9  O   UNL     1     -10.933  14.549  65.632  1.00  0.00    -0.303 OA 
HETATM   10  H   UNL     1     -11.850  14.461  65.401  1.00  0.00     0.000 HD 
BRANCH   8  11
HETATM   11  C   UNL     1     -11.624  14.299  67.935  1.00  0.00    -0.336 C  
BRANCH  11  12
HETATM   12  O   UNL     1     -10.999  14.063  69.206  1.00  0.00    -0.250 OA 
BRANCH  12  13
HETATM   13  C   UNL     1     -11.862  13.613  70.177  1.00  0.00    -0.281 A  
HETATM   14  C   UNL     1     -12.676  14.474  70.926  1.00  0.00    -0.411 A  
HETATM   15  C   UNL     1     -13.490  13.975  71.939  1.00  0.00    -0.506 A  
HETATM   16  C   UNL     1     -13.525  12.605  72.181  1.00  0.00    -0.561 A  
HETATM   17  C   UNL     1     -12.763  11.733  71.394  1.00  0.00    -0.413 A  
HETATM   18  C   UNL     1     -11.913  12.225  70.387  1.00  0.00    -0.349 A  
HETATM   19  C   UNL     1     -11.102  11.287  69.523  1.00  0.00    -0.299 C  
HETATM   20  C   UNL     1     -10.914   9.916  70.161  1.00  0.00    -0.356 C  
HETATM   21  C   UNL     1     -12.242   9.348  70.625  1.00  0.00    -0.147 C  
HETATM   22  C   UNL     1     -12.889  10.272  71.630  1.00  0.00    -0.463 C  
HETATM   23  O   UNL     1     -13.551   9.843  72.569  1.00  0.00    -0.317 OA 
ENDBRANCH  12  13
ENDBRANCH  11  12
ENDBRANCH   8  11
ENDBRANCH   7   8
ENDBRANCH   5   7
TORSDOF 5
ENDMDL
MODEL      106
REMARK 921   NORMALIZED FREE ENERGY PREDICTED BY IDOCK:   -4.85 KCAL/MOL
REMARK 922        TOTAL FREE ENERGY PREDICTED BY IDOCK:   -7.00 KCAL/MOL
REMARK 923 INTER-LIGAND FREE ENERGY PREDICTED BY IDOCK:   -6.44 KCAL/MOL
REMARK 924 INTRA-LIGAND FREE ENERGY PREDICTED BY IDOCK:   -0.56 KCAL/MOL
REMARK 927      BINDING AFFINITY PREDICTED BY RF-SCORE:    0.00 PKD
ROOT
HETATM    1  C   UNL     1      -7.830  17.015  67.003  1.00  0.00    -0.223 C  
HETATM    2  C   UNL     1      -8.705  18.280  67.058  1.00  0.00    -0.263 C  
HETATM    3  C   UNL     1      -7.809  19.492  66.725  1.00  0.00    -0.291 C  
HETATM    4  C   UNL     1      -9.271  18.476  68.472  1.00  0.00    -0.360 C  
HETATM    5  N   UNL     1      -9.777  18.250  66.040  1.00  0.00    -0.525 NA 
HETATM    6  H   UNL     1      -9.372  18.250  65.104  1.00  0.00     0.000 HD 
ENDROOT
BRANCH   5   7
HETATM    7  C   UNL     1     -10.737  17.144  66.176  1.00  0.00    -0.094 C  
BRANCH   7   8
HETATM    8  C   UNL     1     -10.626  16.057  65.087  1.00  0.00    -0.370 C  
HETATM    9  O   UNL     1     -11.562  16.371  64.044  1.00  0.00    -1.447 OA 
HETATM   10  H   UNL     1     -11.493  15.701  63.374  1.00  0.00     0.000 HD 
BRANCH   8  11
HETATM   11  C   UNL     1     -10.937  14.661  65.633  1.00  0.00    -0.335 C  
BRANCH  11  12
HETATM   12  O   UNL     1     -10.111  14.418  66.782  1.00  0.00    -0.257 OA 
BRANCH  12  13
HETATM   13  C   UNL     1     -10.381  13.233  67.424  1.00  0.00    -0.243 A  
HETATM   14  C   UNL     1     -11.679  12.716  67.546  1.00  0.00    -0.429 A  
HETATM   15  C   UNL     1     -11.908  11.542  68.258  1.00  0.00    -0.327 A  
HETATM   16  C   UNL     1     -10.834  10.855  68.816  1.00  0.00    -0.251 A  
HETATM   17  C   UNL     1      -9.530  11.332  68.643  1.00  0.00    -0.179 A  
HETATM   18  C   UNL     1      -9.285  12.533  67.954  1.00  0.00    -0.200 A  
HETATM   19  C   UNL     1      -7.877  13.043  67.748  1.00  0.00    -0.157 C  
HETATM   20  C   UNL     1      -6.887  12.450  68.744  1.00  0.00    -0.092 C  
HETATM   21  C   UNL     1      -7.005  10.937  68.788  1.00  0.00    -0.078 C  
HETATM   22  C   UNL     1      -8.403  10.529  69.185  1.00  0.00    -0.151 C  
HETATM   23  O   UNL     1      -8.616   9.535  69.872  1.00  0.00    -0.165 OA 
ENDBRANCH  12  13
ENDBRANCH  11  12
ENDBRANCH   8  11
ENDBRANCH   7   8
ENDBRANCH   5   7
TORSDOF 5
ENDMDL
MODEL      107
REMARK 921   NORMALIZED FREE ENERGY PREDICTED BY IDOCK:   -4.83 KCAL/MOL
REMARK 922        TOTAL FREE ENERGY PREDICTED BY IDOCK:   -6.98 KCAL/MOL
REMARK 923 INTER-LIGAND FREE ENERGY PREDICTED BY IDOCK:   -6.57 KCAL/MOL
REMARK 924 INTRA-LIGAND FREE ENERGY PREDICTED BY IDOCK:   -0.41 KCAL/MOL
REMARK 927      BINDING AFFINITY PREDICTED BY RF-SCORE:    0.00 PKD
ROOT
HETATM    1  C   UNL     1      -8.574   6.782  68.218  1.00  0.00    -0.124 C  
HETATM    2  C   UNL     1      -9.470   6.930  66.975  1.00  0.00    -0.151 C  
HETATM    3  C   UNL     1     -10.727   6.062  67.189  1.00  0.00    -0.409 C  
HETATM    4  C   UNL     1      -8.738   6.416  65.726  1.00  0.00    -0.135 C  
HETATM    5  N   UNL     1      -9.938   8.322  66.801  1.00  0.00    -0.261 NA 
HETATM    6  H   UNL     1     -10.528   8.595  67.585  1.00  0.00     0.000 HD 
ENDROOT
BRANCH   5   7
HETATM    7  C   UNL     1      -8.875   9.318  66.596  1.00  0.00    -0.128 C  
BRANCH   7   8
HETATM    8  C   UNL     1      -9.316  10.781  66.805  1.00  0.00    -0.161 C  
HETATM    9  O   UNL     1      -8.271  11.637  66.317  1.00  0.00    -0.336 OA 
HETATM   10  H   UNL     1      -8.543  12.539  66.446  1.00  0.00     0.000 HD 
BRANCH   8  11
HETATM   11  C   UNL     1      -9.573  11.101  68.281  1.00  0.00    -0.185 C  
BRANCH  11  12
HETATM   12  O   UNL     1     -10.701  11.985  68.374  1.00  0.00    -0.211 OA 
BRANCH  12  13
HETATM   13  C   UNL     1     -11.416  11.857  69.540  1.00  0.00    -0.288 A  
HETATM   14  C   UNL     1     -11.625  10.622  70.170  1.00  0.00    -0.414 A  
HETATM   15  C   UNL     1     -12.407  10.537  71.318  1.00  0.00    -0.502 A  
HETATM   16  C   UNL     1     -12.952  11.694  71.867  1.00  0.00    -0.442 A  
HETATM   17  C   UNL     1     -12.694  12.938  71.279  1.00  0.00    -0.371 A  
HETATM   18  C   UNL     1     -11.932  13.037  70.101  1.00  0.00    -0.374 A  
HETATM   19  C   UNL     1     -11.635  14.379  69.474  1.00  0.00    -0.352 C  
HETATM   20  C   UNL     1     -12.615  15.462  69.912  1.00  0.00    -0.203 C  
HETATM   21  C   UNL     1     -12.745  15.493  71.424  1.00  0.00    -0.517 C  
HETATM   22  C   UNL     1     -13.226  14.158  71.940  1.00  0.00    -0.387 C  
HETATM   23  O   UNL     1     -13.974  14.071  72.908  1.00  0.00    -0.617 OA 
ENDBRANCH  12  13
ENDBRANCH  11  12
ENDBRANCH   8  11
ENDBRANCH   7   8
ENDBRANCH   5   7
TORSDOF 5
ENDMDL
MODEL      108
REMARK 921   NORMALIZED FREE ENERGY PREDICTED BY IDOCK:   -4.83 KCAL/MOL
REMARK 922        TOTAL FREE ENERGY PREDICTED BY IDOCK:   -6.97 KCAL/MOL
REMARK 923 INTER-LIGAND FREE ENERGY PREDICTED BY IDOCK:   -5.93 KCAL/MOL
REMARK 924 INTRA-LIGAND FREE ENERGY PREDICTED BY IDOCK:   -1.05 KCAL/MOL
REMARK 927      BINDING AFFINITY PREDICTED BY RF-SCORE:    0.00 PKD
ROOT
HETATM    1  C   UNL     1      -8.499  15.556  66.660  1.00  0.00    -0.314 C  
HETATM    2  C   UNL     1      -7.660  15.676  67.945  1.00  0.00    -0.131 C  
HETATM    3  C   UNL     1      -6.519  16.679  67.675  1.00  0.00    -0.174 C  
HETATM    4  C   UNL     1      -7.033  14.320  68.302  1.00  0.00    -0.108 C  
HETATM    5  N   UNL     1      -8.453  16.223  69.067  1.00  0.00    -0.249 NA 
HETATM    6  H   UNL     1      -8.750  17.176  68.856  1.00  0.00     0.000 HD 
ENDROOT
BRANCH   5   7
HETATM    7  C   UNL     1      -9.610  15.411  69.470  1.00  0.00    -0.257 C  
BRANCH   7   8
HETATM    8  C   UNL     1     -10.969  16.136  69.381  1.00  0.00    -0.333 C  
HETATM    9  O   UNL     1     -11.407  16.430  70.716  1.00  0.00    -0.489 OA 
HETATM   10  H   UNL     1     -12.244  16.877  70.661  1.00  0.00     0.000 HD 
BRANCH   8  11
HETATM   11  C   UNL     1     -12.032  15.284  68.683  1.00  0.00    -0.235 C  
BRANCH  11  12
HETATM   12  O   UNL     1     -11.524  13.950  68.521  1.00  0.00    -0.271 OA 
BRANCH  12  13
HETATM   13  C   UNL     1     -11.601  13.476  67.233  1.00  0.00    -0.362 A  
HETATM   14  C   UNL     1     -12.502  13.988  66.289  1.00  0.00    -0.439 A  
HETATM   15  C   UNL     1     -12.582  13.433  65.015  1.00  0.00    -0.459 A  
HETATM   16  C   UNL     1     -11.731  12.390  64.664  1.00  0.00    -0.426 A  
HETATM   17  C   UNL     1     -10.785  11.917  65.580  1.00  0.00    -0.325 A  
HETATM   18  C   UNL     1     -10.713  12.446  66.882  1.00  0.00    -0.269 A  
HETATM   19  C   UNL     1      -9.681  11.953  67.870  1.00  0.00    -0.192 C  
HETATM   20  C   UNL     1      -9.137  10.574  67.511  1.00  0.00    -0.144 C  
HETATM   21  C   UNL     1      -8.688  10.530  66.062  1.00  0.00    -0.174 C  
HETATM   22  C   UNL     1      -9.840  10.858  65.143  1.00  0.00    -0.275 C  
HETATM   23  O   UNL     1      -9.963  10.324  64.045  1.00  0.00    -0.299 OA 
ENDBRANCH  12  13
ENDBRANCH  11  12
ENDBRANCH   8  11
ENDBRANCH   7   8
ENDBRANCH   5   7
TORSDOF 5
ENDMDL
MODEL      109
REMARK 921   NORMALIZED FREE ENERGY PREDICTED BY IDOCK:   -4.82 KCAL/MOL
REMARK 922        TOTAL FREE ENERGY PREDICTED BY IDOCK:   -6.96 KCAL/MOL
REMARK 923 INTER-LIGAND FREE ENERGY PREDICTED BY IDOCK:   -6.58 KCAL/MOL
REMARK 924 INTRA-LIGAND FREE ENERGY PREDICTED BY IDOCK:   -0.39 KCAL/MOL
REMARK 927      BINDING AFFINITY PREDICTED BY RF-SCORE:    0.00 PKD
ROOT
HETATM    1  C   UNL     1     -10.077   5.019  66.807  1.00  0.00    -0.270 C  
HETATM    2  C   UNL     1      -8.838   5.533  66.052  1.00  0.00    -0.147 C  
HETATM    3  C   UNL     1      -8.588   4.592  64.854  1.00  0.00    -0.140 C  
HETATM    4  C   UNL     1      -7.602   5.492  66.962  1.00  0.00    -0.092 C  
HETATM    5  N   UNL     1      -9.060   6.884  65.493  1.00  0.00    -0.368 NA 
HETATM    6  H   UNL     1      -9.803   6.859  64.795  1.00  0.00     0.000 HD 
ENDROOT
BRANCH   5   7
HETATM    7  C   UNL     1      -9.335   7.934  66.486  1.00  0.00    -0.200 C  
BRANCH   7   8
HETATM    8  C   UNL     1      -8.489   9.214  66.319  1.00  0.00    -0.124 C  
HETATM    9  O   UNL     1      -8.376   9.845  67.604  1.00  0.00    -0.114 OA 
HETATM   10  H   UNL     1      -7.856  10.633  67.501  1.00  0.00     0.000 HD 
BRANCH   8  11
HETATM   11  C   UNL     1      -9.123  10.199  65.333  1.00  0.00    -0.188 C  
BRANCH  11  12
HETATM   12  O   UNL     1      -9.951  11.118  66.064  1.00  0.00    -0.218 OA 
BRANCH  12  13
HETATM   13  C   UNL     1     -10.680  11.968  65.267  1.00  0.00    -0.288 A  
HETATM   14  C   UNL     1     -11.585  11.510  64.300  1.00  0.00    -0.219 A  
HETATM   15  C   UNL     1     -12.255  12.410  63.476  1.00  0.00    -0.661 A  
HETATM   16  C   UNL     1     -12.055  13.777  63.644  1.00  0.00    -0.330 A  
HETATM   17  C   UNL     1     -11.201  14.243  64.651  1.00  0.00    -0.370 A  
HETATM   18  C   UNL     1     -10.492  13.345  65.470  1.00  0.00    -0.297 A  
HETATM   19  C   UNL     1      -9.584  13.842  66.571  1.00  0.00    -0.299 C  
HETATM   20  C   UNL     1      -9.143  15.286  66.360  1.00  0.00    -0.347 C  
HETATM   21  C   UNL     1     -10.336  16.181  66.081  1.00  0.00    -0.350 C  
HETATM   22  C   UNL     1     -11.074  15.709  64.851  1.00  0.00    -0.402 C  
HETATM   23  O   UNL     1     -11.610  16.496  64.078  1.00  0.00    -1.154 OA 
ENDBRANCH  12  13
ENDBRANCH  11  12
ENDBRANCH   8  11
ENDBRANCH   7   8
ENDBRANCH   5   7
TORSDOF 5
ENDMDL
MODEL      110
REMARK 921   NORMALIZED FREE ENERGY PREDICTED BY IDOCK:   -4.82 KCAL/MOL
REMARK 922        TOTAL FREE ENERGY PREDICTED BY IDOCK:   -6.95 KCAL/MOL
REMARK 923 INTER-LIGAND FREE ENERGY PREDICTED BY IDOCK:   -6.61 KCAL/MOL
REMARK 924 INTRA-LIGAND FREE ENERGY PREDICTED BY IDOCK:   -0.35 KCAL/MOL
REMARK 927      BINDING AFFINITY PREDICTED BY RF-SCORE:    0.00 PKD
ROOT
HETATM    1  C   UNL     1     -10.521   4.434  65.734  1.00  0.00    -0.211 C  
HETATM    2  C   UNL     1      -9.285   5.328  65.937  1.00  0.00    -0.159 C  
HETATM    3  C   UNL     1      -8.361   5.147  64.715  1.00  0.00    -0.143 C  
HETATM    4  C   UNL     1      -8.512   4.894  67.192  1.00  0.00    -0.105 C  
HETATM    5  N   UNL     1      -9.649   6.761  65.989  1.00  0.00    -0.396 NA 
HETATM    6  H   UNL     1     -10.044   7.055  65.095  1.00  0.00     0.000 HD 
ENDROOT
BRANCH   5   7
HETATM    7  C   UNL     1     -10.548   7.138  67.089  1.00  0.00    -0.347 C  
BRANCH   7   8
HETATM    8  C   UNL     1     -10.704   8.659  67.299  1.00  0.00    -0.139 C  
HETATM    9  O   UNL     1      -9.993   9.331  66.248  1.00  0.00    -0.269 OA 
HETATM   10  H   UNL     1     -10.089  10.268  66.379  1.00  0.00     0.000 HD 
BRANCH   8  11
HETATM   11  C   UNL     1     -10.145   9.114  68.650  1.00  0.00    -0.194 C  
BRANCH  11  12
HETATM   12  O   UNL     1     -10.622  10.440  68.927  1.00  0.00    -0.190 OA 
BRANCH  12  13
HETATM   13  C   UNL     1     -11.511  10.506  69.973  1.00  0.00    -0.316 A  
HETATM   14  C   UNL     1     -11.946   9.371  70.671  1.00  0.00    -0.232 A  
HETATM   15  C   UNL     1     -12.894   9.483  71.685  1.00  0.00    -0.483 A  
HETATM   16  C   UNL     1     -13.380  10.740  72.035  1.00  0.00    -0.403 A  
HETATM   17  C   UNL     1     -12.902  11.883  71.385  1.00  0.00    -0.411 A  
HETATM   18  C   UNL     1     -11.968  11.783  70.338  1.00  0.00    -0.422 A  
HETATM   19  C   UNL     1     -11.435  13.016  69.646  1.00  0.00    -0.253 C  
HETATM   20  C   UNL     1     -12.342  14.228  69.826  1.00  0.00    -0.342 C  
HETATM   21  C   UNL     1     -12.688  14.432  71.289  1.00  0.00    -0.414 C  
HETATM   22  C   UNL     1     -13.385  13.212  71.841  1.00  0.00    -0.455 C  
HETATM   23  O   UNL     1     -14.272  13.301  72.684  1.00  0.00    -0.724 OA 
ENDBRANCH  12  13
ENDBRANCH  11  12
ENDBRANCH   8  11
ENDBRANCH   7   8
ENDBRANCH   5   7
TORSDOF 5
ENDMDL
MODEL      111
REMARK 921   NORMALIZED FREE ENERGY PREDICTED BY IDOCK:   -4.80 KCAL/MOL
REMARK 922        TOTAL FREE ENERGY PREDICTED BY IDOCK:   -6.94 KCAL/MOL
REMARK 923 INTER-LIGAND FREE ENERGY PREDICTED BY IDOCK:   -6.55 KCAL/MOL
REMARK 924 INTRA-LIGAND FREE ENERGY PREDICTED BY IDOCK:   -0.39 KCAL/MOL
REMARK 927      BINDING AFFINITY PREDICTED BY RF-SCORE:    0.00 PKD
ROOT
HETATM    1  C   UNL     1      -8.946  16.351  68.535  1.00  0.00    -0.224 C  
HETATM    2  C   UNL     1      -9.066  16.608  67.023  1.00  0.00    -0.216 C  
HETATM    3  C   UNL     1      -7.642  16.781  66.455  1.00  0.00    -0.325 C  
HETATM    4  C   UNL     1      -9.849  17.903  66.761  1.00  0.00    -0.333 C  
HETATM    5  N   UNL     1      -9.668  15.454  66.318  1.00  0.00    -0.276 NA 
HETATM    6  H   UNL     1      -9.063  14.638  66.400  1.00  0.00     0.000 HD 
ENDROOT
BRANCH   5   7
HETATM    7  C   UNL     1     -11.037  15.113  66.733  1.00  0.00    -0.307 C  
BRANCH   7   8
HETATM    8  C   UNL     1     -11.299  13.603  66.908  1.00  0.00    -0.327 C  
HETATM    9  O   UNL     1     -12.387  13.235  66.046  1.00  0.00    -0.420 OA 
HETATM   10  H   UNL     1     -12.548  12.305  66.154  1.00  0.00     0.000 HD 
BRANCH   8  11
HETATM   11  C   UNL     1     -11.663  13.245  68.352  1.00  0.00    -0.354 C  
BRANCH  11  12
HETATM   12  O   UNL     1     -12.035  11.858  68.405  1.00  0.00    -0.408 OA 
BRANCH  12  13
HETATM   13  C   UNL     1     -11.142  11.067  69.087  1.00  0.00    -0.243 A  
HETATM   14  C   UNL     1      -9.783  10.994  68.750  1.00  0.00    -0.199 A  
HETATM   15  C   UNL     1      -8.930  10.131  69.434  1.00  0.00    -0.205 A  
HETATM   16  C   UNL     1      -9.424   9.367  70.487  1.00  0.00    -0.327 A  
HETATM   17  C   UNL     1     -10.766   9.482  70.869  1.00  0.00    -0.403 A  
HETATM   18  C   UNL     1     -11.647  10.326  70.168  1.00  0.00    -0.376 A  
HETATM   19  C   UNL     1     -13.091  10.469  70.588  1.00  0.00    -0.278 C  
HETATM   20  C   UNL     1     -13.574   9.298  71.437  1.00  0.00    -0.358 C  
HETATM   21  C   UNL     1     -12.614   9.026  72.580  1.00  0.00    -0.342 C  
HETATM   22  C   UNL     1     -11.236   8.711  72.048  1.00  0.00    -0.364 C  
HETATM   23  O   UNL     1     -10.500   7.899  72.600  1.00  0.00    -0.267 OA 
ENDBRANCH  12  13
ENDBRANCH  11  12
ENDBRANCH   8  11
ENDBRANCH   7   8
ENDBRANCH   5   7
TORSDOF 5
ENDMDL
MODEL      112
REMARK 921   NORMALIZED FREE ENERGY PREDICTED BY IDOCK:   -4.79 KCAL/MOL
REMARK 922        TOTAL FREE ENERGY PREDICTED BY IDOCK:   -6.93 KCAL/MOL
REMARK 923 INTER-LIGAND FREE ENERGY PREDICTED BY IDOCK:   -6.34 KCAL/MOL
REMARK 924 INTRA-LIGAND FREE ENERGY PREDICTED BY IDOCK:   -0.59 KCAL/MOL
REMARK 927      BINDING AFFINITY PREDICTED BY RF-SCORE:    0.00 PKD
ROOT
HETATM    1  C   UNL     1      -6.052  18.354  66.463  1.00  0.00    -0.192 C  
HETATM    2  C   UNL     1      -7.047  19.084  67.382  1.00  0.00    -0.212 C  
HETATM    3  C   UNL     1      -6.759  20.597  67.290  1.00  0.00    -0.350 C  
HETATM    4  C   UNL     1      -6.849  18.645  68.840  1.00  0.00    -0.304 C  
HETATM    5  N   UNL     1      -8.445  18.889  66.939  1.00  0.00    -0.277 NA 
HETATM    6  H   UNL     1      -8.583  19.305  66.018  1.00  0.00     0.000 HD 
ENDROOT
BRANCH   5   7
HETATM    7  C   UNL     1      -8.912  17.495  66.940  1.00  0.00    -0.251 C  
BRANCH   7   8
HETATM    8  C   UNL     1     -10.435  17.327  67.125  1.00  0.00    -0.297 C  
HETATM    9  O   UNL     1     -11.017  18.633  67.251  1.00  0.00    -0.387 OA 
HETATM   10  H   UNL     1     -11.955  18.529  67.365  1.00  0.00     0.000 HD 
BRANCH   8  11
HETATM   11  C   UNL     1     -10.777  16.507  68.373  1.00  0.00    -0.339 C  
BRANCH  11  12
HETATM   12  O   UNL     1     -11.489  15.326  67.970  1.00  0.00    -0.335 OA 
BRANCH  12  13
HETATM   13  C   UNL     1     -10.681  14.319  67.500  1.00  0.00    -0.270 A  
HETATM   14  C   UNL     1      -9.577  13.836  68.216  1.00  0.00    -0.219 A  
HETATM   15  C   UNL     1      -8.753  12.855  67.670  1.00  0.00    -0.185 A  
HETATM   16  C   UNL     1      -9.054  12.322  66.420  1.00  0.00    -0.158 A  
HETATM   17  C   UNL     1     -10.190  12.755  65.728  1.00  0.00    -0.302 A  
HETATM   18  C   UNL     1     -11.015  13.767  66.252  1.00  0.00    -0.297 A  
HETATM   19  C   UNL     1     -12.253  14.225  65.517  1.00  0.00    -0.408 C  
HETATM   20  C   UNL     1     -12.214  13.884  64.032  1.00  0.00    -0.413 C  
HETATM   21  C   UNL     1     -11.866  12.422  63.822  1.00  0.00    -0.587 C  
HETATM   22  C   UNL     1     -10.522  12.106  64.433  1.00  0.00    -0.317 C  
HETATM   23  O   UNL     1      -9.755  11.295  63.924  1.00  0.00    -0.241 OA 
ENDBRANCH  12  13
ENDBRANCH  11  12
ENDBRANCH   8  11
ENDBRANCH   7   8
ENDBRANCH   5   7
TORSDOF 5
ENDMDL
MODEL      113
REMARK 921   NORMALIZED FREE ENERGY PREDICTED BY IDOCK:   -4.78 KCAL/MOL
REMARK 922        TOTAL FREE ENERGY PREDICTED BY IDOCK:   -6.91 KCAL/MOL
REMARK 923 INTER-LIGAND FREE ENERGY PREDICTED BY IDOCK:   -6.15 KCAL/MOL
REMARK 924 INTRA-LIGAND FREE ENERGY PREDICTED BY IDOCK:   -0.76 KCAL/MOL
REMARK 927      BINDING AFFINITY PREDICTED BY RF-SCORE:    0.00 PKD
ROOT
HETATM    1  C   UNL     1      -8.736   7.029  67.981  1.00  0.00    -0.126 C  
HETATM    2  C   UNL     1     -10.186   7.344  68.391  1.00  0.00    -0.183 C  
HETATM    3  C   UNL     1     -10.290   7.197  69.923  1.00  0.00    -0.224 C  
HETATM    4  C   UNL     1     -11.154   6.342  67.745  1.00  0.00    -0.361 C  
HETATM    5  N   UNL     1     -10.553   8.741  68.071  1.00  0.00    -0.396 NA 
HETATM    6  H   UNL     1      -9.980   9.388  68.612  1.00  0.00     0.000 HD 
ENDROOT
BRANCH   5   7
HETATM    7  C   UNL     1     -10.501   9.090  66.643  1.00  0.00    -0.165 C  
BRANCH   7   8
HETATM    8  C   UNL     1      -9.496  10.207  66.291  1.00  0.00    -0.180 C  
HETATM    9  O   UNL     1      -8.847  10.624  67.502  1.00  0.00    -0.131 OA 
HETATM   10  H   UNL     1      -8.229  11.312  67.284  1.00  0.00     0.000 HD 
BRANCH   8  11
HETATM   11  C   UNL     1     -10.182  11.418  65.651  1.00  0.00    -0.251 C  
BRANCH  11  12
HETATM   12  O   UNL     1     -11.419  11.665  66.338  1.00  0.00    -0.390 OA 
BRANCH  12  13
HETATM   13  C   UNL     1     -11.476  12.889  66.961  1.00  0.00    -0.339 A  
HETATM   14  C   UNL     1     -11.245  14.095  66.286  1.00  0.00    -0.329 A  
HETATM   15  C   UNL     1     -11.254  15.305  66.976  1.00  0.00    -0.275 A  
HETATM   16  C   UNL     1     -11.538  15.318  68.338  1.00  0.00    -0.365 A  
HETATM   17  C   UNL     1     -11.833  14.123  69.005  1.00  0.00    -0.384 A  
HETATM   18  C   UNL     1     -11.796  12.890  68.329  1.00  0.00    -0.372 A  
HETATM   19  C   UNL     1     -12.132  11.599  69.040  1.00  0.00    -0.288 C  
HETATM   20  C   UNL     1     -11.998  11.711  70.554  1.00  0.00    -0.413 C  
HETATM   21  C   UNL     1     -12.745  12.925  71.075  1.00  0.00    -0.338 C  
HETATM   22  C   UNL     1     -12.209  14.186  70.441  1.00  0.00    -0.356 C  
HETATM   23  O   UNL     1     -12.146  15.244  71.059  1.00  0.00    -0.287 OA 
ENDBRANCH  12  13
ENDBRANCH  11  12
ENDBRANCH   8  11
ENDBRANCH   7   8
ENDBRANCH   5   7
TORSDOF 5
ENDMDL
MODEL      114
REMARK 921   NORMALIZED FREE ENERGY PREDICTED BY IDOCK:   -4.76 KCAL/MOL
REMARK 922        TOTAL FREE ENERGY PREDICTED BY IDOCK:   -6.88 KCAL/MOL
REMARK 923 INTER-LIGAND FREE ENERGY PREDICTED BY IDOCK:   -6.28 KCAL/MOL
REMARK 924 INTRA-LIGAND FREE ENERGY PREDICTED BY IDOCK:   -0.60 KCAL/MOL
REMARK 927      BINDING AFFINITY PREDICTED BY RF-SCORE:    0.00 PKD
ROOT
HETATM    1  C   UNL     1     -10.351  12.487  64.040  1.00  0.00    -0.429 C  
HETATM    2  C   UNL     1     -11.772  12.830  64.519  1.00  0.00    -0.366 C  
HETATM    3  C   UNL     1     -12.760  11.901  63.783  1.00  0.00    -0.466 C  
HETATM    4  C   UNL     1     -12.121  14.282  64.161  1.00  0.00    -0.423 C  
HETATM    5  N   UNL     1     -11.939  12.569  65.966  1.00  0.00    -0.561 NA 
HETATM    6  H   UNL     1     -11.829  11.574  66.158  1.00  0.00     0.000 HD 
ENDROOT
BRANCH   5   7
HETATM    7  C   UNL     1     -11.064  13.355  66.848  1.00  0.00    -0.292 C  
BRANCH   7   8
HETATM    8  C   UNL     1     -10.692  12.658  68.173  1.00  0.00    -0.225 C  
HETATM    9  O   UNL     1      -9.777  13.507  68.884  1.00  0.00    -0.410 OA 
HETATM   10  H   UNL     1      -9.548  13.077  69.699  1.00  0.00     0.000 HD 
BRANCH   8  11
HETATM   11  C   UNL     1     -10.031  11.296  67.941  1.00  0.00    -0.175 C  
BRANCH  11  12
HETATM   12  O   UNL     1     -11.026  10.269  68.077  1.00  0.00    -0.263 OA 
BRANCH  12  13
HETATM   13  C   UNL     1     -10.875   9.491  69.200  1.00  0.00    -0.173 A  
HETATM   14  C   UNL     1     -10.956  10.012  70.499  1.00  0.00    -0.392 A  
HETATM   15  C   UNL     1     -10.736   9.193  71.604  1.00  0.00    -0.441 A  
HETATM   16  C   UNL     1     -10.477   7.839  71.416  1.00  0.00    -0.237 A  
HETATM   17  C   UNL     1     -10.458   7.301  70.124  1.00  0.00    -0.229 A  
HETATM   18  C   UNL     1     -10.647   8.121  68.997  1.00  0.00    -0.167 A  
HETATM   19  C   UNL     1     -10.647   7.541  67.601  1.00  0.00    -0.303 C  
HETATM   20  C   UNL     1      -9.946   6.189  67.527  1.00  0.00    -0.159 C  
HETATM   21  C   UNL     1     -10.472   5.248  68.595  1.00  0.00    -0.148 C  
HETATM   22  C   UNL     1     -10.257   5.837  69.969  1.00  0.00    -0.238 C  
HETATM   23  O   UNL     1      -9.993   5.134  70.939  1.00  0.00    -0.185 OA 
ENDBRANCH  12  13
ENDBRANCH  11  12
ENDBRANCH   8  11
ENDBRANCH   7   8
ENDBRANCH   5   7
TORSDOF 5
ENDMDL
MODEL      115
REMARK 921   NORMALIZED FREE ENERGY PREDICTED BY IDOCK:   -4.73 KCAL/MOL
REMARK 922        TOTAL FREE ENERGY PREDICTED BY IDOCK:   -6.85 KCAL/MOL
REMARK 923 INTER-LIGAND FREE ENERGY PREDICTED BY IDOCK:   -6.02 KCAL/MOL
REMARK 924 INTRA-LIGAND FREE ENERGY PREDICTED BY IDOCK:   -0.83 KCAL/MOL
REMARK 927      BINDING AFFINITY PREDICTED BY RF-SCORE:    0.00 PKD
ROOT
HETATM    1  C   UNL     1      -7.741  11.371  68.729  1.00  0.00    -0.135 C  
HETATM    2  C   UNL     1      -7.452  11.972  67.342  1.00  0.00    -0.152 C  
HETATM    3  C   UNL     1      -6.925  10.840  66.435  1.00  0.00    -0.134 C  
HETATM    4  C   UNL     1      -6.364  13.051  67.444  1.00  0.00    -0.096 C  
HETATM    5  N   UNL     1      -8.680  12.492  66.704  1.00  0.00    -0.378 NA 
HETATM    6  H   UNL     1      -9.336  11.731  66.530  1.00  0.00     0.000 HD 
ENDROOT
BRANCH   5   7
HETATM    7  C   UNL     1      -9.350  13.580  67.432  1.00  0.00    -0.228 C  
BRANCH   7   8
HETATM    8  C   UNL     1     -10.880  13.639  67.237  1.00  0.00    -0.284 C  
HETATM    9  O   UNL     1     -11.257  15.016  67.080  1.00  0.00    -0.331 OA 
HETATM   10  H   UNL     1     -12.199  15.052  66.960  1.00  0.00     0.000 HD 
BRANCH   8  11
HETATM   11  C   UNL     1     -11.636  13.047  68.429  1.00  0.00    -0.335 C  
BRANCH  11  12
HETATM   12  O   UNL     1     -10.998  11.821  68.819  1.00  0.00    -0.211 OA 
BRANCH  12  13
HETATM   13  C   UNL     1     -11.647  11.151  69.829  1.00  0.00    -0.334 A  
HETATM   14  C   UNL     1     -12.525  11.787  70.718  1.00  0.00    -0.405 A  
HETATM   15  C   UNL     1     -13.111  11.076  71.762  1.00  0.00    -0.554 A  
HETATM   16  C   UNL     1     -12.855   9.715  71.897  1.00  0.00    -0.515 A  
HETATM   17  C   UNL     1     -12.030   9.061  70.975  1.00  0.00    -0.323 A  
HETATM   18  C   UNL     1     -11.405   9.772  69.934  1.00  0.00    -0.238 A  
HETATM   19  C   UNL     1     -10.528   9.067  68.924  1.00  0.00    -0.231 C  
HETATM   20  C   UNL     1     -10.010   7.726  69.431  1.00  0.00    -0.188 C  
HETATM   21  C   UNL     1     -11.145   6.878  69.974  1.00  0.00    -0.344 C  
HETATM   22  C   UNL     1     -11.844   7.593  71.106  1.00  0.00    -0.293 C  
HETATM   23  O   UNL     1     -12.304   6.986  72.068  1.00  0.00    -0.310 OA 
ENDBRANCH  12  13
ENDBRANCH  11  12
ENDBRANCH   8  11
ENDBRANCH   7   8
ENDBRANCH   5   7
TORSDOF 5
ENDMDL
MODEL      116
REMARK 921   NORMALIZED FREE ENERGY PREDICTED BY IDOCK:   -4.70 KCAL/MOL
REMARK 922        TOTAL FREE ENERGY PREDICTED BY IDOCK:   -6.81 KCAL/MOL
REMARK 923 INTER-LIGAND FREE ENERGY PREDICTED BY IDOCK:   -6.31 KCAL/MOL
REMARK 924 INTRA-LIGAND FREE ENERGY PREDICTED BY IDOCK:   -0.50 KCAL/MOL
REMARK 927      BINDING AFFINITY PREDICTED BY RF-SCORE:    0.00 PKD
ROOT
HETATM    1  C   UNL     1      -9.512  11.327  62.559  1.00  0.00    -0.173 C  
HETATM    2  C   UNL     1     -10.424  11.631  63.761  1.00  0.00    -0.402 C  
HETATM    3  C   UNL     1     -11.888  11.546  63.281  1.00  0.00    -0.089 C  
HETATM    4  C   UNL     1     -10.169  13.054  64.278  1.00  0.00    -0.316 C  
HETATM    5  N   UNL     1     -10.268  10.624  64.834  1.00  0.00    -0.331 NA 
HETATM    6  H   UNL     1     -10.567   9.707  64.501  1.00  0.00     0.000 HD 
ENDROOT
BRANCH   5   7
HETATM    7  C   UNL     1      -8.922  10.537  65.418  1.00  0.00    -0.186 C  
BRANCH   7   8
HETATM    8  C   UNL     1      -8.665   9.267  66.257  1.00  0.00    -0.142 C  
HETATM    9  O   UNL     1      -9.591   8.256  65.832  1.00  0.00    -0.425 OA 
HETATM   10  H   UNL     1      -9.434   7.474  66.349  1.00  0.00     0.000 HD 
BRANCH   8  11
HETATM   11  C   UNL     1      -8.856   9.519  67.756  1.00  0.00    -0.119 C  
BRANCH  11  12
HETATM   12  O   UNL     1     -10.232   9.284  68.094  1.00  0.00    -0.186 OA 
BRANCH  12  13
HETATM   13  C   UNL     1     -10.871  10.380  68.624  1.00  0.00    -0.232 A  
HETATM   14  C   UNL     1     -10.867  11.635  68.000  1.00  0.00    -0.259 A  
HETATM   15  C   UNL     1     -11.479  12.729  68.607  1.00  0.00    -0.341 A  
HETATM   16  C   UNL     1     -12.135  12.562  69.823  1.00  0.00    -0.293 A  
HETATM   17  C   UNL     1     -12.197  11.298  70.420  1.00  0.00    -0.453 A  
HETATM   18  C   UNL     1     -11.557  10.190  69.835  1.00  0.00    -0.290 A  
HETATM   19  C   UNL     1     -11.637   8.819  70.465  1.00  0.00    -0.170 C  
HETATM   20  C   UNL     1     -11.995   8.873  71.946  1.00  0.00    -0.441 C  
HETATM   21  C   UNL     1     -13.220   9.740  72.174  1.00  0.00    -0.530 C  
HETATM   22  C   UNL     1     -12.974  11.144  71.677  1.00  0.00    -0.443 C  
HETATM   23  O   UNL     1     -13.448  12.123  72.244  1.00  0.00    -0.491 OA 
ENDBRANCH  12  13
ENDBRANCH  11  12
ENDBRANCH   8  11
ENDBRANCH   7   8
ENDBRANCH   5   7
TORSDOF 5
ENDMDL
MODEL      117
REMARK 921   NORMALIZED FREE ENERGY PREDICTED BY IDOCK:   -4.70 KCAL/MOL
REMARK 922        TOTAL FREE ENERGY PREDICTED BY IDOCK:   -6.81 KCAL/MOL
REMARK 923 INTER-LIGAND FREE ENERGY PREDICTED BY IDOCK:   -6.43 KCAL/MOL
REMARK 924 INTRA-LIGAND FREE ENERGY PREDICTED BY IDOCK:   -0.37 KCAL/MOL
REMARK 927      BINDING AFFINITY PREDICTED BY RF-SCORE:    0.00 PKD
ROOT
HETATM    1  C   UNL     1     -10.783   5.597  66.760  1.00  0.00    -0.358 C  
HETATM    2  C   UNL     1     -10.031   6.374  67.855  1.00  0.00    -0.131 C  
HETATM    3  C   UNL     1      -8.816   5.528  68.290  1.00  0.00    -0.104 C  
HETATM    4  C   UNL     1     -10.935   6.582  69.079  1.00  0.00    -0.378 C  
HETATM    5  N   UNL     1      -9.496   7.657  67.347  1.00  0.00    -0.139 NA 
HETATM    6  H   UNL     1      -8.801   7.485  66.621  1.00  0.00     0.000 HD 
ENDROOT
BRANCH   5   7
HETATM    7  C   UNL     1     -10.508   8.608  66.864  1.00  0.00    -0.258 C  
BRANCH   7   8
HETATM    8  C   UNL     1     -10.486   9.983  67.564  1.00  0.00    -0.254 C  
HETATM    9  O   UNL     1     -11.816  10.273  68.022  1.00  0.00    -0.708 OA 
HETATM   10  H   UNL     1     -11.802  11.119  68.453  1.00  0.00     0.000 HD 
BRANCH   8  11
HETATM   11  C   UNL     1     -10.027  11.101  66.624  1.00  0.00    -0.207 C  
BRANCH  11  12
HETATM   12  O   UNL     1     -11.136  11.980  66.374  1.00  0.00    -0.288 OA 
BRANCH  12  13
HETATM   13  C   UNL     1     -10.793  13.310  66.325  1.00  0.00    -0.284 A  
HETATM   14  C   UNL     1     -10.176  13.892  65.209  1.00  0.00    -0.366 A  
HETATM   15  C   UNL     1      -9.794  15.231  65.230  1.00  0.00    -0.250 A  
HETATM   16  C   UNL     1     -10.065  16.006  66.354  1.00  0.00    -0.314 A  
HETATM   17  C   UNL     1     -10.737  15.447  67.446  1.00  0.00    -0.296 A  
HETATM   18  C   UNL     1     -11.102  14.088  67.452  1.00  0.00    -0.317 A  
HETATM   19  C   UNL     1     -11.845  13.484  68.621  1.00  0.00    -0.404 C  
HETATM   20  C   UNL     1     -11.689  14.299  69.900  1.00  0.00    -0.373 C  
HETATM   21  C   UNL     1     -12.001  15.763  69.650  1.00  0.00    -0.332 C  
HETATM   22  C   UNL     1     -11.080  16.325  68.594  1.00  0.00    -0.356 C  
HETATM   23  O   UNL     1     -10.677  17.484  68.638  1.00  0.00    -0.318 OA 
ENDBRANCH  12  13
ENDBRANCH  11  12
ENDBRANCH   8  11
ENDBRANCH   7   8
ENDBRANCH   5   7
TORSDOF 5
ENDMDL
MODEL      118
REMARK 921   NORMALIZED FREE ENERGY PREDICTED BY IDOCK:   -4.70 KCAL/MOL
REMARK 922        TOTAL FREE ENERGY PREDICTED BY IDOCK:   -6.80 KCAL/MOL
REMARK 923 INTER-LIGAND FREE ENERGY PREDICTED BY IDOCK:   -5.89 KCAL/MOL
REMARK 924 INTRA-LIGAND FREE ENERGY PREDICTED BY IDOCK:   -0.91 KCAL/MOL
REMARK 927      BINDING AFFINITY PREDICTED BY RF-SCORE:    0.00 PKD
ROOT
HETATM    1  C   UNL     1      -9.651   9.193  65.465  1.00  0.00    -0.239 C  
HETATM    2  C   UNL     1      -9.046  10.453  64.819  1.00  0.00    -0.213 C  
HETATM    3  C   UNL     1     -10.003  10.921  63.703  1.00  0.00    -0.415 C  
HETATM    4  C   UNL     1      -7.688  10.126  64.182  1.00  0.00    -0.133 C  
HETATM    5  N   UNL     1      -8.942  11.567  65.786  1.00  0.00    -0.355 NA 
HETATM    6  H   UNL     1      -9.871  11.850  66.097  1.00  0.00     0.000 HD 
ENDROOT
BRANCH   5   7
HETATM    7  C   UNL     1      -8.076  11.308  66.947  1.00  0.00    -0.155 C  
BRANCH   7   8
HETATM    8  C   UNL     1      -8.486  12.054  68.234  1.00  0.00    -0.167 C  
HETATM    9  O   UNL     1      -7.850  11.407  69.347  1.00  0.00    -0.360 OA 
HETATM   10  H   UNL     1      -8.103  11.866  70.139  1.00  0.00     0.000 HD 
BRANCH   8  11
HETATM   11  C   UNL     1     -10.002  12.042  68.449  1.00  0.00    -0.208 C  
BRANCH  11  12
HETATM   12  O   UNL     1     -10.478  10.694  68.314  1.00  0.00    -0.169 OA 
BRANCH  12  13
HETATM   13  C   UNL     1     -11.176  10.237  69.406  1.00  0.00    -0.239 A  
HETATM   14  C   UNL     1     -12.026  11.057  70.161  1.00  0.00    -0.443 A  
HETATM   15  C   UNL     1     -12.664  10.563  71.295  1.00  0.00    -0.532 A  
HETATM   16  C   UNL     1     -12.489   9.230  71.656  1.00  0.00    -0.448 A  
HETATM   17  C   UNL     1     -11.693   8.389  70.871  1.00  0.00    -0.269 A  
HETATM   18  C   UNL     1     -11.016   8.882  69.740  1.00  0.00    -0.164 A  
HETATM   19  C   UNL     1     -10.170   7.973  68.878  1.00  0.00    -0.220 C  
HETATM   20  C   UNL     1      -9.737   6.707  69.609  1.00  0.00    -0.162 C  
HETATM   21  C   UNL     1     -10.925   6.024  70.260  1.00  0.00    -0.412 C  
HETATM   22  C   UNL     1     -11.594   6.954  71.244  1.00  0.00    -0.310 C  
HETATM   23  O   UNL     1     -12.100   6.540  72.283  1.00  0.00    -0.278 OA 
ENDBRANCH  12  13
ENDBRANCH  11  12
ENDBRANCH   8  11
ENDBRANCH   7   8
ENDBRANCH   5   7
TORSDOF 5
ENDMDL
MODEL      119
REMARK 921   NORMALIZED FREE ENERGY PREDICTED BY IDOCK:   -4.70 KCAL/MOL
REMARK 922        TOTAL FREE ENERGY PREDICTED BY IDOCK:   -6.80 KCAL/MOL
REMARK 923 INTER-LIGAND FREE ENERGY PREDICTED BY IDOCK:   -6.10 KCAL/MOL
REMARK 924 INTRA-LIGAND FREE ENERGY PREDICTED BY IDOCK:   -0.70 KCAL/MOL
REMARK 927      BINDING AFFINITY PREDICTED BY RF-SCORE:    0.00 PKD
ROOT
HETATM    1  C   UNL     1     -10.327  13.026  63.702  1.00  0.00     0.188 C  
HETATM    2  C   UNL     1     -11.643  12.579  64.363  1.00  0.00    -0.358 C  
HETATM    3  C   UNL     1     -12.493  11.860  63.294  1.00  0.00    -0.506 C  
HETATM    4  C   UNL     1     -12.431  13.799  64.863  1.00  0.00    -0.420 C  
HETATM    5  N   UNL     1     -11.406  11.601  65.448  1.00  0.00    -0.213 NA 
HETATM    6  H   UNL     1     -10.999  10.747  65.068  1.00  0.00     0.000 HD 
ENDROOT
BRANCH   5   7
HETATM    7  C   UNL     1     -10.593  12.095  66.568  1.00  0.00    -0.237 C  
BRANCH   7   8
HETATM    8  C   UNL     1     -10.960  11.498  67.943  1.00  0.00    -0.233 C  
HETATM    9  O   UNL     1     -11.708  10.293  67.721  1.00  0.00    -0.643 OA 
HETATM   10  H   UNL     1     -11.934   9.926  68.568  1.00  0.00     0.000 HD 
BRANCH   8  11
HETATM   11  C   UNL     1     -11.804  12.462  68.782  1.00  0.00    -0.311 C  
BRANCH  11  12
HETATM   12  O   UNL     1     -11.897  13.718  68.092  1.00  0.00    -0.343 OA 
BRANCH  12  13
HETATM   13  C   UNL     1     -11.555  14.804  68.861  1.00  0.00    -0.313 A  
HETATM   14  C   UNL     1     -11.855  14.890  70.228  1.00  0.00    -0.358 A  
HETATM   15  C   UNL     1     -11.540  16.038  70.951  1.00  0.00    -0.453 A  
HETATM   16  C   UNL     1     -10.884  17.090  70.319  1.00  0.00     0.382 A  
HETATM   17  C   UNL     1     -10.524  16.984  68.970  1.00  0.00    -0.337 A  
HETATM   18  C   UNL     1     -10.863  15.844  68.219  1.00  0.00    -0.315 A  
HETATM   19  C   UNL     1     -10.461  15.717  66.768  1.00  0.00    -0.305 C  
HETATM   20  C   UNL     1     -10.152  17.064  66.124  1.00  0.00    -0.332 C  
HETATM   21  C   UNL     1      -9.180  17.860  66.976  1.00  0.00    -0.260 C  
HETATM   22  C   UNL     1      -9.755  18.095  68.352  1.00  0.00    -0.355 C  
HETATM   23  O   UNL     1      -9.543  19.132  68.973  1.00  0.00    -0.376 OA 
ENDBRANCH  12  13
ENDBRANCH  11  12
ENDBRANCH   8  11
ENDBRANCH   7   8
ENDBRANCH   5   7
TORSDOF 5
ENDMDL
MODEL      120
REMARK 921   NORMALIZED FREE ENERGY PREDICTED BY IDOCK:   -4.69 KCAL/MOL
REMARK 922        TOTAL FREE ENERGY PREDICTED BY IDOCK:   -6.80 KCAL/MOL
REMARK 923 INTER-LIGAND FREE ENERGY PREDICTED BY IDOCK:   -6.37 KCAL/MOL
REMARK 924 INTRA-LIGAND FREE ENERGY PREDICTED BY IDOCK:   -0.43 KCAL/MOL
REMARK 927      BINDING AFFINITY PREDICTED BY RF-SCORE:    0.00 PKD
ROOT
HETATM    1  C   UNL     1      -9.827   6.237  71.656  1.00  0.00    -0.184 C  
HETATM    2  C   UNL     1      -9.115   5.849  70.348  1.00  0.00    -0.147 C  
HETATM    3  C   UNL     1      -9.455   4.375  70.040  1.00  0.00    -0.251 C  
HETATM    4  C   UNL     1      -7.593   5.967  70.513  1.00  0.00    -0.092 C  
HETATM    5  N   UNL     1      -9.604   6.647  69.202  1.00  0.00    -0.136 NA 
HETATM    6  H   UNL     1     -10.591   6.452  69.034  1.00  0.00     0.000 HD 
ENDROOT
BRANCH   5   7
HETATM    7  C   UNL     1      -9.387   8.097  69.312  1.00  0.00    -0.151 C  
BRANCH   7   8
HETATM    8  C   UNL     1     -10.641   8.957  69.055  1.00  0.00    -0.183 C  
HETATM    9  O   UNL     1     -11.055   8.750  67.695  1.00  0.00    -0.480 OA 
HETATM   10  H   UNL     1     -11.827   9.280  67.537  1.00  0.00     0.000 HD 
BRANCH   8  11
HETATM   11  C   UNL     1     -10.371  10.449  69.272  1.00  0.00    -0.230 C  
BRANCH  11  12
HETATM   12  O   UNL     1      -9.944  11.028  68.029  1.00  0.00    -0.166 OA 
BRANCH  12  13
HETATM   13  C   UNL     1     -10.697  12.105  67.627  1.00  0.00    -0.220 A  
HETATM   14  C   UNL     1     -11.210  13.050  68.527  1.00  0.00    -0.309 A  
HETATM   15  C   UNL     1     -12.017  14.091  68.076  1.00  0.00    -0.386 A  
HETATM   16  C   UNL     1     -12.282  14.216  66.716  1.00  0.00    -0.429 A  
HETATM   17  C   UNL     1     -11.721  13.314  65.805  1.00  0.00    -0.395 A  
HETATM   18  C   UNL     1     -10.929  12.239  66.248  1.00  0.00    -0.327 A  
HETATM   19  C   UNL     1     -10.305  11.272  65.268  1.00  0.00    -0.337 C  
HETATM   20  C   UNL     1     -11.007  11.273  63.915  1.00  0.00    -0.382 C  
HETATM   21  C   UNL     1     -11.162  12.688  63.387  1.00  0.00    -0.404 C  
HETATM   22  C   UNL     1     -11.961  13.528  64.355  1.00  0.00    -0.422 C  
HETATM   23  O   UNL     1     -12.731  14.402  63.969  1.00  0.00    -0.739 OA 
ENDBRANCH  12  13
ENDBRANCH  11  12
ENDBRANCH   8  11
ENDBRANCH   7   8
ENDBRANCH   5   7
TORSDOF 5
ENDMDL
MODEL      121
REMARK 921   NORMALIZED FREE ENERGY PREDICTED BY IDOCK:   -4.68 KCAL/MOL
REMARK 922        TOTAL FREE ENERGY PREDICTED BY IDOCK:   -6.78 KCAL/MOL
REMARK 923 INTER-LIGAND FREE ENERGY PREDICTED BY IDOCK:   -6.26 KCAL/MOL
REMARK 924 INTRA-LIGAND FREE ENERGY PREDICTED BY IDOCK:   -0.52 KCAL/MOL
REMARK 927      BINDING AFFINITY PREDICTED BY RF-SCORE:    0.00 PKD
ROOT
HETATM    1  C   UNL     1      -8.797  16.762  66.265  1.00  0.00    -0.334 C  
HETATM    2  C   UNL     1      -9.686  17.655  67.148  1.00  0.00    -0.291 C  
HETATM    3  C   UNL     1     -10.169  18.843  66.289  1.00  0.00    -0.491 C  
HETATM    4  C   UNL     1      -8.877  18.213  68.328  1.00  0.00    -0.293 C  
HETATM    5  N   UNL     1     -10.897  16.940  67.606  1.00  0.00    -0.293 NA 
HETATM    6  H   UNL     1     -11.482  16.692  66.808  1.00  0.00     0.000 HD 
ENDROOT
BRANCH   5   7
HETATM    7  C   UNL     1     -10.646  15.753  68.436  1.00  0.00    -0.264 C  
BRANCH   7   8
HETATM    8  C   UNL     1     -11.083  14.417  67.799  1.00  0.00    -0.287 C  
HETATM    9  O   UNL     1     -11.838  14.713  66.614  1.00  0.00    -0.375 OA 
HETATM   10  H   UNL     1     -12.108  13.891  66.222  1.00  0.00     0.000 HD 
BRANCH   8  11
HETATM   11  C   UNL     1     -11.949  13.583  68.747  1.00  0.00    -0.339 C  
BRANCH  11  12
HETATM   12  O   UNL     1     -12.275  12.341  68.104  1.00  0.00    -0.349 OA 
BRANCH  12  13
HETATM   13  C   UNL     1     -11.675  11.243  68.673  1.00  0.00    -0.324 A  
HETATM   14  C   UNL     1     -11.876  10.877  70.011  1.00  0.00    -0.428 A  
HETATM   15  C   UNL     1     -11.198   9.791  70.557  1.00  0.00    -0.381 A  
HETATM   16  C   UNL     1     -10.345   9.039  69.755  1.00  0.00    -0.219 A  
HETATM   17  C   UNL     1     -10.188   9.361  68.402  1.00  0.00    -0.224 A  
HETATM   18  C   UNL     1     -10.842  10.474  67.843  1.00  0.00    -0.333 A  
HETATM   19  C   UNL     1     -10.691  10.814  66.379  1.00  0.00    -0.228 C  
HETATM   20  C   UNL     1      -9.443  10.198  65.758  1.00  0.00    -0.262 C  
HETATM   21  C   UNL     1      -9.362   8.714  66.068  1.00  0.00    -0.284 C  
HETATM   22  C   UNL     1      -9.331   8.487  67.560  1.00  0.00    -0.144 C  
HETATM   23  O   UNL     1      -8.680   7.576  68.062  1.00  0.00    -0.122 OA 
ENDBRANCH  12  13
ENDBRANCH  11  12
ENDBRANCH   8  11
ENDBRANCH   7   8
ENDBRANCH   5   7
TORSDOF 5
ENDMDL
MODEL      122
REMARK 921   NORMALIZED FREE ENERGY PREDICTED BY IDOCK:   -4.68 KCAL/MOL
REMARK 922        TOTAL FREE ENERGY PREDICTED BY IDOCK:   -6.77 KCAL/MOL
REMARK 923 INTER-LIGAND FREE ENERGY PREDICTED BY IDOCK:   -6.04 KCAL/MOL
REMARK 924 INTRA-LIGAND FREE ENERGY PREDICTED BY IDOCK:   -0.73 KCAL/MOL
REMARK 927      BINDING AFFINITY PREDICTED BY RF-SCORE:    0.00 PKD
ROOT
HETATM    1  C   UNL     1     -12.883   9.743  72.022  1.00  0.00    -0.491 C  
HETATM    2  C   UNL     1     -12.326   8.372  71.600  1.00  0.00    -0.320 C  
HETATM    3  C   UNL     1     -13.499   7.370  71.570  1.00  0.00    -0.445 C  
HETATM    4  C   UNL     1     -11.295   7.876  72.625  1.00  0.00    -0.468 C  
HETATM    5  N   UNL     1     -11.762   8.408  70.233  1.00  0.00    -0.465 NA 
HETATM    6  H   UNL     1     -12.496   8.615  69.555  1.00  0.00     0.000 HD 
ENDROOT
BRANCH   5   7
HETATM    7  C   UNL     1     -10.630   9.328  70.047  1.00  0.00    -0.228 C  
BRANCH   7   8
HETATM    8  C   UNL     1      -9.273   8.636  69.799  1.00  0.00    -0.154 C  
HETATM    9  O   UNL     1      -8.234   9.608  69.991  1.00  0.00    -0.150 OA 
HETATM   10  H   UNL     1      -7.399   9.182  69.838  1.00  0.00     0.000 HD 
BRANCH   8  11
HETATM   11  C   UNL     1      -9.168   8.067  68.382  1.00  0.00    -0.135 C  
BRANCH  11  12
HETATM   12  O   UNL     1     -10.236   8.605  67.586  1.00  0.00    -0.208 OA 
BRANCH  12  13
HETATM   13  C   UNL     1      -9.825   9.138  66.388  1.00  0.00    -0.280 A  
HETATM   14  C   UNL     1      -8.911   8.491  65.544  1.00  0.00    -0.196 A  
HETATM   15  C   UNL     1      -8.480   9.100  64.368  1.00  0.00    -0.198 A  
HETATM   16  C   UNL     1      -8.995  10.342  64.009  1.00  0.00    -0.249 A  
HETATM   17  C   UNL     1      -9.955  10.964  64.814  1.00  0.00    -0.366 A  
HETATM   18  C   UNL     1     -10.377  10.376  66.021  1.00  0.00    -0.262 A  
HETATM   19  C   UNL     1     -11.428  11.034  66.885  1.00  0.00     0.028 C  
HETATM   20  C   UNL     1     -11.569  12.526  66.604  1.00  0.00    -0.442 C  
HETATM   21  C   UNL     1     -11.731  12.783  65.117  1.00  0.00    -0.396 C  
HETATM   22  C   UNL     1     -10.539  12.251  64.357  1.00  0.00    -0.327 C  
HETATM   23  O   UNL     1     -10.104  12.817  63.359  1.00  0.00    -0.288 OA 
ENDBRANCH  12  13
ENDBRANCH  11  12
ENDBRANCH   8  11
ENDBRANCH   7   8
ENDBRANCH   5   7
TORSDOF 5
ENDMDL
MODEL      123
REMARK 921   NORMALIZED FREE ENERGY PREDICTED BY IDOCK:   -4.67 KCAL/MOL
REMARK 922        TOTAL FREE ENERGY PREDICTED BY IDOCK:   -6.77 KCAL/MOL
REMARK 923 INTER-LIGAND FREE ENERGY PREDICTED BY IDOCK:   -6.32 KCAL/MOL
REMARK 924 INTRA-LIGAND FREE ENERGY PREDICTED BY IDOCK:   -0.45 KCAL/MOL
REMARK 927      BINDING AFFINITY PREDICTED BY RF-SCORE:    0.00 PKD
ROOT
HETATM    1  C   UNL     1      -6.412  11.090  69.974  1.00  0.00    -0.144 C  
HETATM    2  C   UNL     1      -7.219   9.785  69.852  1.00  0.00    -0.116 C  
HETATM    3  C   UNL     1      -6.863   8.892  71.059  1.00  0.00    -0.081 C  
HETATM    4  C   UNL     1      -6.832   9.036  68.569  1.00  0.00    -0.064 C  
HETATM    5  N   UNL     1      -8.675  10.034  69.921  1.00  0.00    -0.329 NA 
HETATM    6  H   UNL     1      -8.924  10.414  70.834  1.00  0.00     0.000 HD 
ENDROOT
BRANCH   5   7
HETATM    7  C   UNL     1      -9.215  10.890  68.853  1.00  0.00    -0.160 C  
BRANCH   7   8
HETATM    8  C   UNL     1     -10.747  10.819  68.684  1.00  0.00    -0.208 C  
HETATM    9  O   UNL     1     -11.166   9.475  68.969  1.00  0.00    -0.433 OA 
HETATM   10  H   UNL     1     -12.110   9.432  68.864  1.00  0.00     0.000 HD 
BRANCH   8  11
HETATM   11  C   UNL     1     -11.187  11.189  67.265  1.00  0.00    -0.277 C  
BRANCH  11  12
HETATM   12  O   UNL     1     -12.143  12.259  67.341  1.00  0.00    -0.533 OA 
BRANCH  12  13
HETATM   13  C   UNL     1     -11.961  13.238  66.394  1.00  0.00    -0.410 A  
HETATM   14  C   UNL     1     -12.370  13.088  65.061  1.00  0.00    -0.526 A  
HETATM   15  C   UNL     1     -12.110  14.085  64.125  1.00  0.00    -0.456 A  
HETATM   16  C   UNL     1     -11.476  15.257  64.526  1.00  0.00    -0.318 A  
HETATM   17  C   UNL     1     -11.123  15.439  65.868  1.00  0.00    -0.247 A  
HETATM   18  C   UNL     1     -11.351  14.429  66.820  1.00  0.00    -0.360 A  
HETATM   19  C   UNL     1     -10.988  14.628  68.273  1.00  0.00    -0.261 C  
HETATM   20  C   UNL     1      -9.952  15.728  68.474  1.00  0.00    -0.208 C  
HETATM   21  C   UNL     1     -10.363  16.997  67.752  1.00  0.00    -0.335 C  
HETATM   22  C   UNL     1     -10.520  16.736  66.273  1.00  0.00    -0.261 C  
HETATM   23  O   UNL     1     -10.228  17.581  65.433  1.00  0.00    -0.593 OA 
ENDBRANCH  12  13
ENDBRANCH  11  12
ENDBRANCH   8  11
ENDBRANCH   7   8
ENDBRANCH   5   7
TORSDOF 5
ENDMDL
MODEL      124
REMARK 921   NORMALIZED FREE ENERGY PREDICTED BY IDOCK:   -4.67 KCAL/MOL
REMARK 922        TOTAL FREE ENERGY PREDICTED BY IDOCK:   -6.77 KCAL/MOL
REMARK 923 INTER-LIGAND FREE ENERGY PREDICTED BY IDOCK:   -5.96 KCAL/MOL
REMARK 924 INTRA-LIGAND FREE ENERGY PREDICTED BY IDOCK:   -0.81 KCAL/MOL
REMARK 927      BINDING AFFINITY PREDICTED BY RF-SCORE:    0.00 PKD
ROOT
HETATM    1  C   UNL     1     -11.882  13.753  67.095  1.00  0.00    -0.441 C  
HETATM    2  C   UNL     1     -11.015  14.507  68.120  1.00  0.00    -0.251 C  
HETATM    3  C   UNL     1     -11.890  14.804  69.356  1.00  0.00    -0.360 C  
HETATM    4  C   UNL     1     -10.539  15.845  67.535  1.00  0.00    -0.315 C  
HETATM    5  N   UNL     1      -9.881  13.682  68.589  1.00  0.00    -0.363 NA 
HETATM    6  H   UNL     1     -10.225  12.862  69.088  1.00  0.00     0.000 HD 
ENDROOT
BRANCH   5   7
HETATM    7  C   UNL     1      -8.928  13.276  67.545  1.00  0.00    -0.208 C  
BRANCH   7   8
HETATM    8  C   UNL     1      -8.048  12.063  67.913  1.00  0.00    -0.150 C  
HETATM    9  O   UNL     1      -7.794  11.315  66.714  1.00  0.00    -0.145 OA 
HETATM   10  H   UNL     1      -7.252  10.568  66.941  1.00  0.00     0.000 HD 
BRANCH   8  11
HETATM   11  C   UNL     1      -8.725  11.150  68.938  1.00  0.00    -0.080 C  
BRANCH  11  12
HETATM   12  O   UNL     1     -10.035  10.807  68.459  1.00  0.00    -0.164 OA 
BRANCH  12  13
HETATM   13  C   UNL     1     -10.865  10.291  69.424  1.00  0.00    -0.245 A  
HETATM   14  C   UNL     1     -11.709  11.092  70.206  1.00  0.00    -0.445 A  
HETATM   15  C   UNL     1     -12.488  10.527  71.213  1.00  0.00    -0.524 A  
HETATM   16  C   UNL     1     -12.458   9.151  71.416  1.00  0.00    -0.396 A  
HETATM   17  C   UNL     1     -11.665   8.338  70.597  1.00  0.00    -0.153 A  
HETATM   18  C   UNL     1     -10.850   8.897  69.596  1.00  0.00    -0.186 A  
HETATM   19  C   UNL     1     -10.007   8.022  68.696  1.00  0.00    -0.200 C  
HETATM   20  C   UNL     1      -9.749   6.643  69.293  1.00  0.00    -0.151 C  
HETATM   21  C   UNL     1     -11.044   6.002  69.754  1.00  0.00    -0.476 C  
HETATM   22  C   UNL     1     -11.721   6.866  70.792  1.00  0.00    -0.369 C  
HETATM   23  O   UNL     1     -12.352   6.381  71.725  1.00  0.00    -0.333 OA 
ENDBRANCH  12  13
ENDBRANCH  11  12
ENDBRANCH   8  11
ENDBRANCH   7   8
ENDBRANCH   5   7
TORSDOF 5
ENDMDL
MODEL      125
REMARK 921   NORMALIZED FREE ENERGY PREDICTED BY IDOCK:   -4.67 KCAL/MOL
REMARK 922        TOTAL FREE ENERGY PREDICTED BY IDOCK:   -6.76 KCAL/MOL
REMARK 923 INTER-LIGAND FREE ENERGY PREDICTED BY IDOCK:   -5.97 KCAL/MOL
REMARK 924 INTRA-LIGAND FREE ENERGY PREDICTED BY IDOCK:   -0.80 KCAL/MOL
REMARK 927      BINDING AFFINITY PREDICTED BY RF-SCORE:    0.00 PKD
ROOT
HETATM    1  C   UNL     1      -8.616   9.457  63.409  1.00  0.00    -0.218 C  
HETATM    2  C   UNL     1      -8.947  10.358  64.612  1.00  0.00    -0.209 C  
HETATM    3  C   UNL     1      -7.630  10.661  65.356  1.00  0.00    -0.038 C  
HETATM    4  C   UNL     1      -9.890   9.629  65.582  1.00  0.00    -0.369 C  
HETATM    5  N   UNL     1      -9.504  11.659  64.183  1.00  0.00    -0.439 NA 
HETATM    6  H   UNL     1      -8.810  12.180  63.647  1.00  0.00     0.000 HD 
ENDROOT
BRANCH   5   7
HETATM    7  C   UNL     1     -10.768  11.583  63.435  1.00  0.00    -0.373 C  
BRANCH   7   8
HETATM    8  C   UNL     1     -11.822  12.633  63.844  1.00  0.00    -0.467 C  
HETATM    9  O   UNL     1     -12.026  13.518  62.732  1.00  0.00    -0.705 OA 
HETATM   10  H   UNL     1     -12.675  14.165  62.984  1.00  0.00     0.000 HD 
BRANCH   8  11
HETATM   11  C   UNL     1     -11.378  13.452  65.059  1.00  0.00    -0.312 C  
BRANCH  11  12
HETATM   12  O   UNL     1     -10.262  14.274  64.681  1.00  0.00    -0.387 OA 
BRANCH  12  13
HETATM   13  C   UNL     1     -10.200  15.473  65.350  1.00  0.00    -0.377 A  
HETATM   14  C   UNL     1     -11.034  16.556  65.043  1.00  0.00    -0.222 A  
HETATM   15  C   UNL     1     -10.891  17.770  65.710  1.00  0.00     0.037 A  
HETATM   16  C   UNL     1      -9.939  17.894  66.718  1.00  0.00    -0.339 A  
HETATM   17  C   UNL     1      -9.146  16.796  67.072  1.00  0.00    -0.239 A  
HETATM   18  C   UNL     1      -9.257  15.573  66.387  1.00  0.00    -0.339 A  
HETATM   19  C   UNL     1      -8.417  14.379  66.778  1.00  0.00    -0.076 C  
HETATM   20  C   UNL     1      -7.171  14.771  67.564  1.00  0.00    -0.222 C  
HETATM   21  C   UNL     1      -7.527  15.691  68.718  1.00  0.00    -0.151 C  
HETATM   22  C   UNL     1      -8.198  16.943  68.206  1.00  0.00    -0.222 C  
HETATM   23  O   UNL     1      -8.025  18.034  68.741  1.00  0.00    -0.299 OA 
ENDBRANCH  12  13
ENDBRANCH  11  12
ENDBRANCH   8  11
ENDBRANCH   7   8
ENDBRANCH   5   7
TORSDOF 5
ENDMDL
MODEL      126
REMARK 921   NORMALIZED FREE ENERGY PREDICTED BY IDOCK:   -4.66 KCAL/MOL
REMARK 922        TOTAL FREE ENERGY PREDICTED BY IDOCK:   -6.76 KCAL/MOL
REMARK 923 INTER-LIGAND FREE ENERGY PREDICTED BY IDOCK:   -6.24 KCAL/MOL
REMARK 924 INTRA-LIGAND FREE ENERGY PREDICTED BY IDOCK:   -0.51 KCAL/MOL
REMARK 927      BINDING AFFINITY PREDICTED BY RF-SCORE:    0.00 PKD
ROOT
HETATM    1  C   UNL     1     -10.095  18.567  66.457  1.00  0.00    -0.425 C  
HETATM    2  C   UNL     1      -9.141  17.458  66.937  1.00  0.00    -0.245 C  
HETATM    3  C   UNL     1      -8.814  17.723  68.422  1.00  0.00    -0.285 C  
HETATM    4  C   UNL     1      -7.828  17.502  66.141  1.00  0.00    -0.281 C  
HETATM    5  N   UNL     1      -9.776  16.124  66.872  1.00  0.00    -0.230 NA 
HETATM    6  H   UNL     1     -10.571  16.082  67.509  1.00  0.00     0.000 HD 
ENDROOT
BRANCH   5   7
HETATM    7  C   UNL     1     -10.181  15.690  65.527  1.00  0.00    -0.385 C  
BRANCH   7   8
HETATM    8  C   UNL     1     -11.512  14.911  65.476  1.00  0.00    -0.307 C  
HETATM    9  O   UNL     1     -11.747  14.342  66.773  1.00  0.00    -0.371 OA 
HETATM   10  H   UNL     1     -12.567  13.862  66.741  1.00  0.00     0.000 HD 
BRANCH   8  11
HETATM   11  C   UNL     1     -11.482  13.786  64.437  1.00  0.00    -0.372 C  
BRANCH  11  12
HETATM   12  O   UNL     1     -11.578  12.525  65.117  1.00  0.00    -0.325 OA 
BRANCH  12  13
HETATM   13  C   UNL     1     -10.686  11.580  64.669  1.00  0.00    -0.319 A  
HETATM   14  C   UNL     1     -10.228  11.538  63.345  1.00  0.00    -0.462 A  
HETATM   15  C   UNL     1      -9.370  10.524  62.925  1.00  0.00    -0.347 A  
HETATM   16  C   UNL     1      -8.933   9.570  63.839  1.00  0.00    -0.217 A  
HETATM   17  C   UNL     1      -9.336   9.644  65.177  1.00  0.00    -0.322 A  
HETATM   18  C   UNL     1     -10.227  10.644  65.610  1.00  0.00    -0.319 A  
HETATM   19  C   UNL     1     -10.650  10.739  67.057  1.00  0.00    -0.312 C  
HETATM   20  C   UNL     1     -10.452   9.431  67.814  1.00  0.00    -0.310 C  
HETATM   21  C   UNL     1      -9.048   8.894  67.607  1.00  0.00    -0.144 C  
HETATM   22  C   UNL     1      -8.785   8.656  66.140  1.00  0.00    -0.156 C  
HETATM   23  O   UNL     1      -8.088   7.724  65.751  1.00  0.00    -0.110 OA 
ENDBRANCH  12  13
ENDBRANCH  11  12
ENDBRANCH   8  11
ENDBRANCH   7   8
ENDBRANCH   5   7
TORSDOF 5
ENDMDL
MODEL      127
REMARK 921   NORMALIZED FREE ENERGY PREDICTED BY IDOCK:   -4.64 KCAL/MOL
REMARK 922        TOTAL FREE ENERGY PREDICTED BY IDOCK:   -6.73 KCAL/MOL
REMARK 923 INTER-LIGAND FREE ENERGY PREDICTED BY IDOCK:   -6.32 KCAL/MOL
REMARK 924 INTRA-LIGAND FREE ENERGY PREDICTED BY IDOCK:   -0.41 KCAL/MOL
REMARK 927      BINDING AFFINITY PREDICTED BY RF-SCORE:    0.00 PKD
ROOT
HETATM    1  C   UNL     1      -8.985   7.161  69.443  1.00  0.00    -0.136 C  
HETATM    2  C   UNL     1      -9.545   6.603  70.763  1.00  0.00    -0.175 C  
HETATM    3  C   UNL     1      -8.356   6.345  71.713  1.00  0.00    -0.120 C  
HETATM    4  C   UNL     1     -10.262   5.268  70.518  1.00  0.00    -0.334 C  
HETATM    5  N   UNL     1     -10.425   7.580  71.440  1.00  0.00    -0.209 NA 
HETATM    6  H   UNL     1      -9.892   8.408  71.707  1.00  0.00     0.000 HD 
ENDROOT
BRANCH   5   7
HETATM    7  C   UNL     1     -11.622   7.973  70.681  1.00  0.00    -0.196 C  
BRANCH   7   8
HETATM    8  C   UNL     1     -11.900   9.491  70.658  1.00  0.00    -0.233 C  
HETATM    9  O   UNL     1     -13.323   9.685  70.672  1.00  0.00    -0.593 OA 
HETATM   10  H   UNL     1     -13.494  10.619  70.658  1.00  0.00     0.000 HD 
BRANCH   8  11
HETATM   11  C   UNL     1     -11.317  10.164  69.412  1.00  0.00    -0.178 C  
BRANCH  11  12
HETATM   12  O   UNL     1     -12.337  10.973  68.803  1.00  0.00    -0.533 OA 
BRANCH  12  13
HETATM   13  C   UNL     1     -11.890  12.195  68.362  1.00  0.00    -0.303 A  
HETATM   14  C   UNL     1     -11.332  12.384  67.090  1.00  0.00    -0.390 A  
HETATM   15  C   UNL     1     -10.839  13.630  66.711  1.00  0.00    -0.291 A  
HETATM   16  C   UNL     1     -10.939  14.705  67.590  1.00  0.00    -0.296 A  
HETATM   17  C   UNL     1     -11.552  14.538  68.837  1.00  0.00    -0.341 A  
HETATM   18  C   UNL     1     -12.027  13.278  69.246  1.00  0.00    -0.354 A  
HETATM   19  C   UNL     1     -12.707  13.096  70.583  1.00  0.00    -0.203 C  
HETATM   20  C   UNL     1     -12.366  14.207  71.570  1.00  0.00    -0.395 C  
HETATM   21  C   UNL     1     -12.577  15.572  70.942  1.00  0.00    -0.512 C  
HETATM   22  C   UNL     1     -11.712  15.726  69.713  1.00  0.00    -0.348 C  
HETATM   23  O   UNL     1     -11.212  16.804  69.406  1.00  0.00    -0.182 OA 
ENDBRANCH  12  13
ENDBRANCH  11  12
ENDBRANCH   8  11
ENDBRANCH   7   8
ENDBRANCH   5   7
TORSDOF 5
ENDMDL
MODEL      128
REMARK 921   NORMALIZED FREE ENERGY PREDICTED BY IDOCK:   -4.64 KCAL/MOL
REMARK 922        TOTAL FREE ENERGY PREDICTED BY IDOCK:   -6.72 KCAL/MOL
REMARK 923 INTER-LIGAND FREE ENERGY PREDICTED BY IDOCK:   -6.47 KCAL/MOL
REMARK 924 INTRA-LIGAND FREE ENERGY PREDICTED BY IDOCK:   -0.26 KCAL/MOL
REMARK 927      BINDING AFFINITY PREDICTED BY RF-SCORE:    0.00 PKD
ROOT
HETATM    1  C   UNL     1      -9.795  19.904  67.878  1.00  0.00    -0.529 C  
HETATM    2  C   UNL     1      -8.416  19.276  67.611  1.00  0.00    -0.292 C  
HETATM    3  C   UNL     1      -7.543  19.495  68.865  1.00  0.00    -0.383 C  
HETATM    4  C   UNL     1      -7.734  19.971  66.423  1.00  0.00    -0.324 C  
HETATM    5  N   UNL     1      -8.510  17.814  67.408  1.00  0.00    -0.224 NA 
HETATM    6  H   UNL     1      -8.846  17.362  68.259  1.00  0.00     0.000 HD 
ENDROOT
BRANCH   5   7
HETATM    7  C   UNL     1      -9.324  17.394  66.257  1.00  0.00    -0.217 C  
BRANCH   7   8
HETATM    8  C   UNL     1     -10.546  16.523  66.617  1.00  0.00    -0.216 C  
HETATM    9  O   UNL     1     -10.909  16.803  67.977  1.00  0.00    -0.355 OA 
HETATM   10  H   UNL     1     -11.662  16.266  68.198  1.00  0.00     0.000 HD 
BRANCH   8  11
HETATM   11  C   UNL     1     -10.249  15.028  66.477  1.00  0.00    -0.275 C  
BRANCH  11  12
HETATM   12  O   UNL     1     -11.485  14.300  66.562  1.00  0.00    -0.335 OA 
BRANCH  12  13
HETATM   13  C   UNL     1     -11.498  13.337  67.542  1.00  0.00    -0.322 A  
HETATM   14  C   UNL     1     -11.903  13.599  68.858  1.00  0.00    -0.402 A  
HETATM   15  C   UNL     1     -11.842  12.603  69.829  1.00  0.00    -0.379 A  
HETATM   16  C   UNL     1     -11.416  11.326  69.478  1.00  0.00    -0.376 A  
HETATM   17  C   UNL     1     -11.071  11.041  68.152  1.00  0.00    -0.329 A  
HETATM   18  C   UNL     1     -11.097  12.044  67.166  1.00  0.00    -0.344 A  
HETATM   19  C   UNL     1     -10.744  11.737  65.729  1.00  0.00    -0.328 C  
HETATM   20  C   UNL     1      -9.913  10.467  65.588  1.00  0.00    -0.337 C  
HETATM   21  C   UNL     1     -10.557   9.313  66.335  1.00  0.00    -0.037 C  
HETATM   22  C   UNL     1     -10.697   9.646  67.801  1.00  0.00    -0.257 C  
HETATM   23  O   UNL     1     -10.576   8.791  68.673  1.00  0.00    -0.208 OA 
ENDBRANCH  12  13
ENDBRANCH  11  12
ENDBRANCH   8  11
ENDBRANCH   7   8
ENDBRANCH   5   7
TORSDOF 5
ENDMDL
MODEL      129
REMARK 921   NORMALIZED FREE ENERGY PREDICTED BY IDOCK:   -4.63 KCAL/MOL
REMARK 922        TOTAL FREE ENERGY PREDICTED BY IDOCK:   -6.71 KCAL/MOL
REMARK 923 INTER-LIGAND FREE ENERGY PREDICTED BY IDOCK:   -5.70 KCAL/MOL
REMARK 924 INTRA-LIGAND FREE ENERGY PREDICTED BY IDOCK:   -1.01 KCAL/MOL
REMARK 927      BINDING AFFINITY PREDICTED BY RF-SCORE:    0.00 PKD
ROOT
HETATM    1  C   UNL     1      -6.708  11.127  69.599  1.00  0.00    -0.134 C  
HETATM    2  C   UNL     1      -7.637  11.128  68.372  1.00  0.00    -0.110 C  
HETATM    3  C   UNL     1      -6.778  10.837  67.124  1.00  0.00    -0.084 C  
HETATM    4  C   UNL     1      -8.289  12.508  68.196  1.00  0.00    -0.175 C  
HETATM    5  N   UNL     1      -8.650  10.052  68.452  1.00  0.00    -0.111 NA 
HETATM    6  H   UNL     1      -8.195   9.140  68.437  1.00  0.00     0.000 HD 
ENDROOT
BRANCH   5   7
HETATM    7  C   UNL     1      -9.568  10.142  69.596  1.00  0.00    -0.210 C  
BRANCH   7   8
HETATM    8  C   UNL     1     -10.976   9.566  69.338  1.00  0.00    -0.170 C  
HETATM    9  O   UNL     1     -11.240   9.644  67.928  1.00  0.00    -0.519 OA 
HETATM   10  H   UNL     1     -12.107   9.290  67.770  1.00  0.00     0.000 HD 
BRANCH   8  11
HETATM   11  C   UNL     1     -12.062  10.339  70.092  1.00  0.00    -0.202 C  
BRANCH  11  12
HETATM   12  O   UNL     1     -12.615  11.334  69.215  1.00  0.00    -0.289 OA 
BRANCH  12  13
HETATM   13  C   UNL     1     -12.356  12.627  69.604  1.00  0.00     0.015 A  
HETATM   14  C   UNL     1     -12.457  13.052  70.936  1.00  0.00    -0.396 A  
HETATM   15  C   UNL     1     -12.242  14.387  71.270  1.00  0.00    -0.429 A  
HETATM   16  C   UNL     1     -11.884  15.295  70.278  1.00  0.00    -0.353 A  
HETATM   17  C   UNL     1     -11.720  14.864  68.957  1.00  0.00    -0.347 A  
HETATM   18  C   UNL     1     -11.963  13.525  68.598  1.00  0.00    -0.378 A  
HETATM   19  C   UNL     1     -11.769  13.050  67.177  1.00  0.00    -0.439 C  
HETATM   20  C   UNL     1     -11.802  14.191  66.167  1.00  0.00    -0.420 C  
HETATM   21  C   UNL     1     -10.867  15.311  66.585  1.00  0.00    -0.310 C  
HETATM   22  C   UNL     1     -11.259  15.846  67.942  1.00  0.00    -0.297 C  
HETATM   23  O   UNL     1     -11.141  17.033  68.227  1.00  0.00    -0.337 OA 
ENDBRANCH  12  13
ENDBRANCH  11  12
ENDBRANCH   8  11
ENDBRANCH   7   8
ENDBRANCH   5   7
TORSDOF 5
ENDMDL
MODEL      130
REMARK 921   NORMALIZED FREE ENERGY PREDICTED BY IDOCK:   -4.62 KCAL/MOL
REMARK 922        TOTAL FREE ENERGY PREDICTED BY IDOCK:   -6.70 KCAL/MOL
REMARK 923 INTER-LIGAND FREE ENERGY PREDICTED BY IDOCK:   -5.88 KCAL/MOL
REMARK 924 INTRA-LIGAND FREE ENERGY PREDICTED BY IDOCK:   -0.82 KCAL/MOL
REMARK 927      BINDING AFFINITY PREDICTED BY RF-SCORE:    0.00 PKD
ROOT
HETATM    1  C   UNL     1      -9.457  11.598  65.783  1.00  0.00    -0.244 C  
HETATM    2  C   UNL     1     -10.778  12.386  65.834  1.00  0.00    -0.266 C  
HETATM    3  C   UNL     1     -11.610  12.001  64.593  1.00  0.00    -0.364 C  
HETATM    4  C   UNL     1     -10.501  13.896  65.778  1.00  0.00    -0.313 C  
HETATM    5  N   UNL     1     -11.586  12.023  67.019  1.00  0.00    -0.504 NA 
HETATM    6  H   UNL     1     -11.865  11.043  66.967  1.00  0.00     0.000 HD 
ENDROOT
BRANCH   5   7
HETATM    7  C   UNL     1     -10.953  12.300  68.317  1.00  0.00    -0.232 C  
BRANCH   7   8
HETATM    8  C   UNL     1     -11.829  11.970  69.544  1.00  0.00    -0.326 C  
HETATM    9  O   UNL     1     -11.624  12.996  70.527  1.00  0.00    -0.515 OA 
HETATM   10  H   UNL     1     -12.164  12.793  71.283  1.00  0.00     0.000 HD 
BRANCH   8  11
HETATM   11  C   UNL     1     -11.473  10.613  70.157  1.00  0.00    -0.329 C  
BRANCH  11  12
HETATM   12  O   UNL     1     -10.940   9.765  69.128  1.00  0.00    -0.222 OA 
BRANCH  12  13
HETATM   13  C   UNL     1     -10.888   8.435  69.472  1.00  0.00    -0.117 A  
HETATM   14  C   UNL     1     -11.270   7.964  70.735  1.00  0.00    -0.274 A  
HETATM   15  C   UNL     1     -11.142   6.615  71.055  1.00  0.00    -0.330 A  
HETATM   16  C   UNL     1     -10.671   5.722  70.097  1.00  0.00    -0.390 A  
HETATM   17  C   UNL     1     -10.348   6.176  68.813  1.00  0.00    -0.256 A  
HETATM   18  C   UNL     1     -10.442   7.541  68.485  1.00  0.00    -0.211 A  
HETATM   19  C   UNL     1     -10.113   8.034  67.095  1.00  0.00    -0.334 C  
HETATM   20  C   UNL     1      -9.232   7.061  66.320  1.00  0.00    -0.166 C  
HETATM   21  C   UNL     1      -9.806   5.657  66.366  1.00  0.00    -0.184 C  
HETATM   22  C   UNL     1      -9.924   5.182  67.795  1.00  0.00    -0.156 C  
HETATM   23  O   UNL     1      -9.744   4.008  68.102  1.00  0.00    -0.149 OA 
ENDBRANCH  12  13
ENDBRANCH  11  12
ENDBRANCH   8  11
ENDBRANCH   7   8
ENDBRANCH   5   7
TORSDOF 5
ENDMDL
MODEL      131
REMARK 921   NORMALIZED FREE ENERGY PREDICTED BY IDOCK:   -4.61 KCAL/MOL
REMARK 922        TOTAL FREE ENERGY PREDICTED BY IDOCK:   -6.69 KCAL/MOL
REMARK 923 INTER-LIGAND FREE ENERGY PREDICTED BY IDOCK:   -5.74 KCAL/MOL
REMARK 924 INTRA-LIGAND FREE ENERGY PREDICTED BY IDOCK:   -0.95 KCAL/MOL
REMARK 927      BINDING AFFINITY PREDICTED BY RF-SCORE:    0.00 PKD
ROOT
HETATM    1  C   UNL     1     -10.339  16.879  67.009  1.00  0.00    -0.307 C  
HETATM    2  C   UNL     1     -10.767  15.535  67.624  1.00  0.00    -0.302 C  
HETATM    3  C   UNL     1     -11.688  15.833  68.826  1.00  0.00    -0.387 C  
HETATM    4  C   UNL     1      -9.540  14.768  68.137  1.00  0.00    -0.209 C  
HETATM    5  N   UNL     1     -11.558  14.726  66.672  1.00  0.00    -0.345 NA 
HETATM    6  H   UNL     1     -12.431  15.202  66.446  1.00  0.00     0.000 HD 
ENDROOT
BRANCH   5   7
HETATM    7  C   UNL     1     -10.854  14.347  65.438  1.00  0.00    -0.344 C  
BRANCH   7   8
HETATM    8  C   UNL     1     -11.579  13.286  64.583  1.00  0.00    -0.350 C  
HETATM    9  O   UNL     1     -12.986  13.378  64.856  1.00  0.00    -0.717 OA 
HETATM   10  H   UNL     1     -13.432  12.724  64.329  1.00  0.00     0.000 HD 
BRANCH   8  11
HETATM   11  C   UNL     1     -11.101  11.866  64.899  1.00  0.00    -0.307 C  
BRANCH  11  12
HETATM   12  O   UNL     1      -9.934  11.946  65.732  1.00  0.00    -0.225 OA 
BRANCH  12  13
HETATM   13  C   UNL     1     -10.113  11.431  66.994  1.00  0.00    -0.208 A  
HETATM   14  C   UNL     1     -11.378  11.283  67.580  1.00  0.00    -0.360 A  
HETATM   15  C   UNL     1     -11.504  10.813  68.884  1.00  0.00    -0.362 A  
HETATM   16  C   UNL     1     -10.365  10.447  69.596  1.00  0.00    -0.261 A  
HETATM   17  C   UNL     1      -9.104  10.533  68.994  1.00  0.00    -0.188 A  
HETATM   18  C   UNL     1      -8.958  11.036  67.689  1.00  0.00    -0.142 A  
HETATM   19  C   UNL     1      -7.601  11.112  67.028  1.00  0.00    -0.135 C  
HETATM   20  C   UNL     1      -6.457  11.094  68.034  1.00  0.00    -0.057 C  
HETATM   21  C   UNL     1      -6.613   9.943  69.011  1.00  0.00    -0.052 C  
HETATM   22  C   UNL     1      -7.921  10.058  69.757  1.00  0.00    -0.180 C  
HETATM   23  O   UNL     1      -8.028   9.713  70.930  1.00  0.00    -0.307 OA 
ENDBRANCH  12  13
ENDBRANCH  11  12
ENDBRANCH   8  11
ENDBRANCH   7   8
ENDBRANCH   5   7
TORSDOF 5
ENDMDL
MODEL      132
REMARK 921   NORMALIZED FREE ENERGY PREDICTED BY IDOCK:   -4.61 KCAL/MOL
REMARK 922        TOTAL FREE ENERGY PREDICTED BY IDOCK:   -6.68 KCAL/MOL
REMARK 923 INTER-LIGAND FREE ENERGY PREDICTED BY IDOCK:   -6.02 KCAL/MOL
REMARK 924 INTRA-LIGAND FREE ENERGY PREDICTED BY IDOCK:   -0.66 KCAL/MOL
REMARK 927      BINDING AFFINITY PREDICTED BY RF-SCORE:    0.00 PKD
ROOT
HETATM    1  C   UNL     1      -7.551   9.224  63.793  1.00  0.00    -0.112 C  
HETATM    2  C   UNL     1      -7.502   9.764  65.234  1.00  0.00    -0.120 C  
HETATM    3  C   UNL     1      -6.116  10.406  65.454  1.00  0.00    -0.132 C  
HETATM    4  C   UNL     1      -7.664   8.615  66.240  1.00  0.00    -0.098 C  
HETATM    5  N   UNL     1      -8.505  10.828  65.453  1.00  0.00    -0.249 NA 
HETATM    6  H   UNL     1      -8.298  11.633  64.863  1.00  0.00     0.000 HD 
ENDROOT
BRANCH   5   7
HETATM    7  C   UNL     1      -9.905  10.415  65.273  1.00  0.00    -0.297 C  
BRANCH   7   8
HETATM    8  C   UNL     1     -10.872  11.560  64.910  1.00  0.00    -0.283 C  
HETATM    9  O   UNL     1     -10.684  11.882  63.523  1.00  0.00    -0.384 OA 
HETATM   10  H   UNL     1     -11.279  12.588  63.300  1.00  0.00     0.000 HD 
BRANCH   8  11
HETATM   11  C   UNL     1     -10.622  12.815  65.752  1.00  0.00    -0.273 C  
BRANCH  11  12
HETATM   12  O   UNL     1     -10.548  12.437  67.136  1.00  0.00    -0.221 OA 
BRANCH  12  13
HETATM   13  C   UNL     1     -11.021  13.393  68.002  1.00  0.00    -0.244 A  
HETATM   14  C   UNL     1     -10.922  14.767  67.741  1.00  0.00    -0.294 A  
HETATM   15  C   UNL     1     -11.362  15.698  68.678  1.00  0.00    -0.359 A  
HETATM   16  C   UNL     1     -11.943  15.259  69.864  1.00  0.00    -0.373 A  
HETATM   17  C   UNL     1     -12.103  13.889  70.102  1.00  0.00    -0.418 A  
HETATM   18  C   UNL     1     -11.635  12.936  69.179  1.00  0.00    -0.375 A  
HETATM   19  C   UNL     1     -11.821  11.456  69.423  1.00  0.00    -0.419 C  
HETATM   20  C   UNL     1     -12.064  11.129  70.892  1.00  0.00    -0.427 C  
HETATM   21  C   UNL     1     -13.165  12.002  71.466  1.00  0.00    -0.276 C  
HETATM   22  C   UNL     1     -12.799  13.461  71.342  1.00  0.00    -0.333 C  
HETATM   23  O   UNL     1     -13.120  14.282  72.196  1.00  0.00    -0.335 OA 
ENDBRANCH  12  13
ENDBRANCH  11  12
ENDBRANCH   8  11
ENDBRANCH   7   8
ENDBRANCH   5   7
TORSDOF 5
ENDMDL
MODEL      133
REMARK 921   NORMALIZED FREE ENERGY PREDICTED BY IDOCK:   -4.59 KCAL/MOL
REMARK 922        TOTAL FREE ENERGY PREDICTED BY IDOCK:   -6.67 KCAL/MOL
REMARK 923 INTER-LIGAND FREE ENERGY PREDICTED BY IDOCK:   -5.62 KCAL/MOL
REMARK 924 INTRA-LIGAND FREE ENERGY PREDICTED BY IDOCK:   -1.05 KCAL/MOL
REMARK 927      BINDING AFFINITY PREDICTED BY RF-SCORE:    0.00 PKD
ROOT
HETATM    1  C   UNL     1      -9.724  10.261  63.420  1.00  0.00    -0.243 C  
HETATM    2  C   UNL     1      -9.238  10.342  64.878  1.00  0.00    -0.221 C  
HETATM    3  C   UNL     1      -7.821   9.734  64.942  1.00  0.00    -0.133 C  
HETATM    4  C   UNL     1     -10.156   9.519  65.793  1.00  0.00    -0.223 C  
HETATM    5  N   UNL     1      -9.121  11.743  65.338  1.00  0.00    -0.418 NA 
HETATM    6  H   UNL     1      -8.410  12.233  64.796  1.00  0.00     0.000 HD 
ENDROOT
BRANCH   5   7
HETATM    7  C   UNL     1     -10.377  12.508  65.336  1.00  0.00    -0.282 C  
BRANCH   7   8
HETATM    8  C   UNL     1     -10.360  13.775  66.217  1.00  0.00    -0.294 C  
HETATM    9  O   UNL     1      -9.079  14.407  66.066  1.00  0.00    -0.502 OA 
HETATM   10  H   UNL     1      -9.069  15.187  66.609  1.00  0.00     0.000 HD 
BRANCH   8  11
HETATM   11  C   UNL     1     -10.585  13.451  67.696  1.00  0.00    -0.243 C  
BRANCH  11  12
HETATM   12  O   UNL     1      -9.969  12.188  67.993  1.00  0.00    -0.191 OA 
BRANCH  12  13
HETATM   13  C   UNL     1     -10.594  11.483  68.993  1.00  0.00    -0.173 A  
HETATM   14  C   UNL     1     -11.838  11.857  69.520  1.00  0.00    -0.395 A  
HETATM   15  C   UNL     1     -12.403  11.145  70.575  1.00  0.00    -0.454 A  
HETATM   16  C   UNL     1     -11.745  10.027  71.080  1.00  0.00    -0.479 A  
HETATM   17  C   UNL     1     -10.534   9.611  70.516  1.00  0.00    -0.367 A  
HETATM   18  C   UNL     1      -9.935  10.339  69.471  1.00  0.00    -0.252 A  
HETATM   19  C   UNL     1      -8.637   9.883  68.846  1.00  0.00    -0.135 C  
HETATM   20  C   UNL     1      -7.848   8.943  69.749  1.00  0.00    -0.090 C  
HETATM   21  C   UNL     1      -8.729   7.815  70.256  1.00  0.00    -0.143 C  
HETATM   22  C   UNL     1      -9.902   8.368  71.029  1.00  0.00    -0.187 C  
HETATM   23  O   UNL     1     -10.366   7.786  72.004  1.00  0.00    -0.198 OA 
ENDBRANCH  12  13
ENDBRANCH  11  12
ENDBRANCH   8  11
ENDBRANCH   7   8
ENDBRANCH   5   7
TORSDOF 5
ENDMDL
MODEL      134
REMARK 921   NORMALIZED FREE ENERGY PREDICTED BY IDOCK:   -4.58 KCAL/MOL
REMARK 922        TOTAL FREE ENERGY PREDICTED BY IDOCK:   -6.65 KCAL/MOL
REMARK 923 INTER-LIGAND FREE ENERGY PREDICTED BY IDOCK:   -5.92 KCAL/MOL
REMARK 924 INTRA-LIGAND FREE ENERGY PREDICTED BY IDOCK:   -0.73 KCAL/MOL
REMARK 927      BINDING AFFINITY PREDICTED BY RF-SCORE:    0.00 PKD
ROOT
HETATM    1  C   UNL     1      -9.114   6.062  68.494  1.00  0.00    -0.112 C  
HETATM    2  C   UNL     1      -9.391   6.931  67.254  1.00  0.00    -0.135 C  
HETATM    3  C   UNL     1     -10.833   6.645  66.786  1.00  0.00    -0.322 C  
HETATM    4  C   UNL     1      -8.432   6.556  66.114  1.00  0.00    -0.137 C  
HETATM    5  N   UNL     1      -9.324   8.374  67.571  1.00  0.00    -0.145 NA 
HETATM    6  H   UNL     1     -10.057   8.622  68.236  1.00  0.00     0.000 HD 
ENDROOT
BRANCH   5   7
HETATM    7  C   UNL     1      -8.019   8.848  68.055  1.00  0.00    -0.102 C  
BRANCH   7   8
HETATM    8  C   UNL     1      -8.094   9.974  69.107  1.00  0.00    -0.126 C  
HETATM    9  O   UNL     1      -8.910   9.516  70.196  1.00  0.00    -0.201 OA 
HETATM   10  H   UNL     1      -8.956  10.210  70.843  1.00  0.00     0.000 HD 
BRANCH   8  11
HETATM   11  C   UNL     1      -8.702  11.258  68.534  1.00  0.00    -0.156 C  
BRANCH  11  12
HETATM   12  O   UNL     1     -10.078  11.012  68.206  1.00  0.00    -0.166 OA 
BRANCH  12  13
HETATM   13  C   UNL     1     -10.754  12.124  67.763  1.00  0.00    -0.209 A  
HETATM   14  C   UNL     1     -11.242  13.110  68.632  1.00  0.00    -0.314 A  
HETATM   15  C   UNL     1     -11.973  14.188  68.140  1.00  0.00    -0.367 A  
HETATM   16  C   UNL     1     -12.182  14.308  66.769  1.00  0.00    -0.384 A  
HETATM   17  C   UNL     1     -11.642  13.362  65.891  1.00  0.00    -0.370 A  
HETATM   18  C   UNL     1     -10.929  12.250  66.375  1.00  0.00    -0.326 A  
HETATM   19  C   UNL     1     -10.328  11.235  65.431  1.00  0.00    -0.328 C  
HETATM   20  C   UNL     1     -10.982  11.256  64.054  1.00  0.00    -0.377 C  
HETATM   21  C   UNL     1     -11.037  12.669  63.502  1.00  0.00    -0.449 C  
HETATM   22  C   UNL     1     -11.819  13.567  64.430  1.00  0.00    -0.414 C  
HETATM   23  O   UNL     1     -12.524  14.478  64.006  1.00  0.00    -0.778 OA 
ENDBRANCH  12  13
ENDBRANCH  11  12
ENDBRANCH   8  11
ENDBRANCH   7   8
ENDBRANCH   5   7
TORSDOF 5
ENDMDL
MODEL      135
REMARK 921   NORMALIZED FREE ENERGY PREDICTED BY IDOCK:   -4.58 KCAL/MOL
REMARK 922        TOTAL FREE ENERGY PREDICTED BY IDOCK:   -6.65 KCAL/MOL
REMARK 923 INTER-LIGAND FREE ENERGY PREDICTED BY IDOCK:   -6.21 KCAL/MOL
REMARK 924 INTRA-LIGAND FREE ENERGY PREDICTED BY IDOCK:   -0.44 KCAL/MOL
REMARK 927      BINDING AFFINITY PREDICTED BY RF-SCORE:    0.00 PKD
ROOT
HETATM    1  C   UNL     1     -10.533   5.706  70.316  1.00  0.00    -0.363 C  
HETATM    2  C   UNL     1     -10.245   7.218  70.323  1.00  0.00    -0.199 C  
HETATM    3  C   UNL     1      -9.195   7.497  71.419  1.00  0.00    -0.150 C  
HETATM    4  C   UNL     1     -11.519   8.004  70.666  1.00  0.00    -0.237 C  
HETATM    5  N   UNL     1      -9.654   7.667  69.043  1.00  0.00    -0.150 NA 
HETATM    6  H   UNL     1      -8.746   7.226  68.901  1.00  0.00     0.000 HD 
ENDROOT
BRANCH   5   7
HETATM    7  C   UNL     1     -10.503   7.470  67.859  1.00  0.00    -0.204 C  
BRANCH   7   8
HETATM    8  C   UNL     1     -10.305   8.518  66.743  1.00  0.00    -0.276 C  
HETATM    9  O   UNL     1      -9.476   7.936  65.726  1.00  0.00    -0.415 OA 
HETATM   10  H   UNL     1      -9.354   8.581  65.039  1.00  0.00     0.000 HD 
BRANCH   8  11
HETATM   11  C   UNL     1      -9.636   9.793  67.263  1.00  0.00    -0.157 C  
BRANCH  11  12
HETATM   12  O   UNL     1     -10.574  10.877  67.174  1.00  0.00    -0.227 OA 
BRANCH  12  13
HETATM   13  C   UNL     1      -9.988  12.110  67.014  1.00  0.00    -0.202 A  
HETATM   14  C   UNL     1      -8.739  12.433  67.562  1.00  0.00    -0.179 A  
HETATM   15  C   UNL     1      -8.215  13.715  67.423  1.00  0.00    -0.187 A  
HETATM   16  C   UNL     1      -8.920  14.671  66.697  1.00  0.00    -0.267 A  
HETATM   17  C   UNL     1     -10.137  14.337  66.093  1.00  0.00    -0.325 A  
HETATM   18  C   UNL     1     -10.695  13.055  66.251  1.00  0.00    -0.290 A  
HETATM   19  C   UNL     1     -11.999  12.683  65.586  1.00  0.00    -0.507 C  
HETATM   20  C   UNL     1     -12.834  13.901  65.208  1.00  0.00    -0.437 C  
HETATM   21  C   UNL     1     -12.002  14.908  64.436  1.00  0.00    -0.408 C  
HETATM   22  C   UNL     1     -10.820  15.359  65.260  1.00  0.00    -0.409 C  
HETATM   23  O   UNL     1     -10.391  16.507  65.200  1.00  0.00    -0.618 OA 
ENDBRANCH  12  13
ENDBRANCH  11  12
ENDBRANCH   8  11
ENDBRANCH   7   8
ENDBRANCH   5   7
TORSDOF 5
ENDMDL
MODEL      136
REMARK 921   NORMALIZED FREE ENERGY PREDICTED BY IDOCK:   -4.58 KCAL/MOL
REMARK 922        TOTAL FREE ENERGY PREDICTED BY IDOCK:   -6.64 KCAL/MOL
REMARK 923 INTER-LIGAND FREE ENERGY PREDICTED BY IDOCK:   -6.24 KCAL/MOL
REMARK 924 INTRA-LIGAND FREE ENERGY PREDICTED BY IDOCK:   -0.40 KCAL/MOL
REMARK 927      BINDING AFFINITY PREDICTED BY RF-SCORE:    0.00 PKD
ROOT
HETATM    1  C   UNL     1     -10.709   5.733  66.819  1.00  0.00    -0.369 C  
HETATM    2  C   UNL     1     -10.153   6.189  68.179  1.00  0.00    -0.157 C  
HETATM    3  C   UNL     1      -9.054   5.191  68.603  1.00  0.00    -0.135 C  
HETATM    4  C   UNL     1     -11.260   6.166  69.244  1.00  0.00    -0.438 C  
HETATM    5  N   UNL     1      -9.509   7.518  68.089  1.00  0.00    -0.143 NA 
HETATM    6  H   UNL     1      -8.698   7.474  67.473  1.00  0.00     0.000 HD 
ENDROOT
BRANCH   5   7
HETATM    7  C   UNL     1     -10.398   8.616  67.679  1.00  0.00    -0.254 C  
BRANCH   7   8
HETATM    8  C   UNL     1     -10.420   9.820  68.644  1.00  0.00    -0.208 C  
HETATM    9  O   UNL     1     -11.782  10.057  69.031  1.00  0.00    -0.488 OA 
HETATM   10  H   UNL     1     -11.796  10.799  69.625  1.00  0.00     0.000 HD 
BRANCH   8  11
HETATM   11  C   UNL     1      -9.858  11.088  67.995  1.00  0.00    -0.171 C  
BRANCH  11  12
HETATM   12  O   UNL     1     -10.832  12.138  68.111  1.00  0.00    -0.203 OA 
BRANCH  12  13
HETATM   13  C   UNL     1     -10.396  13.356  67.649  1.00  0.00    -0.238 A  
HETATM   14  C   UNL     1      -9.352  14.068  68.256  1.00  0.00    -0.208 A  
HETATM   15  C   UNL     1      -8.987  15.327  67.786  1.00  0.00    -0.177 A  
HETATM   16  C   UNL     1      -9.637  15.863  66.678  1.00  0.00    -0.265 A  
HETATM   17  C   UNL     1     -10.637  15.130  66.029  1.00  0.00    -0.329 A  
HETATM   18  C   UNL     1     -11.038  13.870  66.510  1.00  0.00    -0.310 A  
HETATM   19  C   UNL     1     -12.104  13.067  65.801  1.00  0.00    -0.510 C  
HETATM   20  C   UNL     1     -12.991  13.927  64.909  1.00  0.00    -0.095 C  
HETATM   21  C   UNL     1     -12.153  14.800  63.993  1.00  0.00    -0.189 C  
HETATM   22  C   UNL     1     -11.252  15.701  64.803  1.00  0.00    -0.382 C  
HETATM   23  O   UNL     1     -10.978  16.839  64.436  1.00  0.00    -0.974 OA 
ENDBRANCH  12  13
ENDBRANCH  11  12
ENDBRANCH   8  11
ENDBRANCH   7   8
ENDBRANCH   5   7
TORSDOF 5
ENDMDL
MODEL      137
REMARK 921   NORMALIZED FREE ENERGY PREDICTED BY IDOCK:   -4.57 KCAL/MOL
REMARK 922        TOTAL FREE ENERGY PREDICTED BY IDOCK:   -6.64 KCAL/MOL
REMARK 923 INTER-LIGAND FREE ENERGY PREDICTED BY IDOCK:   -6.11 KCAL/MOL
REMARK 924 INTRA-LIGAND FREE ENERGY PREDICTED BY IDOCK:   -0.53 KCAL/MOL
REMARK 927      BINDING AFFINITY PREDICTED BY RF-SCORE:    0.00 PKD
ROOT
HETATM    1  C   UNL     1      -9.016  19.595  66.118  1.00  0.00    -0.375 C  
HETATM    2  C   UNL     1      -9.208  18.768  67.401  1.00  0.00    -0.282 C  
HETATM    3  C   UNL     1     -10.570  19.155  68.016  1.00  0.00    -0.405 C  
HETATM    4  C   UNL     1      -8.109  19.099  68.420  1.00  0.00    -0.378 C  
HETATM    5  N   UNL     1      -9.268  17.318  67.114  1.00  0.00    -0.231 NA 
HETATM    6  H   UNL     1     -10.083  17.106  66.539  1.00  0.00     0.000 HD 
ENDROOT
BRANCH   5   7
HETATM    7  C   UNL     1      -8.056  16.752  66.502  1.00  0.00    -0.294 C  
BRANCH   7   8
HETATM    8  C   UNL     1      -7.193  15.898  67.454  1.00  0.00    -0.195 C  
HETATM    9  O   UNL     1      -5.837  15.937  66.985  1.00  0.00    -0.329 OA 
HETATM   10  H   UNL     1      -5.306  15.411  67.571  1.00  0.00     0.000 HD 
BRANCH   8  11
HETATM   11  C   UNL     1      -7.661  14.441  67.505  1.00  0.00    -0.192 C  
BRANCH  11  12
HETATM   12  O   UNL     1      -8.924  14.336  66.828  1.00  0.00    -0.251 OA 
BRANCH  12  13
HETATM   13  C   UNL     1      -9.579  13.148  67.049  1.00  0.00    -0.241 A  
HETATM   14  C   UNL     1      -9.349  12.001  66.277  1.00  0.00    -0.228 A  
HETATM   15  C   UNL     1     -10.082  10.838  66.502  1.00  0.00    -0.277 A  
HETATM   16  C   UNL     1     -11.020  10.805  67.530  1.00  0.00    -0.372 A  
HETATM   17  C   UNL     1     -11.208  11.927  68.346  1.00  0.00    -0.312 A  
HETATM   18  C   UNL     1     -10.498  13.118  68.111  1.00  0.00    -0.255 A  
HETATM   19  C   UNL     1     -10.683  14.326  69.000  1.00  0.00    -0.259 C  
HETATM   20  C   UNL     1     -11.997  14.291  69.772  1.00  0.00    -0.394 C  
HETATM   21  C   UNL     1     -12.173  12.960  70.480  1.00  0.00    -0.395 C  
HETATM   22  C   UNL     1     -12.159  11.826  69.482  1.00  0.00    -0.250 C  
HETATM   23  O   UNL     1     -12.853  10.825  69.632  1.00  0.00    -0.193 OA 
ENDBRANCH  12  13
ENDBRANCH  11  12
ENDBRANCH   8  11
ENDBRANCH   7   8
ENDBRANCH   5   7
TORSDOF 5
ENDMDL
MODEL      138
REMARK 921   NORMALIZED FREE ENERGY PREDICTED BY IDOCK:   -4.56 KCAL/MOL
REMARK 922        TOTAL FREE ENERGY PREDICTED BY IDOCK:   -6.62 KCAL/MOL
REMARK 923 INTER-LIGAND FREE ENERGY PREDICTED BY IDOCK:   -5.73 KCAL/MOL
REMARK 924 INTRA-LIGAND FREE ENERGY PREDICTED BY IDOCK:   -0.89 KCAL/MOL
REMARK 927      BINDING AFFINITY PREDICTED BY RF-SCORE:    0.00 PKD
ROOT
HETATM    1  C   UNL     1     -10.343  12.506  64.455  1.00  0.00    -0.378 C  
HETATM    2  C   UNL     1     -11.825  12.835  64.705  1.00  0.00    -0.374 C  
HETATM    3  C   UNL     1     -12.665  12.069  63.662  1.00  0.00    -0.550 C  
HETATM    4  C   UNL     1     -12.078  14.338  64.516  1.00  0.00    -0.499 C  
HETATM    5  N   UNL     1     -12.272  12.369  66.036  1.00  0.00    -0.624 NA 
HETATM    6  H   UNL     1     -12.214  11.353  66.091  1.00  0.00     0.000 HD 
ENDROOT
BRANCH   5   7
HETATM    7  C   UNL     1     -11.572  12.977  67.178  1.00  0.00    -0.358 C  
BRANCH   7   8
HETATM    8  C   UNL     1     -11.468  12.074  68.424  1.00  0.00    -0.301 C  
HETATM    9  O   UNL     1     -11.332  12.917  69.578  1.00  0.00    -0.394 OA 
HETATM   10  H   UNL     1     -11.267  12.360  70.346  1.00  0.00     0.000 HD 
BRANCH   8  11
HETATM   11  C   UNL     1     -10.265  11.129  68.352  1.00  0.00    -0.188 C  
BRANCH  11  12
HETATM   12  O   UNL     1     -10.388  10.312  67.178  1.00  0.00    -0.212 OA 
BRANCH  12  13
HETATM   13  C   UNL     1      -9.260   9.582  66.885  1.00  0.00    -0.143 A  
HETATM   14  C   UNL     1      -8.029  10.180  66.582  1.00  0.00    -0.116 A  
HETATM   15  C   UNL     1      -6.930   9.398  66.233  1.00  0.00    -0.087 A  
HETATM   16  C   UNL     1      -7.047   8.012  66.226  1.00  0.00    -0.066 A  
HETATM   17  C   UNL     1      -8.256   7.407  66.589  1.00  0.00    -0.125 A  
HETATM   18  C   UNL     1      -9.384   8.184  66.914  1.00  0.00    -0.219 A  
HETATM   19  C   UNL     1     -10.686   7.536  67.324  1.00  0.00    -0.365 C  
HETATM   20  C   UNL     1     -10.790   6.086  66.866  1.00  0.00    -0.396 C  
HETATM   21  C   UNL     1      -9.551   5.304  67.260  1.00  0.00    -0.147 C  
HETATM   22  C   UNL     1      -8.318   5.924  66.647  1.00  0.00    -0.110 C  
HETATM   23  O   UNL     1      -7.371   5.242  66.269  1.00  0.00    -0.079 OA 
ENDBRANCH  12  13
ENDBRANCH  11  12
ENDBRANCH   8  11
ENDBRANCH   7   8
ENDBRANCH   5   7
TORSDOF 5
ENDMDL
MODEL      139
REMARK 921   NORMALIZED FREE ENERGY PREDICTED BY IDOCK:   -4.53 KCAL/MOL
REMARK 922        TOTAL FREE ENERGY PREDICTED BY IDOCK:   -6.58 KCAL/MOL
REMARK 923 INTER-LIGAND FREE ENERGY PREDICTED BY IDOCK:   -6.01 KCAL/MOL
REMARK 924 INTRA-LIGAND FREE ENERGY PREDICTED BY IDOCK:   -0.57 KCAL/MOL
REMARK 927      BINDING AFFINITY PREDICTED BY RF-SCORE:    0.00 PKD
ROOT
HETATM    1  C   UNL     1     -10.111  12.129  64.025  1.00  0.00    -0.357 C  
HETATM    2  C   UNL     1     -11.122  12.566  65.100  1.00  0.00    -0.299 C  
HETATM    3  C   UNL     1     -12.539  12.430  64.504  1.00  0.00    -0.477 C  
HETATM    4  C   UNL     1     -10.898  14.038  65.477  1.00  0.00    -0.311 C  
HETATM    5  N   UNL     1     -11.074  11.684  66.287  1.00  0.00    -0.304 NA 
HETATM    6  H   UNL     1     -11.352  10.737  66.033  1.00  0.00     0.000 HD 
ENDROOT
BRANCH   5   7
HETATM    7  C   UNL     1      -9.785  11.660  66.996  1.00  0.00    -0.186 C  
BRANCH   7   8
HETATM    8  C   UNL     1      -9.011  10.331  66.878  1.00  0.00    -0.136 C  
HETATM    9  O   UNL     1      -9.862   9.373  66.231  1.00  0.00    -0.239 OA 
HETATM   10  H   UNL     1      -9.385   8.555  66.159  1.00  0.00     0.000 HD 
BRANCH   8  11
HETATM   11  C   UNL     1      -8.593   9.784  68.246  1.00  0.00    -0.119 C  
BRANCH  11  12
HETATM   12  O   UNL     1      -9.676   9.974  69.170  1.00  0.00    -0.186 OA 
BRANCH  12  13
HETATM   13  C   UNL     1     -10.245   8.804  69.611  1.00  0.00    -0.210 A  
HETATM   14  C   UNL     1      -9.710   7.542  69.316  1.00  0.00    -0.163 A  
HETATM   15  C   UNL     1     -10.357   6.383  69.735  1.00  0.00    -0.246 A  
HETATM   16  C   UNL     1     -11.522   6.481  70.491  1.00  0.00    -0.448 A  
HETATM   17  C   UNL     1     -12.027   7.737  70.843  1.00  0.00    -0.229 A  
HETATM   18  C   UNL     1     -11.402   8.918  70.401  1.00  0.00    -0.229 A  
HETATM   19  C   UNL     1     -11.931  10.277  70.794  1.00  0.00    -0.456 C  
HETATM   20  C   UNL     1     -13.391  10.234  71.232  1.00  0.00    -0.369 C  
HETATM   21  C   UNL     1     -13.612   9.151  72.272  1.00  0.00    -0.548 C  
HETATM   22  C   UNL     1     -13.227   7.801  71.717  1.00  0.00    -0.318 C  
HETATM   23  O   UNL     1     -13.833   6.779  72.023  1.00  0.00    -0.180 OA 
ENDBRANCH  12  13
ENDBRANCH  11  12
ENDBRANCH   8  11
ENDBRANCH   7   8
ENDBRANCH   5   7
TORSDOF 5
ENDMDL
MODEL      140
REMARK 921   NORMALIZED FREE ENERGY PREDICTED BY IDOCK:   -4.51 KCAL/MOL
REMARK 922        TOTAL FREE ENERGY PREDICTED BY IDOCK:   -6.56 KCAL/MOL
REMARK 923 INTER-LIGAND FREE ENERGY PREDICTED BY IDOCK:   -6.07 KCAL/MOL
REMARK 924 INTRA-LIGAND FREE ENERGY PREDICTED BY IDOCK:   -0.50 KCAL/MOL
REMARK 927      BINDING AFFINITY PREDICTED BY RF-SCORE:    0.00 PKD
ROOT
HETATM    1  C   UNL     1     -10.913  16.548  68.107  1.00  0.00    -0.336 C  
HETATM    2  C   UNL     1     -11.212  15.079  68.455  1.00  0.00    -0.293 C  
HETATM    3  C   UNL     1     -11.868  15.045  69.851  1.00  0.00    -0.362 C  
HETATM    4  C   UNL     1      -9.909  14.269  68.516  1.00  0.00    -0.231 C  
HETATM    5  N   UNL     1     -12.184  14.481  67.513  1.00  0.00    -0.608 NA 
HETATM    6  H   UNL     1     -13.082  14.958  67.585  1.00  0.00     0.000 HD 
ENDROOT
BRANCH   5   7
HETATM    7  C   UNL     1     -11.747  14.435  66.110  1.00  0.00    -0.378 C  
BRANCH   7   8
HETATM    8  C   UNL     1     -11.791  13.033  65.468  1.00  0.00    -0.395 C  
HETATM    9  O   UNL     1     -13.070  12.871  64.833  1.00  0.00    -0.799 OA 
HETATM   10  H   UNL     1     -13.097  12.008  64.439  1.00  0.00     0.000 HD 
BRANCH   8  11
HETATM   11  C   UNL     1     -11.604  11.919  66.502  1.00  0.00    -0.255 C  
BRANCH  11  12
HETATM   12  O   UNL     1     -10.224  11.520  66.508  1.00  0.00    -0.207 OA 
BRANCH  12  13
HETATM   13  C   UNL     1     -10.037  10.159  66.548  1.00  0.00    -0.234 A  
HETATM   14  C   UNL     1     -10.657   9.336  67.498  1.00  0.00    -0.329 A  
HETATM   15  C   UNL     1     -10.388   7.970  67.534  1.00  0.00    -0.330 A  
HETATM   16  C   UNL     1      -9.529   7.413  66.591  1.00  0.00    -0.240 A  
HETATM   17  C   UNL     1      -8.957   8.220  65.600  1.00  0.00    -0.157 A  
HETATM   18  C   UNL     1      -9.194   9.606  65.570  1.00  0.00    -0.291 A  
HETATM   19  C   UNL     1      -8.594  10.478  64.491  1.00  0.00    -0.165 C  
HETATM   20  C   UNL     1      -7.382   9.836  63.825  1.00  0.00    -0.129 C  
HETATM   21  C   UNL     1      -7.696   8.419  63.381  1.00  0.00    -0.141 C  
HETATM   22  C   UNL     1      -8.109   7.576  64.564  1.00  0.00    -0.086 C  
HETATM   23  O   UNL     1      -7.818   6.386  64.643  1.00  0.00    -0.101 OA 
ENDBRANCH  12  13
ENDBRANCH  11  12
ENDBRANCH   8  11
ENDBRANCH   7   8
ENDBRANCH   5   7
TORSDOF 5
ENDMDL
MODEL      141
REMARK 921   NORMALIZED FREE ENERGY PREDICTED BY IDOCK:   -4.51 KCAL/MOL
REMARK 922        TOTAL FREE ENERGY PREDICTED BY IDOCK:   -6.56 KCAL/MOL
REMARK 923 INTER-LIGAND FREE ENERGY PREDICTED BY IDOCK:   -5.57 KCAL/MOL
REMARK 924 INTRA-LIGAND FREE ENERGY PREDICTED BY IDOCK:   -0.99 KCAL/MOL
REMARK 927      BINDING AFFINITY PREDICTED BY RF-SCORE:    0.00 PKD
ROOT
HETATM    1  C   UNL     1      -8.517   6.014  67.220  1.00  0.00    -0.104 C  
HETATM    2  C   UNL     1     -10.052   6.061  67.327  1.00  0.00    -0.169 C  
HETATM    3  C   UNL     1     -10.634   5.166  66.213  1.00  0.00    -0.325 C  
HETATM    4  C   UNL     1     -10.559   7.494  67.106  1.00  0.00    -0.415 C  
HETATM    5  N   UNL     1     -10.528   5.506  68.613  1.00  0.00    -0.189 NA 
HETATM    6  H   UNL     1     -10.289   4.516  68.678  1.00  0.00     0.000 HD 
ENDROOT
BRANCH   5   7
HETATM    7  C   UNL     1     -10.063   6.219  69.812  1.00  0.00    -0.176 C  
BRANCH   7   8
HETATM    8  C   UNL     1     -11.189   6.689  70.757  1.00  0.00    -0.315 C  
HETATM    9  O   UNL     1     -12.398   6.802  69.991  1.00  0.00    -0.605 OA 
HETATM   10  H   UNL     1     -13.091   7.092  70.573  1.00  0.00     0.000 HD 
BRANCH   8  11
HETATM   11  C   UNL     1     -10.875   8.045  71.396  1.00  0.00    -0.231 C  
BRANCH  11  12
HETATM   12  O   UNL     1     -10.138   8.841  70.455  1.00  0.00    -0.181 OA 
BRANCH  12  13
HETATM   13  C   UNL     1     -10.750  10.028  70.128  1.00  0.00    -0.307 A  
HETATM   14  C   UNL     1     -11.916  10.479  70.762  1.00  0.00    -0.472 A  
HETATM   15  C   UNL     1     -12.531  11.660  70.353  1.00  0.00    -0.304 A  
HETATM   16  C   UNL     1     -11.959  12.417  69.335  1.00  0.00    -0.319 A  
HETATM   17  C   UNL     1     -10.761  12.004  68.741  1.00  0.00    -0.252 A  
HETATM   18  C   UNL     1     -10.144  10.798  69.122  1.00  0.00    -0.224 A  
HETATM   19  C   UNL     1      -8.840  10.357  68.497  1.00  0.00    -0.142 C  
HETATM   20  C   UNL     1      -8.576  11.028  67.154  1.00  0.00    -0.136 C  
HETATM   21  C   UNL     1      -8.742  12.533  67.260  1.00  0.00    -0.193 C  
HETATM   22  C   UNL     1     -10.140  12.879  67.714  1.00  0.00    -0.229 C  
HETATM   23  O   UNL     1     -10.723  13.879  67.308  1.00  0.00    -0.280 OA 
ENDBRANCH  12  13
ENDBRANCH  11  12
ENDBRANCH   8  11
ENDBRANCH   7   8
ENDBRANCH   5   7
TORSDOF 5
ENDMDL
MODEL      142
REMARK 921   NORMALIZED FREE ENERGY PREDICTED BY IDOCK:   -4.50 KCAL/MOL
REMARK 922        TOTAL FREE ENERGY PREDICTED BY IDOCK:   -6.55 KCAL/MOL
REMARK 923 INTER-LIGAND FREE ENERGY PREDICTED BY IDOCK:   -5.80 KCAL/MOL
REMARK 924 INTRA-LIGAND FREE ENERGY PREDICTED BY IDOCK:   -0.75 KCAL/MOL
REMARK 927      BINDING AFFINITY PREDICTED BY RF-SCORE:    0.00 PKD
ROOT
HETATM    1  C   UNL     1      -6.698  14.235  69.865  1.00  0.00    -0.068 C  
HETATM    2  C   UNL     1      -7.439  14.666  68.587  1.00  0.00    -0.125 C  
HETATM    3  C   UNL     1      -7.013  13.718  67.447  1.00  0.00    -0.066 C  
HETATM    4  C   UNL     1      -7.041  16.097  68.196  1.00  0.00    -0.137 C  
HETATM    5  N   UNL     1      -8.905  14.527  68.731  1.00  0.00    -0.252 NA 
HETATM    6  H   UNL     1      -9.153  13.547  68.862  1.00  0.00     0.000 HD 
ENDROOT
BRANCH   5   7
HETATM    7  C   UNL     1      -9.510  15.349  69.790  1.00  0.00    -0.149 C  
BRANCH   7   8
HETATM    8  C   UNL     1     -11.012  15.643  69.597  1.00  0.00    -0.288 C  
HETATM    9  O   UNL     1     -11.697  15.287  70.808  1.00  0.00    -0.283 OA 
HETATM   10  H   UNL     1     -12.622  15.468  70.689  1.00  0.00     0.000 HD 
BRANCH   8  11
HETATM   11  C   UNL     1     -11.610  14.847  68.434  1.00  0.00    -0.325 C  
BRANCH  11  12
HETATM   12  O   UNL     1     -12.334  13.725  68.964  1.00  0.00    -0.302 OA 
BRANCH  12  13
HETATM   13  C   UNL     1     -11.788  12.506  68.641  1.00  0.00    -0.297 A  
HETATM   14  C   UNL     1     -11.148  12.262  67.418  1.00  0.00    -0.333 A  
HETATM   15  C   UNL     1     -10.664  10.993  67.113  1.00  0.00    -0.313 A  
HETATM   16  C   UNL     1     -10.782   9.969  68.049  1.00  0.00    -0.303 A  
HETATM   17  C   UNL     1     -11.363  10.222  69.296  1.00  0.00    -0.253 A  
HETATM   18  C   UNL     1     -11.884  11.491  69.607  1.00  0.00    -0.421 A  
HETATM   19  C   UNL     1     -12.496  11.775  70.960  1.00  0.00    -0.411 C  
HETATM   20  C   UNL     1     -12.933  10.507  71.683  1.00  0.00    -0.581 C  
HETATM   21  C   UNL     1     -11.813   9.482  71.705  1.00  0.00    -0.468 C  
HETATM   22  C   UNL     1     -11.398   9.125  70.298  1.00  0.00    -0.188 C  
HETATM   23  O   UNL     1     -11.036   7.992  69.999  1.00  0.00    -0.238 OA 
ENDBRANCH  12  13
ENDBRANCH  11  12
ENDBRANCH   8  11
ENDBRANCH   7   8
ENDBRANCH   5   7
TORSDOF 5
ENDMDL
MODEL      143
REMARK 921   NORMALIZED FREE ENERGY PREDICTED BY IDOCK:   -4.45 KCAL/MOL
REMARK 922        TOTAL FREE ENERGY PREDICTED BY IDOCK:   -6.48 KCAL/MOL
REMARK 923 INTER-LIGAND FREE ENERGY PREDICTED BY IDOCK:   -6.07 KCAL/MOL
REMARK 924 INTRA-LIGAND FREE ENERGY PREDICTED BY IDOCK:   -0.41 KCAL/MOL
REMARK 927      BINDING AFFINITY PREDICTED BY RF-SCORE:    0.00 PKD
ROOT
HETATM    1  C   UNL     1     -10.291  17.037  67.773  1.00  0.00    -0.335 C  
HETATM    2  C   UNL     1      -9.982  15.836  66.862  1.00  0.00    -0.243 C  
HETATM    3  C   UNL     1      -8.479  15.877  66.513  1.00  0.00    -0.348 C  
HETATM    4  C   UNL     1     -10.782  15.937  65.555  1.00  0.00    -0.386 C  
HETATM    5  N   UNL     1     -10.223  14.550  67.551  1.00  0.00    -0.232 NA 
HETATM    6  H   UNL     1      -9.588  14.450  68.343  1.00  0.00     0.000 HD 
ENDROOT
BRANCH   5   7
HETATM    7  C   UNL     1     -11.610  14.323  67.984  1.00  0.00    -0.332 C  
BRANCH   7   8
HETATM    8  C   UNL     1     -11.808  13.094  68.896  1.00  0.00    -0.320 C  
HETATM    9  O   UNL     1     -11.499  13.483  70.243  1.00  0.00    -0.506 OA 
HETATM   10  H   UNL     1     -11.621  12.725  70.804  1.00  0.00     0.000 HD 
BRANCH   8  11
HETATM   11  C   UNL     1     -10.901  11.927  68.493  1.00  0.00    -0.221 C  
BRANCH  11  12
HETATM   12  O   UNL     1     -11.214  10.793  69.317  1.00  0.00    -0.230 OA 
BRANCH  12  13
HETATM   13  C   UNL     1     -10.113  10.185  69.871  1.00  0.00    -0.222 A  
HETATM   14  C   UNL     1      -8.807  10.428  69.423  1.00  0.00    -0.138 A  
HETATM   15  C   UNL     1      -7.730   9.742  69.978  1.00  0.00    -0.179 A  
HETATM   16  C   UNL     1      -7.950   8.839  71.014  1.00  0.00    -0.170 A  
HETATM   17  C   UNL     1      -9.243   8.639  71.509  1.00  0.00    -0.316 A  
HETATM   18  C   UNL     1     -10.346   9.301  70.938  1.00  0.00    -0.367 A  
HETATM   19  C   UNL     1     -11.742   9.103  71.480  1.00  0.00    -0.433 C  
HETATM   20  C   UNL     1     -11.883   7.816  72.285  1.00  0.00    -0.378 C  
HETATM   21  C   UNL     1     -10.785   7.707  73.327  1.00  0.00    -0.409 C  
HETATM   22  C   UNL     1      -9.427   7.728  72.667  1.00  0.00    -0.193 C  
HETATM   23  O   UNL     1      -8.486   7.072  73.104  1.00  0.00    -0.115 OA 
ENDBRANCH  12  13
ENDBRANCH  11  12
ENDBRANCH   8  11
ENDBRANCH   7   8
ENDBRANCH   5   7
TORSDOF 5
ENDMDL
MODEL      144
REMARK 921   NORMALIZED FREE ENERGY PREDICTED BY IDOCK:   -4.43 KCAL/MOL
REMARK 922        TOTAL FREE ENERGY PREDICTED BY IDOCK:   -6.46 KCAL/MOL
REMARK 923 INTER-LIGAND FREE ENERGY PREDICTED BY IDOCK:   -5.77 KCAL/MOL
REMARK 924 INTRA-LIGAND FREE ENERGY PREDICTED BY IDOCK:   -0.69 KCAL/MOL
REMARK 927      BINDING AFFINITY PREDICTED BY RF-SCORE:    0.00 PKD
ROOT
HETATM    1  C   UNL     1      -8.442  10.318  67.041  1.00  0.00    -0.129 C  
HETATM    2  C   UNL     1      -9.830  10.027  66.443  1.00  0.00    -0.224 C  
HETATM    3  C   UNL     1     -10.011  10.926  65.202  1.00  0.00    -0.341 C  
HETATM    4  C   UNL     1     -10.931  10.378  67.455  1.00  0.00    -0.358 C  
HETATM    5  N   UNL     1      -9.943   8.628  65.976  1.00  0.00    -0.460 NA 
HETATM    6  H   UNL     1      -9.287   8.458  65.214  1.00  0.00     0.000 HD 
ENDROOT
BRANCH   5   7
HETATM    7  C   UNL     1      -9.782   7.606  67.021  1.00  0.00    -0.195 C  
BRANCH   7   8
HETATM    8  C   UNL     1      -9.898   6.151  66.521  1.00  0.00    -0.133 C  
HETATM    9  O   UNL     1     -11.290   5.849  66.344  1.00  0.00    -0.730 OA 
HETATM   10  H   UNL     1     -11.361   4.952  66.036  1.00  0.00     0.000 HD 
BRANCH   8  11
HETATM   11  C   UNL     1      -9.292   5.152  67.510  1.00  0.00    -0.121 C  
BRANCH  11  12
HETATM   12  O   UNL     1     -10.256   4.878  68.540  1.00  0.00    -0.128 OA 
BRANCH  12  13
HETATM   13  C   UNL     1      -9.787   5.091  69.814  1.00  0.00    -0.216 A  
HETATM   14  C   UNL     1      -8.609   4.504  70.296  1.00  0.00    -0.104 A  
HETATM   15  C   UNL     1      -8.207   4.703  71.614  1.00  0.00    -0.104 A  
HETATM   16  C   UNL     1      -8.960   5.526  72.446  1.00  0.00    -0.137 A  
HETATM   17  C   UNL     1     -10.102   6.167  71.952  1.00  0.00    -0.216 A  
HETATM   18  C   UNL     1     -10.538   5.951  70.632  1.00  0.00    -0.334 A  
HETATM   19  C   UNL     1     -11.760   6.654  70.088  1.00  0.00    -0.412 C  
HETATM   20  C   UNL     1     -12.688   7.155  71.189  1.00  0.00    -0.363 C  
HETATM   21  C   UNL     1     -11.917   7.951  72.226  1.00  0.00    -0.387 C  
HETATM   22  C   UNL     1     -10.835   7.100  72.846  1.00  0.00    -0.323 C  
HETATM   23  O   UNL     1     -10.518   7.216  74.026  1.00  0.00    -0.353 OA 
ENDBRANCH  12  13
ENDBRANCH  11  12
ENDBRANCH   8  11
ENDBRANCH   7   8
ENDBRANCH   5   7
TORSDOF 5
ENDMDL
MODEL      145
REMARK 921   NORMALIZED FREE ENERGY PREDICTED BY IDOCK:   -4.42 KCAL/MOL
REMARK 922        TOTAL FREE ENERGY PREDICTED BY IDOCK:   -6.45 KCAL/MOL
REMARK 923 INTER-LIGAND FREE ENERGY PREDICTED BY IDOCK:   -6.02 KCAL/MOL
REMARK 924 INTRA-LIGAND FREE ENERGY PREDICTED BY IDOCK:   -0.43 KCAL/MOL
REMARK 927      BINDING AFFINITY PREDICTED BY RF-SCORE:    0.00 PKD
ROOT
HETATM    1  C   UNL     1      -9.731   3.629  64.808  1.00  0.00    -0.178 C  
HETATM    2  C   UNL     1      -8.709   4.634  64.249  1.00  0.00    -0.148 C  
HETATM    3  C   UNL     1      -8.909   4.716  62.721  1.00  0.00    -0.127 C  
HETATM    4  C   UNL     1      -7.278   4.148  64.521  1.00  0.00    -0.066 C  
HETATM    5  N   UNL     1      -8.933   5.996  64.781  1.00  0.00    -0.344 NA 
HETATM    6  H   UNL     1      -9.841   6.347  64.477  1.00  0.00     0.000 HD 
ENDROOT
BRANCH   5   7
HETATM    7  C   UNL     1      -8.802   6.127  66.240  1.00  0.00    -0.146 C  
BRANCH   7   8
HETATM    8  C   UNL     1      -9.198   7.509  66.800  1.00  0.00    -0.156 C  
HETATM    9  O   UNL     1     -10.632   7.591  66.814  1.00  0.00    -0.441 OA 
HETATM   10  H   UNL     1     -10.875   8.443  67.159  1.00  0.00     0.000 HD 
BRANCH   8  11
HETATM   11  C   UNL     1      -8.641   8.656  65.952  1.00  0.00    -0.157 C  
BRANCH  11  12
HETATM   12  O   UNL     1      -9.291   9.876  66.340  1.00  0.00    -0.155 OA 
BRANCH  12  13
HETATM   13  C   UNL     1      -9.750  10.624  65.282  1.00  0.00    -0.259 A  
HETATM   14  C   UNL     1      -9.443  10.320  63.948  1.00  0.00    -0.356 A  
HETATM   15  C   UNL     1      -9.882  11.144  62.915  1.00  0.00    -0.323 A  
HETATM   16  C   UNL     1     -10.667  12.255  63.208  1.00  0.00    -0.335 A  
HETATM   17  C   UNL     1     -11.030  12.528  64.531  1.00  0.00    -0.359 A  
HETATM   18  C   UNL     1     -10.569  11.723  65.589  1.00  0.00    -0.314 A  
HETATM   19  C   UNL     1     -10.973  12.003  67.018  1.00  0.00    -0.323 C  
HETATM   20  C   UNL     1     -11.449  13.437  67.223  1.00  0.00    -0.374 C  
HETATM   21  C   UNL     1     -12.497  13.812  66.191  1.00  0.00    -0.466 C  
HETATM   22  C   UNL     1     -11.935  13.677  64.796  1.00  0.00    -0.396 C  
HETATM   23  O   UNL     1     -12.260  14.440  63.892  1.00  0.00    -0.595 OA 
ENDBRANCH  12  13
ENDBRANCH  11  12
ENDBRANCH   8  11
ENDBRANCH   7   8
ENDBRANCH   5   7
TORSDOF 5
ENDMDL
MODEL      146
REMARK 921   NORMALIZED FREE ENERGY PREDICTED BY IDOCK:   -4.42 KCAL/MOL
REMARK 922        TOTAL FREE ENERGY PREDICTED BY IDOCK:   -6.44 KCAL/MOL
REMARK 923 INTER-LIGAND FREE ENERGY PREDICTED BY IDOCK:   -5.30 KCAL/MOL
REMARK 924 INTRA-LIGAND FREE ENERGY PREDICTED BY IDOCK:   -1.14 KCAL/MOL
REMARK 927      BINDING AFFINITY PREDICTED BY RF-SCORE:    0.00 PKD
ROOT
HETATM    1  C   UNL     1      -9.765   6.834  68.432  1.00  0.00    -0.128 C  
HETATM    2  C   UNL     1      -9.285   5.623  69.252  1.00  0.00    -0.116 C  
HETATM    3  C   UNL     1      -7.742   5.638  69.262  1.00  0.00    -0.088 C  
HETATM    4  C   UNL     1      -9.749   4.315  68.594  1.00  0.00    -0.174 C  
HETATM    5  N   UNL     1      -9.721   5.711  70.662  1.00  0.00    -0.174 NA 
HETATM    6  H   UNL     1      -9.295   6.520  71.113  1.00  0.00     0.000 HD 
ENDROOT
BRANCH   5   7
HETATM    7  C   UNL     1     -11.178   5.726  70.866  1.00  0.00    -0.130 C  
BRANCH   7   8
HETATM    8  C   UNL     1     -11.623   6.076  72.302  1.00  0.00    -0.307 C  
HETATM    9  O   UNL     1     -12.816   6.871  72.219  1.00  0.00    -0.534 OA 
HETATM   10  H   UNL     1     -13.089   7.087  73.103  1.00  0.00     0.000 HD 
BRANCH   8  11
HETATM   11  C   UNL     1     -10.551   6.863  73.061  1.00  0.00    -0.278 C  
BRANCH  11  12
HETATM   12  O   UNL     1     -10.715   8.262  72.778  1.00  0.00    -0.343 OA 
BRANCH  12  13
HETATM   13  C   UNL     1      -9.827   8.752  71.852  1.00  0.00    -0.324 A  
HETATM   14  C   UNL     1      -8.452   8.481  71.903  1.00  0.00    -0.234 A  
HETATM   15  C   UNL     1      -7.584   9.050  70.975  1.00  0.00    -0.138 A  
HETATM   16  C   UNL     1      -8.092   9.862  69.965  1.00  0.00    -0.193 A  
HETATM   17  C   UNL     1      -9.471  10.085  69.871  1.00  0.00    -0.221 A  
HETATM   18  C   UNL     1     -10.357   9.542  70.819  1.00  0.00    -0.377 A  
HETATM   19  C   UNL     1     -11.848   9.764  70.711  1.00  0.00    -0.400 C  
HETATM   20  C   UNL     1     -12.201  10.975  69.855  1.00  0.00    -0.408 C  
HETATM   21  C   UNL     1     -11.478  10.923  68.521  1.00  0.00    -0.380 C  
HETATM   22  C   UNL     1      -9.983  10.891  68.733  1.00  0.00    -0.195 C  
HETATM   23  O   UNL     1      -9.209  11.449  67.961  1.00  0.00    -0.159 OA 
ENDBRANCH  12  13
ENDBRANCH  11  12
ENDBRANCH   8  11
ENDBRANCH   7   8
ENDBRANCH   5   7
TORSDOF 5
ENDMDL
MODEL      147
REMARK 921   NORMALIZED FREE ENERGY PREDICTED BY IDOCK:   -4.42 KCAL/MOL
REMARK 922        TOTAL FREE ENERGY PREDICTED BY IDOCK:   -6.44 KCAL/MOL
REMARK 923 INTER-LIGAND FREE ENERGY PREDICTED BY IDOCK:   -5.76 KCAL/MOL
REMARK 924 INTRA-LIGAND FREE ENERGY PREDICTED BY IDOCK:   -0.69 KCAL/MOL
REMARK 927      BINDING AFFINITY PREDICTED BY RF-SCORE:    0.00 PKD
ROOT
HETATM    1  C   UNL     1      -8.670   6.432  67.045  1.00  0.00    -0.115 C  
HETATM    2  C   UNL     1      -8.113   7.790  67.509  1.00  0.00    -0.124 C  
HETATM    3  C   UNL     1      -6.755   7.537  68.198  1.00  0.00    -0.058 C  
HETATM    4  C   UNL     1      -9.059   8.433  68.534  1.00  0.00    -0.136 C  
HETATM    5  N   UNL     1      -7.850   8.693  66.368  1.00  0.00    -0.097 NA 
HETATM    6  H   UNL     1      -7.123   8.300  65.769  1.00  0.00     0.000 HD 
ENDROOT
BRANCH   5   7
HETATM    7  C   UNL     1      -9.030   9.045  65.565  1.00  0.00    -0.204 C  
BRANCH   7   8
HETATM    8  C   UNL     1      -8.713   9.758  64.233  1.00  0.00    -0.206 C  
HETATM    9  O   UNL     1      -7.562  10.592  64.435  1.00  0.00    -0.346 OA 
HETATM   10  H   UNL     1      -7.368  11.031  63.615  1.00  0.00     0.000 HD 
BRANCH   8  11
HETATM   11  C   UNL     1      -9.880  10.625  63.752  1.00  0.00    -0.335 C  
BRANCH  11  12
HETATM   12  O   UNL     1     -10.849  10.724  64.807  1.00  0.00    -0.204 OA 
BRANCH  12  13
HETATM   13  C   UNL     1     -11.201  12.014  65.123  1.00  0.00    -0.315 A  
HETATM   14  C   UNL     1     -11.444  12.994  64.150  1.00  0.00    -0.452 A  
HETATM   15  C   UNL     1     -11.738  14.303  64.522  1.00  0.00    -0.431 A  
HETATM   16  C   UNL     1     -11.834  14.630  65.872  1.00  0.00    -0.272 A  
HETATM   17  C   UNL     1     -11.656  13.642  66.847  1.00  0.00    -0.397 A  
HETATM   18  C   UNL     1     -11.327  12.322  66.488  1.00  0.00    -0.403 A  
HETATM   19  C   UNL     1     -11.152  11.248  67.536  1.00  0.00    -0.346 C  
HETATM   20  C   UNL     1     -10.865  11.819  68.920  1.00  0.00    -0.265 C  
HETATM   21  C   UNL     1     -11.877  12.890  69.284  1.00  0.00    -0.363 C  
HETATM   22  C   UNL     1     -11.844  14.012  68.274  1.00  0.00    -0.371 C  
HETATM   23  O   UNL     1     -12.033  15.180  68.599  1.00  0.00    -0.315 OA 
ENDBRANCH  12  13
ENDBRANCH  11  12
ENDBRANCH   8  11
ENDBRANCH   7   8
ENDBRANCH   5   7
TORSDOF 5
ENDMDL
MODEL      148
REMARK 921   NORMALIZED FREE ENERGY PREDICTED BY IDOCK:   -4.42 KCAL/MOL
REMARK 922        TOTAL FREE ENERGY PREDICTED BY IDOCK:   -6.44 KCAL/MOL
REMARK 923 INTER-LIGAND FREE ENERGY PREDICTED BY IDOCK:   -6.04 KCAL/MOL
REMARK 924 INTRA-LIGAND FREE ENERGY PREDICTED BY IDOCK:   -0.41 KCAL/MOL
REMARK 927      BINDING AFFINITY PREDICTED BY RF-SCORE:    0.00 PKD
ROOT
HETATM    1  C   UNL     1      -6.965  14.524  69.945  1.00  0.00    -0.063 C  
HETATM    2  C   UNL     1      -7.667  15.181  68.743  1.00  0.00    -0.143 C  
HETATM    3  C   UNL     1      -7.166  14.485  67.460  1.00  0.00    -0.210 C  
HETATM    4  C   UNL     1      -7.298  16.670  68.658  1.00  0.00    -0.203 C  
HETATM    5  N   UNL     1      -9.132  14.984  68.790  1.00  0.00    -0.190 NA 
HETATM    6  H   UNL     1      -9.355  13.991  68.716  1.00  0.00     0.000 HD 
ENDROOT
BRANCH   5   7
HETATM    7  C   UNL     1      -9.804  15.567  69.961  1.00  0.00    -0.108 C  
BRANCH   7   8
HETATM    8  C   UNL     1     -11.329  15.744  69.806  1.00  0.00    -0.339 C  
HETATM    9  O   UNL     1     -11.977  14.921  70.788  1.00  0.00    -0.275 OA 
HETATM   10  H   UNL     1     -12.916  15.030  70.691  1.00  0.00     0.000 HD 
BRANCH   8  11
HETATM   11  C   UNL     1     -11.817  15.336  68.413  1.00  0.00    -0.260 C  
BRANCH  11  12
HETATM   12  O   UNL     1     -12.398  14.025  68.491  1.00  0.00    -0.265 OA 
BRANCH  12  13
HETATM   13  C   UNL     1     -11.663  13.050  67.859  1.00  0.00    -0.357 A  
HETATM   14  C   UNL     1     -10.802  12.184  68.547  1.00  0.00    -0.267 A  
HETATM   15  C   UNL     1     -10.034  11.253  67.854  1.00  0.00    -0.189 A  
HETATM   16  C   UNL     1     -10.155  11.154  66.471  1.00  0.00    -0.265 A  
HETATM   17  C   UNL     1     -11.060  11.972  65.786  1.00  0.00    -0.371 A  
HETATM   18  C   UNL     1     -11.820  12.939  66.468  1.00  0.00    -0.473 A  
HETATM   19  C   UNL     1     -12.812  13.812  65.735  1.00  0.00    -0.430 C  
HETATM   20  C   UNL     1     -12.530  13.893  64.239  1.00  0.00    -0.305 C  
HETATM   21  C   UNL     1     -12.358  12.507  63.645  1.00  0.00    -0.618 C  
HETATM   22  C   UNL     1     -11.219  11.781  64.321  1.00  0.00    -0.344 C  
HETATM   23  O   UNL     1     -10.488  11.011  63.706  1.00  0.00    -0.363 OA 
ENDBRANCH  12  13
ENDBRANCH  11  12
ENDBRANCH   8  11
ENDBRANCH   7   8
ENDBRANCH   5   7
TORSDOF 5
ENDMDL
MODEL      149
REMARK 921   NORMALIZED FREE ENERGY PREDICTED BY IDOCK:   -4.40 KCAL/MOL
REMARK 922        TOTAL FREE ENERGY PREDICTED BY IDOCK:   -6.42 KCAL/MOL
REMARK 923 INTER-LIGAND FREE ENERGY PREDICTED BY IDOCK:   -6.05 KCAL/MOL
REMARK 924 INTRA-LIGAND FREE ENERGY PREDICTED BY IDOCK:   -0.38 KCAL/MOL
REMARK 927      BINDING AFFINITY PREDICTED BY RF-SCORE:    0.00 PKD
ROOT
HETATM    1  C   UNL     1     -11.732  14.557  66.103  1.00  0.00    -0.355 C  
HETATM    2  C   UNL     1     -10.503  14.954  66.940  1.00  0.00    -0.280 C  
HETATM    3  C   UNL     1     -10.358  16.489  66.873  1.00  0.00    -0.300 C  
HETATM    4  C   UNL     1      -9.231  14.324  66.354  1.00  0.00    -0.226 C  
HETATM    5  N   UNL     1     -10.678  14.605  68.367  1.00  0.00    -0.235 NA 
HETATM    6  H   UNL     1     -11.452  15.135  68.766  1.00  0.00     0.000 HD 
ENDROOT
BRANCH   5   7
HETATM    7  C   UNL     1     -10.851  13.171  68.643  1.00  0.00    -0.259 C  
BRANCH   7   8
HETATM    8  C   UNL     1     -12.020  12.835  69.593  1.00  0.00    -0.288 C  
HETATM    9  O   UNL     1     -11.856  13.604  70.794  1.00  0.00    -0.500 OA 
HETATM   10  H   UNL     1     -12.575  13.397  71.378  1.00  0.00     0.000 HD 
BRANCH   8  11
HETATM   11  C   UNL     1     -12.058  11.347  69.955  1.00  0.00    -0.330 C  
BRANCH  11  12
HETATM   12  O   UNL     1     -10.722  10.822  69.899  1.00  0.00    -0.236 OA 
BRANCH  12  13
HETATM   13  C   UNL     1     -10.630   9.596  69.286  1.00  0.00    -0.219 A  
HETATM   14  C   UNL     1     -10.542   9.448  67.895  1.00  0.00    -0.293 A  
HETATM   15  C   UNL     1     -10.510   8.181  67.318  1.00  0.00    -0.379 A  
HETATM   16  C   UNL     1     -10.525   7.053  68.134  1.00  0.00    -0.242 A  
HETATM   17  C   UNL     1     -10.549   7.195  69.526  1.00  0.00    -0.247 A  
HETATM   18  C   UNL     1     -10.612   8.468  70.123  1.00  0.00    -0.238 A  
HETATM   19  C   UNL     1     -10.619   8.626  71.625  1.00  0.00    -0.374 C  
HETATM   20  C   UNL     1     -11.056   7.357  72.348  1.00  0.00    -0.331 C  
HETATM   21  C   UNL     1     -10.276   6.155  71.849  1.00  0.00    -0.231 C  
HETATM   22  C   UNL     1     -10.483   5.970  70.365  1.00  0.00    -0.246 C  
HETATM   23  O   UNL     1     -10.528   4.857  69.852  1.00  0.00    -0.238 OA 
ENDBRANCH  12  13
ENDBRANCH  11  12
ENDBRANCH   8  11
ENDBRANCH   7   8
ENDBRANCH   5   7
TORSDOF 5
ENDMDL
MODEL      150
REMARK 921   NORMALIZED FREE ENERGY PREDICTED BY IDOCK:   -4.39 KCAL/MOL
REMARK 922        TOTAL FREE ENERGY PREDICTED BY IDOCK:   -6.41 KCAL/MOL
REMARK 923 INTER-LIGAND FREE ENERGY PREDICTED BY IDOCK:   -5.05 KCAL/MOL
REMARK 924 INTRA-LIGAND FREE ENERGY PREDICTED BY IDOCK:   -1.35 KCAL/MOL
REMARK 927      BINDING AFFINITY PREDICTED BY RF-SCORE:    0.00 PKD
ROOT
HETATM    1  C   UNL     1      -9.013   9.489  63.179  1.00  0.00    -0.217 C  
HETATM    2  C   UNL     1      -8.995  10.156  64.566  1.00  0.00    -0.221 C  
HETATM    3  C   UNL     1      -7.522  10.335  64.989  1.00  0.00    -0.120 C  
HETATM    4  C   UNL     1      -9.687   9.256  65.600  1.00  0.00    -0.302 C  
HETATM    5  N   UNL     1      -9.595  11.508  64.531  1.00  0.00    -0.366 NA 
HETATM    6  H   UNL     1      -9.041  12.123  63.935  1.00  0.00     0.000 HD 
ENDROOT
BRANCH   5   7
HETATM    7  C   UNL     1     -11.009  11.554  64.129  1.00  0.00    -0.366 C  
BRANCH   7   8
HETATM    8  C   UNL     1     -11.865  12.578  64.904  1.00  0.00    -0.386 C  
HETATM    9  O   UNL     1     -12.304  13.585  63.978  1.00  0.00    -0.604 OA 
HETATM   10  H   UNL     1     -12.830  14.215  64.455  1.00  0.00     0.000 HD 
BRANCH   8  11
HETATM   11  C   UNL     1     -11.079  13.249  66.034  1.00  0.00    -0.283 C  
BRANCH  11  12
HETATM   12  O   UNL     1     -11.172  12.431  67.211  1.00  0.00    -0.268 OA 
BRANCH  12  13
HETATM   13  C   UNL     1      -9.962  12.176  67.810  1.00  0.00    -0.198 A  
HETATM   14  C   UNL     1      -8.815  12.943  67.560  1.00  0.00    -0.192 A  
HETATM   15  C   UNL     1      -7.598  12.608  68.146  1.00  0.00    -0.132 A  
HETATM   16  C   UNL     1      -7.530  11.527  69.021  1.00  0.00    -0.073 A  
HETATM   17  C   UNL     1      -8.685  10.797  69.325  1.00  0.00    -0.044 A  
HETATM   18  C   UNL     1      -9.915  11.104  68.717  1.00  0.00    -0.207 A  
HETATM   19  C   UNL     1     -11.169  10.331  69.056  1.00  0.00    -0.260 C  
HETATM   20  C   UNL     1     -10.870   8.965  69.663  1.00  0.00    -0.186 C  
HETATM   21  C   UNL     1      -9.880   9.086  70.807  1.00  0.00    -0.304 C  
HETATM   22  C   UNL     1      -8.589   9.702  70.325  1.00  0.00    -0.197 C  
HETATM   23  O   UNL     1      -7.502   9.365  70.783  1.00  0.00    -0.129 OA 
ENDBRANCH  12  13
ENDBRANCH  11  12
ENDBRANCH   8  11
ENDBRANCH   7   8
ENDBRANCH   5   7
TORSDOF 5
ENDMDL
MODEL      151
REMARK 921   NORMALIZED FREE ENERGY PREDICTED BY IDOCK:   -4.36 KCAL/MOL
REMARK 922        TOTAL FREE ENERGY PREDICTED BY IDOCK:   -6.37 KCAL/MOL
REMARK 923 INTER-LIGAND FREE ENERGY PREDICTED BY IDOCK:   -5.68 KCAL/MOL
REMARK 924 INTRA-LIGAND FREE ENERGY PREDICTED BY IDOCK:   -0.69 KCAL/MOL
REMARK 927      BINDING AFFINITY PREDICTED BY RF-SCORE:    0.00 PKD
ROOT
HETATM    1  C   UNL     1      -7.575  15.502  67.106  1.00  0.00    -0.253 C  
HETATM    2  C   UNL     1      -8.858  14.652  67.107  1.00  0.00    -0.221 C  
HETATM    3  C   UNL     1      -9.900  15.362  66.218  1.00  0.00    -0.320 C  
HETATM    4  C   UNL     1      -9.429  14.548  68.529  1.00  0.00    -0.211 C  
HETATM    5  N   UNL     1      -8.629  13.317  66.512  1.00  0.00    -0.425 NA 
HETATM    6  H   UNL     1      -8.375  13.409  65.529  1.00  0.00     0.000 HD 
ENDROOT
BRANCH   5   7
HETATM    7  C   UNL     1      -7.644  12.480  67.213  1.00  0.00    -0.131 C  
BRANCH   7   8
HETATM    8  C   UNL     1      -7.577  11.018  66.723  1.00  0.00    -0.139 C  
HETATM    9  O   UNL     1      -7.940  10.995  65.334  1.00  0.00    -0.357 OA 
HETATM   10  H   UNL     1      -7.898  10.095  65.033  1.00  0.00     0.000 HD 
BRANCH   8  11
HETATM   11  C   UNL     1      -8.527  10.105  67.503  1.00  0.00    -0.118 C  
BRANCH  11  12
HETATM   12  O   UNL     1      -8.929  10.776  68.708  1.00  0.00    -0.158 OA 
BRANCH  12  13
HETATM   13  C   UNL     1      -9.217   9.927  69.749  1.00  0.00    -0.227 A  
HETATM   14  C   UNL     1      -8.293   8.996  70.246  1.00  0.00    -0.167 A  
HETATM   15  C   UNL     1      -8.653   8.116  71.264  1.00  0.00    -0.162 A  
HETATM   16  C   UNL     1      -9.926   8.192  71.820  1.00  0.00    -0.264 A  
HETATM   17  C   UNL     1     -10.831   9.161  71.373  1.00  0.00    -0.419 A  
HETATM   18  C   UNL     1     -10.494  10.036  70.324  1.00  0.00    -0.331 A  
HETATM   19  C   UNL     1     -11.460  11.097  69.850  1.00  0.00    -0.386 C  
HETATM   20  C   UNL     1     -12.904  10.788  70.231  1.00  0.00    -0.226 C  
HETATM   21  C   UNL     1     -13.014  10.455  71.708  1.00  0.00    -0.580 C  
HETATM   22  C   UNL     1     -12.152   9.263  72.046  1.00  0.00    -0.336 C  
HETATM   23  O   UNL     1     -12.489   8.440  72.891  1.00  0.00    -0.248 OA 
ENDBRANCH  12  13
ENDBRANCH  11  12
ENDBRANCH   8  11
ENDBRANCH   7   8
ENDBRANCH   5   7
TORSDOF 5
ENDMDL
MODEL      152
REMARK 921   NORMALIZED FREE ENERGY PREDICTED BY IDOCK:   -4.36 KCAL/MOL
REMARK 922        TOTAL FREE ENERGY PREDICTED BY IDOCK:   -6.37 KCAL/MOL
REMARK 923 INTER-LIGAND FREE ENERGY PREDICTED BY IDOCK:   -5.75 KCAL/MOL
REMARK 924 INTRA-LIGAND FREE ENERGY PREDICTED BY IDOCK:   -0.62 KCAL/MOL
REMARK 927      BINDING AFFINITY PREDICTED BY RF-SCORE:    0.00 PKD
ROOT
HETATM    1  C   UNL     1      -7.953  16.080  66.626  1.00  0.00    -0.291 C  
HETATM    2  C   UNL     1      -7.455  16.599  67.986  1.00  0.00    -0.164 C  
HETATM    3  C   UNL     1      -6.593  17.853  67.730  1.00  0.00    -0.193 C  
HETATM    4  C   UNL     1      -6.576  15.543  68.672  1.00  0.00    -0.103 C  
HETATM    5  N   UNL     1      -8.576  17.023  68.854  1.00  0.00    -0.236 NA 
HETATM    6  H   UNL     1      -9.066  17.813  68.434  1.00  0.00     0.000 HD 
ENDROOT
BRANCH   5   7
HETATM    7  C   UNL     1      -9.532  15.962  69.204  1.00  0.00    -0.260 C  
BRANCH   7   8
HETATM    8  C   UNL     1     -11.012  16.394  69.174  1.00  0.00    -0.324 C  
HETATM    9  O   UNL     1     -11.447  16.596  70.528  1.00  0.00    -0.501 OA 
HETATM   10  H   UNL     1     -12.359  16.862  70.510  1.00  0.00     0.000 HD 
BRANCH   8  11
HETATM   11  C   UNL     1     -11.907  15.340  68.515  1.00  0.00    -0.281 C  
BRANCH  11  12
HETATM   12  O   UNL     1     -11.077  14.404  67.810  1.00  0.00    -0.271 OA 
BRANCH  12  13
HETATM   13  C   UNL     1     -11.278  13.095  68.175  1.00  0.00    -0.271 A  
HETATM   14  C   UNL     1     -11.930  12.730  69.361  1.00  0.00    -0.321 A  
HETATM   15  C   UNL     1     -12.056  11.389  69.716  1.00  0.00    -0.388 A  
HETATM   16  C   UNL     1     -11.566  10.403  68.864  1.00  0.00    -0.208 A  
HETATM   17  C   UNL     1     -10.970  10.759  67.648  1.00  0.00    -0.365 A  
HETATM   18  C   UNL     1     -10.808  12.110  67.290  1.00  0.00    -0.286 A  
HETATM   19  C   UNL     1     -10.183  12.498  65.971  1.00  0.00    -0.269 C  
HETATM   20  C   UNL     1      -9.337  11.382  65.371  1.00  0.00    -0.206 C  
HETATM   21  C   UNL     1     -10.109  10.076  65.337  1.00  0.00    -0.317 C  
HETATM   22  C   UNL     1     -10.532   9.676  66.730  1.00  0.00    -0.186 C  
HETATM   23  O   UNL     1     -10.579   8.501  67.079  1.00  0.00    -0.306 OA 
ENDBRANCH  12  13
ENDBRANCH  11  12
ENDBRANCH   8  11
ENDBRANCH   7   8
ENDBRANCH   5   7
TORSDOF 5
ENDMDL
MODEL      153
REMARK 921   NORMALIZED FREE ENERGY PREDICTED BY IDOCK:   -4.35 KCAL/MOL
REMARK 922        TOTAL FREE ENERGY PREDICTED BY IDOCK:   -6.35 KCAL/MOL
REMARK 923 INTER-LIGAND FREE ENERGY PREDICTED BY IDOCK:   -5.34 KCAL/MOL
REMARK 924 INTRA-LIGAND FREE ENERGY PREDICTED BY IDOCK:   -1.02 KCAL/MOL
REMARK 927      BINDING AFFINITY PREDICTED BY RF-SCORE:    0.00 PKD
ROOT
HETATM    1  C   UNL     1     -11.501  15.000  66.793  1.00  0.00    -0.252 C  
HETATM    2  C   UNL     1     -10.828  13.694  67.250  1.00  0.00    -0.284 C  
HETATM    3  C   UNL     1     -11.492  13.255  68.573  1.00  0.00    -0.347 C  
HETATM    4  C   UNL     1      -9.334  13.927  67.517  1.00  0.00    -0.217 C  
HETATM    5  N   UNL     1     -11.045  12.598  66.281  1.00  0.00    -0.282 NA 
HETATM    6  H   UNL     1     -12.038  12.375  66.218  1.00  0.00     0.000 HD 
ENDROOT
BRANCH   5   7
HETATM    7  C   UNL     1     -10.494  12.833  64.938  1.00  0.00    -0.321 C  
BRANCH   7   8
HETATM    8  C   UNL     1      -9.798  11.610  64.305  1.00  0.00    -0.230 C  
HETATM    9  O   UNL     1     -10.812  10.748  63.767  1.00  0.00    -0.490 OA 
HETATM   10  H   UNL     1     -10.383   9.995  63.377  1.00  0.00     0.000 HD 
BRANCH   8  11
HETATM   11  C   UNL     1      -8.967  10.827  65.326  1.00  0.00    -0.194 C  
BRANCH  11  12
HETATM   12  O   UNL     1      -9.814   9.859  65.966  1.00  0.00    -0.227 OA 
BRANCH  12  13
HETATM   13  C   UNL     1      -9.499   9.627  67.284  1.00  0.00    -0.143 A  
HETATM   14  C   UNL     1      -8.785  10.546  68.066  1.00  0.00    -0.128 A  
HETATM   15  C   UNL     1      -8.439  10.239  69.379  1.00  0.00    -0.170 A  
HETATM   16  C   UNL     1      -8.841   9.026  69.931  1.00  0.00    -0.164 A  
HETATM   17  C   UNL     1      -9.607   8.132  69.175  1.00  0.00    -0.157 A  
HETATM   18  C   UNL     1      -9.939   8.414  67.838  1.00  0.00    -0.228 A  
HETATM   19  C   UNL     1     -10.783   7.460  67.024  1.00  0.00    -0.389 C  
HETATM   20  C   UNL     1     -10.777   6.044  67.588  1.00  0.00    -0.377 C  
HETATM   21  C   UNL     1     -11.096   6.052  69.072  1.00  0.00    -0.377 C  
HETATM   22  C   UNL     1     -10.085   6.884  69.824  1.00  0.00    -0.184 C  
HETATM   23  O   UNL     1      -9.717   6.585  70.956  1.00  0.00    -0.175 OA 
ENDBRANCH  12  13
ENDBRANCH  11  12
ENDBRANCH   8  11
ENDBRANCH   7   8
ENDBRANCH   5   7
TORSDOF 5
ENDMDL
MODEL      154
REMARK 921   NORMALIZED FREE ENERGY PREDICTED BY IDOCK:   -4.35 KCAL/MOL
REMARK 922        TOTAL FREE ENERGY PREDICTED BY IDOCK:   -6.35 KCAL/MOL
REMARK 923 INTER-LIGAND FREE ENERGY PREDICTED BY IDOCK:   -5.60 KCAL/MOL
REMARK 924 INTRA-LIGAND FREE ENERGY PREDICTED BY IDOCK:   -0.75 KCAL/MOL
REMARK 927      BINDING AFFINITY PREDICTED BY RF-SCORE:    0.00 PKD
ROOT
HETATM    1  C   UNL     1     -12.858  13.048  65.559  1.00  0.00    -0.112 C  
HETATM    2  C   UNL     1     -11.695  13.529  64.673  1.00  0.00    -0.381 C  
HETATM    3  C   UNL     1     -12.072  14.912  64.102  1.00  0.00    -0.289 C  
HETATM    4  C   UNL     1     -11.486  12.565  63.496  1.00  0.00    -0.570 C  
HETATM    5  N   UNL     1     -10.453  13.715  65.454  1.00  0.00    -0.311 NA 
HETATM    6  H   UNL     1     -10.580  14.453  66.146  1.00  0.00     0.000 HD 
ENDROOT
BRANCH   5   7
HETATM    7  C   UNL     1      -9.932  12.500  66.099  1.00  0.00    -0.255 C  
BRANCH   7   8
HETATM    8  C   UNL     1      -8.667  12.718  66.955  1.00  0.00    -0.197 C  
HETATM    9  O   UNL     1      -8.504  11.577  67.811  1.00  0.00    -0.129 OA 
HETATM   10  H   UNL     1      -7.726  11.711  68.338  1.00  0.00     0.000 HD 
BRANCH   8  11
HETATM   11  C   UNL     1      -8.767  13.979  67.819  1.00  0.00    -0.185 C  
BRANCH  11  12
HETATM   12  O   UNL     1      -8.352  15.110  67.037  1.00  0.00    -0.202 OA 
BRANCH  12  13
HETATM   13  C   UNL     1      -8.813  16.315  67.511  1.00  0.00    -0.186 A  
HETATM   14  C   UNL     1      -9.927  16.422  68.354  1.00  0.00    -0.238 A  
HETATM   15  C   UNL     1     -10.390  17.671  68.760  1.00  0.00    -0.348 A  
HETATM   16  C   UNL     1      -9.715  18.819  68.357  1.00  0.00    -0.421 A  
HETATM   17  C   UNL     1      -8.564  18.716  67.567  1.00  0.00    -0.284 A  
HETATM   18  C   UNL     1      -8.102  17.463  67.123  1.00  0.00    -0.229 A  
HETATM   19  C   UNL     1      -6.849  17.344  66.286  1.00  0.00    -0.307 C  
HETATM   20  C   UNL     1      -6.484  18.649  65.589  1.00  0.00    -0.311 C  
HETATM   21  C   UNL     1      -6.471  19.804  66.574  1.00  0.00    -0.195 C  
HETATM   22  C   UNL     1      -7.825  19.958  67.223  1.00  0.00    -0.284 C  
HETATM   23  O   UNL     1      -8.277  21.059  67.522  1.00  0.00    -0.169 OA 
ENDBRANCH  12  13
ENDBRANCH  11  12
ENDBRANCH   8  11
ENDBRANCH   7   8
ENDBRANCH   5   7
TORSDOF 5
ENDMDL
MODEL      155
REMARK 921   NORMALIZED FREE ENERGY PREDICTED BY IDOCK:   -4.35 KCAL/MOL
REMARK 922        TOTAL FREE ENERGY PREDICTED BY IDOCK:   -6.35 KCAL/MOL
REMARK 923 INTER-LIGAND FREE ENERGY PREDICTED BY IDOCK:   -5.98 KCAL/MOL
REMARK 924 INTRA-LIGAND FREE ENERGY PREDICTED BY IDOCK:   -0.37 KCAL/MOL
REMARK 927      BINDING AFFINITY PREDICTED BY RF-SCORE:    0.00 PKD
ROOT
HETATM    1  C   UNL     1      -9.067  16.490  67.987  1.00  0.00    -0.209 C  
HETATM    2  C   UNL     1      -9.171  17.291  66.676  1.00  0.00    -0.257 C  
HETATM    3  C   UNL     1      -7.810  17.974  66.427  1.00  0.00    -0.304 C  
HETATM    4  C   UNL     1     -10.242  18.384  66.802  1.00  0.00    -0.410 C  
HETATM    5  N   UNL     1      -9.424  16.409  65.516  1.00  0.00    -0.430 NA 
HETATM    6  H   UNL     1      -8.636  15.776  65.377  1.00  0.00     0.000 HD 
ENDROOT
BRANCH   5   7
HETATM    7  C   UNL     1     -10.681  15.648  65.571  1.00  0.00    -0.389 C  
BRANCH   7   8
HETATM    8  C   UNL     1     -10.651  14.301  64.819  1.00  0.00    -0.412 C  
HETATM    9  O   UNL     1     -11.788  14.253  63.943  1.00  0.00    -0.663 OA 
HETATM   10  H   UNL     1     -11.769  13.424  63.480  1.00  0.00     0.000 HD 
BRANCH   8  11
HETATM   11  C   UNL     1     -10.707  13.106  65.774  1.00  0.00    -0.279 C  
BRANCH  11  12
HETATM   12  O   UNL     1     -10.662  11.895  65.004  1.00  0.00    -0.273 OA 
BRANCH  12  13
HETATM   13  C   UNL     1     -10.389  10.771  65.747  1.00  0.00    -0.230 A  
HETATM   14  C   UNL     1     -10.902  10.572  67.036  1.00  0.00    -0.288 A  
HETATM   15  C   UNL     1     -10.548   9.444  67.772  1.00  0.00    -0.317 A  
HETATM   16  C   UNL     1      -9.713   8.486  67.204  1.00  0.00    -0.251 A  
HETATM   17  C   UNL     1      -9.249   8.648  65.893  1.00  0.00    -0.264 A  
HETATM   18  C   UNL     1      -9.572   9.797  65.149  1.00  0.00    -0.356 A  
HETATM   19  C   UNL     1      -9.090   9.967  63.727  1.00  0.00    -0.302 C  
HETATM   20  C   UNL     1      -7.883   9.094  63.408  1.00  0.00    -0.132 C  
HETATM   21  C   UNL     1      -8.134   7.653  63.815  1.00  0.00    -0.036 C  
HETATM   22  C   UNL     1      -8.425   7.567  65.294  1.00  0.00    -0.063 C  
HETATM   23  O   UNL     1      -8.058   6.611  65.970  1.00  0.00    -0.110 OA 
ENDBRANCH  12  13
ENDBRANCH  11  12
ENDBRANCH   8  11
ENDBRANCH   7   8
ENDBRANCH   5   7
TORSDOF 5
ENDMDL
MODEL      156
REMARK 921   NORMALIZED FREE ENERGY PREDICTED BY IDOCK:   -4.31 KCAL/MOL
REMARK 922        TOTAL FREE ENERGY PREDICTED BY IDOCK:   -6.31 KCAL/MOL
REMARK 923 INTER-LIGAND FREE ENERGY PREDICTED BY IDOCK:   -5.69 KCAL/MOL
REMARK 924 INTRA-LIGAND FREE ENERGY PREDICTED BY IDOCK:   -0.61 KCAL/MOL
REMARK 927      BINDING AFFINITY PREDICTED BY RF-SCORE:    0.00 PKD
ROOT
HETATM    1  C   UNL     1      -6.319  10.486  63.157  1.00  0.00    -0.060 C  
HETATM    2  C   UNL     1      -6.848  10.028  64.528  1.00  0.00    -0.127 C  
HETATM    3  C   UNL     1      -5.752  10.309  65.578  1.00  0.00    -0.096 C  
HETATM    4  C   UNL     1      -7.126   8.518  64.516  1.00  0.00    -0.078 C  
HETATM    5  N   UNL     1      -8.040  10.800  64.940  1.00  0.00    -0.358 NA 
HETATM    6  H   UNL     1      -7.797  11.783  65.066  1.00  0.00     0.000 HD 
ENDROOT
BRANCH   5   7
HETATM    7  C   UNL     1      -9.203  10.677  64.049  1.00  0.00    -0.239 C  
BRANCH   7   8
HETATM    8  C   UNL     1     -10.300  11.740  64.271  1.00  0.00    -0.314 C  
HETATM    9  O   UNL     1      -9.977  12.889  63.473  1.00  0.00    -0.681 OA 
HETATM   10  H   UNL     1     -10.652  13.543  63.610  1.00  0.00     0.000 HD 
BRANCH   8  11
HETATM   11  C   UNL     1     -10.401  12.165  65.739  1.00  0.00    -0.258 C  
BRANCH  11  12
HETATM   12  O   UNL     1      -9.744  13.432  65.900  1.00  0.00    -0.262 OA 
BRANCH  12  13
HETATM   13  C   UNL     1     -10.304  14.231  66.869  1.00  0.00    -0.268 A  
HETATM   14  C   UNL     1     -11.361  13.805  67.685  1.00  0.00    -0.331 A  
HETATM   15  C   UNL     1     -11.933  14.672  68.612  1.00  0.00    -0.305 A  
HETATM   16  C   UNL     1     -11.422  15.959  68.756  1.00  0.00    -0.393 A  
HETATM   17  C   UNL     1     -10.326  16.369  67.989  1.00  0.00    -0.288 A  
HETATM   18  C   UNL     1      -9.757  15.514  67.027  1.00  0.00    -0.230 A  
HETATM   19  C   UNL     1      -8.561  15.945  66.210  1.00  0.00    -0.348 C  
HETATM   20  C   UNL     1      -8.396  17.460  66.165  1.00  0.00    -0.217 C  
HETATM   21  C   UNL     1      -8.445  18.051  67.562  1.00  0.00    -0.237 C  
HETATM   22  C   UNL     1      -9.759  17.721  68.228  1.00  0.00    -0.320 C  
HETATM   23  O   UNL     1     -10.311  18.506  68.993  1.00  0.00    -0.283 OA 
ENDBRANCH  12  13
ENDBRANCH  11  12
ENDBRANCH   8  11
ENDBRANCH   7   8
ENDBRANCH   5   7
TORSDOF 5
ENDMDL
MODEL      157
REMARK 921   NORMALIZED FREE ENERGY PREDICTED BY IDOCK:   -4.29 KCAL/MOL
REMARK 922        TOTAL FREE ENERGY PREDICTED BY IDOCK:   -6.28 KCAL/MOL
REMARK 923 INTER-LIGAND FREE ENERGY PREDICTED BY IDOCK:   -5.62 KCAL/MOL
REMARK 924 INTRA-LIGAND FREE ENERGY PREDICTED BY IDOCK:   -0.66 KCAL/MOL
REMARK 927      BINDING AFFINITY PREDICTED BY RF-SCORE:    0.00 PKD
ROOT
HETATM    1  C   UNL     1      -7.433  12.011  67.060  1.00  0.00    -0.106 C  
HETATM    2  C   UNL     1      -8.066  10.772  67.717  1.00  0.00    -0.111 C  
HETATM    3  C   UNL     1      -6.927   9.904  68.293  1.00  0.00    -0.072 C  
HETATM    4  C   UNL     1      -8.822   9.940  66.671  1.00  0.00    -0.149 C  
HETATM    5  N   UNL     1      -8.937  11.141  68.854  1.00  0.00    -0.328 NA 
HETATM    6  H   UNL     1      -8.385  11.578  69.592  1.00  0.00     0.000 HD 
ENDROOT
BRANCH   5   7
HETATM    7  C   UNL     1     -10.087  11.991  68.511  1.00  0.00    -0.196 C  
BRANCH   7   8
HETATM    8  C   UNL     1     -11.439  11.250  68.450  1.00  0.00    -0.307 C  
HETATM    9  O   UNL     1     -12.158  11.727  67.301  1.00  0.00    -0.595 OA 
HETATM   10  H   UNL     1     -12.991  11.271  67.264  1.00  0.00     0.000 HD 
BRANCH   8  11
HETATM   11  C   UNL     1     -12.285  11.490  69.703  1.00  0.00    -0.229 C  
BRANCH  11  12
HETATM   12  O   UNL     1     -11.643  10.861  70.823  1.00  0.00    -0.312 OA 
BRANCH  12  13
HETATM   13  C   UNL     1     -12.208   9.662  71.188  1.00  0.00    -0.350 A  
HETATM   14  C   UNL     1     -13.575   9.391  71.039  1.00  0.00    -0.120 A  
HETATM   15  C   UNL     1     -14.110   8.183  71.480  1.00  0.00    -0.464 A  
HETATM   16  C   UNL     1     -13.270   7.221  72.034  1.00  0.00    -0.181 A  
HETATM   17  C   UNL     1     -11.894   7.460  72.127  1.00  0.00    -0.323 A  
HETATM   18  C   UNL     1     -11.344   8.688  71.715  1.00  0.00    -0.393 A  
HETATM   19  C   UNL     1      -9.857   8.943  71.796  1.00  0.00    -0.386 C  
HETATM   20  C   UNL     1      -9.155   8.018  72.783  1.00  0.00    -0.303 C  
HETATM   21  C   UNL     1      -9.528   6.569  72.526  1.00  0.00    -0.148 C  
HETATM   22  C   UNL     1     -11.021   6.379  72.651  1.00  0.00    -0.253 C  
HETATM   23  O   UNL     1     -11.505   5.346  73.104  1.00  0.00    -0.292 OA 
ENDBRANCH  12  13
ENDBRANCH  11  12
ENDBRANCH   8  11
ENDBRANCH   7   8
ENDBRANCH   5   7
TORSDOF 5
ENDMDL
MODEL      158
REMARK 921   NORMALIZED FREE ENERGY PREDICTED BY IDOCK:   -4.29 KCAL/MOL
REMARK 922        TOTAL FREE ENERGY PREDICTED BY IDOCK:   -6.28 KCAL/MOL
REMARK 923 INTER-LIGAND FREE ENERGY PREDICTED BY IDOCK:   -5.90 KCAL/MOL
REMARK 924 INTRA-LIGAND FREE ENERGY PREDICTED BY IDOCK:   -0.37 KCAL/MOL
REMARK 927      BINDING AFFINITY PREDICTED BY RF-SCORE:    0.00 PKD
ROOT
HETATM    1  C   UNL     1     -10.058   8.459  69.157  1.00  0.00    -0.206 C  
HETATM    2  C   UNL     1      -8.743   7.819  68.676  1.00  0.00    -0.128 C  
HETATM    3  C   UNL     1      -8.787   6.319  69.035  1.00  0.00    -0.124 C  
HETATM    4  C   UNL     1      -7.545   8.452  69.400  1.00  0.00    -0.091 C  
HETATM    5  N   UNL     1      -8.600   7.901  67.207  1.00  0.00    -0.127 NA 
HETATM    6  H   UNL     1      -9.337   7.364  66.751  1.00  0.00     0.000 HD 
ENDROOT
BRANCH   5   7
HETATM    7  C   UNL     1      -8.554   9.265  66.659  1.00  0.00    -0.127 C  
BRANCH   7   8
HETATM    8  C   UNL     1      -9.485   9.505  65.451  1.00  0.00    -0.269 C  
HETATM    9  O   UNL     1      -9.033   8.677  64.368  1.00  0.00    -0.422 OA 
HETATM   10  H   UNL     1      -9.606   8.825  63.624  1.00  0.00     0.000 HD 
BRANCH   8  11
HETATM   11  C   UNL     1      -9.476  10.968  64.998  1.00  0.00    -0.233 C  
BRANCH  11  12
HETATM   12  O   UNL     1     -10.803  11.501  65.130  1.00  0.00    -0.291 OA 
BRANCH  12  13
HETATM   13  C   UNL     1     -11.017  12.181  66.305  1.00  0.00    -0.295 A  
HETATM   14  C   UNL     1     -11.360  11.537  67.502  1.00  0.00    -0.366 A  
HETATM   15  C   UNL     1     -11.625  12.276  68.652  1.00  0.00    -0.372 A  
HETATM   16  C   UNL     1     -11.507  13.662  68.622  1.00  0.00    -0.342 A  
HETATM   17  C   UNL     1     -11.102  14.306  67.447  1.00  0.00    -0.314 A  
HETATM   18  C   UNL     1     -10.861  13.577  66.268  1.00  0.00    -0.291 A  
HETATM   19  C   UNL     1     -10.406  14.265  65.003  1.00  0.00    -0.448 C  
HETATM   20  C   UNL     1     -10.730  15.755  64.996  1.00  0.00    -0.443 C  
HETATM   21  C   UNL     1     -10.254  16.418  66.275  1.00  0.00    -0.341 C  
HETATM   22  C   UNL     1     -10.909  15.779  67.476  1.00  0.00    -0.315 C  
HETATM   23  O   UNL     1     -11.213  16.431  68.470  1.00  0.00    -0.358 OA 
ENDBRANCH  12  13
ENDBRANCH  11  12
ENDBRANCH   8  11
ENDBRANCH   7   8
ENDBRANCH   5   7
TORSDOF 5
ENDMDL
MODEL      159
REMARK 921   NORMALIZED FREE ENERGY PREDICTED BY IDOCK:   -4.26 KCAL/MOL
REMARK 922        TOTAL FREE ENERGY PREDICTED BY IDOCK:   -6.24 KCAL/MOL
REMARK 923 INTER-LIGAND FREE ENERGY PREDICTED BY IDOCK:   -5.73 KCAL/MOL
REMARK 924 INTRA-LIGAND FREE ENERGY PREDICTED BY IDOCK:   -0.51 KCAL/MOL
REMARK 927      BINDING AFFINITY PREDICTED BY RF-SCORE:    0.00 PKD
ROOT
HETATM    1  C   UNL     1      -8.005   7.343  69.831  1.00  0.00    -0.121 C  
HETATM    2  C   UNL     1      -8.078   8.636  70.662  1.00  0.00    -0.120 C  
HETATM    3  C   UNL     1      -7.843   8.265  72.141  1.00  0.00    -0.170 C  
HETATM    4  C   UNL     1      -9.472   9.270  70.541  1.00  0.00    -0.317 C  
HETATM    5  N   UNL     1      -7.011   9.589  70.286  1.00  0.00    -0.084 NA 
HETATM    6  H   UNL     1      -6.095   9.192  70.497  1.00  0.00     0.000 HD 
ENDROOT
BRANCH   5   7
HETATM    7  C   UNL     1      -7.052  10.056  68.892  1.00  0.00    -0.068 C  
BRANCH   7   8
HETATM    8  C   UNL     1      -6.698  11.545  68.702  1.00  0.00    -0.072 C  
HETATM    9  O   UNL     1      -6.805  12.197  69.977  1.00  0.00    -0.347 OA 
HETATM   10  H   UNL     1      -6.587  13.114  69.860  1.00  0.00     0.000 HD 
BRANCH   8  11
HETATM   11  C   UNL     1      -7.635  12.238  67.708  1.00  0.00    -0.131 C  
BRANCH  11  12
HETATM   12  O   UNL     1      -8.784  11.402  67.496  1.00  0.00    -0.135 OA 
BRANCH  12  13
HETATM   13  C   UNL     1      -9.292  11.464  66.221  1.00  0.00    -0.212 A  
HETATM   14  C   UNL     1      -8.783  10.697  65.164  1.00  0.00    -0.196 A  
HETATM   15  C   UNL     1      -9.292  10.840  63.876  1.00  0.00    -0.284 A  
HETATM   16  C   UNL     1     -10.344  11.723  63.646  1.00  0.00    -0.476 A  
HETATM   17  C   UNL     1     -10.899  12.445  64.709  1.00  0.00    -0.340 A  
HETATM   18  C   UNL     1     -10.374  12.334  66.010  1.00  0.00    -0.273 A  
HETATM   19  C   UNL     1     -10.982  13.097  67.165  1.00  0.00    -0.289 C  
HETATM   20  C   UNL     1     -11.801  14.299  66.708  1.00  0.00    -0.449 C  
HETATM   21  C   UNL     1     -12.793  13.899  65.630  1.00  0.00    -0.467 C  
HETATM   22  C   UNL     1     -12.071  13.316  64.439  1.00  0.00    -0.415 C  
HETATM   23  O   UNL     1     -12.469  13.493  63.292  1.00  0.00    -0.763 OA 
ENDBRANCH  12  13
ENDBRANCH  11  12
ENDBRANCH   8  11
ENDBRANCH   7   8
ENDBRANCH   5   7
TORSDOF 5
ENDMDL
MODEL      160
REMARK 921   NORMALIZED FREE ENERGY PREDICTED BY IDOCK:   -4.26 KCAL/MOL
REMARK 922        TOTAL FREE ENERGY PREDICTED BY IDOCK:   -6.23 KCAL/MOL
REMARK 923 INTER-LIGAND FREE ENERGY PREDICTED BY IDOCK:   -5.47 KCAL/MOL
REMARK 924 INTRA-LIGAND FREE ENERGY PREDICTED BY IDOCK:   -0.76 KCAL/MOL
REMARK 927      BINDING AFFINITY PREDICTED BY RF-SCORE:    0.00 PKD
ROOT
HETATM    1  C   UNL     1      -9.306   3.014  67.365  1.00  0.00    -0.216 C  
HETATM    2  C   UNL     1      -9.564   4.529  67.442  1.00  0.00    -0.176 C  
HETATM    3  C   UNL     1     -10.569   4.898  66.331  1.00  0.00    -0.276 C  
HETATM    4  C   UNL     1      -8.263   5.306  67.191  1.00  0.00    -0.108 C  
HETATM    5  N   UNL     1     -10.189   4.912  68.727  1.00  0.00    -0.103 NA 
HETATM    6  H   UNL     1     -11.110   4.483  68.811  1.00  0.00     0.000 HD 
ENDROOT
BRANCH   5   7
HETATM    7  C   UNL     1      -9.385   4.624  69.924  1.00  0.00    -0.144 C  
BRANCH   7   8
HETATM    8  C   UNL     1      -9.212   5.818  70.886  1.00  0.00    -0.156 C  
HETATM    9  O   UNL     1      -8.302   5.426  71.926  1.00  0.00    -0.119 OA 
HETATM   10  H   UNL     1      -8.197   6.162  72.518  1.00  0.00     0.000 HD 
BRANCH   8  11
HETATM   11  C   UNL     1     -10.540   6.244  71.520  1.00  0.00    -0.237 C  
BRANCH  11  12
HETATM   12  O   UNL     1     -11.347   6.884  70.518  1.00  0.00    -0.288 OA 
BRANCH  12  13
HETATM   13  C   UNL     1     -11.900   8.075  70.924  1.00  0.00    -0.224 A  
HETATM   14  C   UNL     1     -12.784   8.170  72.008  1.00  0.00    -0.355 A  
HETATM   15  C   UNL     1     -13.364   9.390  72.343  1.00  0.00    -0.503 A  
HETATM   16  C   UNL     1     -13.030  10.532  71.620  1.00  0.00    -0.581 A  
HETATM   17  C   UNL     1     -12.099  10.455  70.578  1.00  0.00    -0.423 A  
HETATM   18  C   UNL     1     -11.528   9.224  70.208  1.00  0.00    -0.198 A  
HETATM   19  C   UNL     1     -10.509   9.139  69.095  1.00  0.00    -0.230 C  
HETATM   20  C   UNL     1     -10.569  10.335  68.151  1.00  0.00    -0.258 C  
HETATM   21  C   UNL     1     -10.541  11.639  68.928  1.00  0.00    -0.224 C  
HETATM   22  C   UNL     1     -11.708  11.709  69.883  1.00  0.00    -0.337 C  
HETATM   23  O   UNL     1     -12.275  12.768  70.134  1.00  0.00    -0.312 OA 
ENDBRANCH  12  13
ENDBRANCH  11  12
ENDBRANCH   8  11
ENDBRANCH   7   8
ENDBRANCH   5   7
TORSDOF 5
ENDMDL
MODEL      161
REMARK 921   NORMALIZED FREE ENERGY PREDICTED BY IDOCK:   -4.24 KCAL/MOL
REMARK 922        TOTAL FREE ENERGY PREDICTED BY IDOCK:   -6.21 KCAL/MOL
REMARK 923 INTER-LIGAND FREE ENERGY PREDICTED BY IDOCK:   -6.07 KCAL/MOL
REMARK 924 INTRA-LIGAND FREE ENERGY PREDICTED BY IDOCK:   -0.15 KCAL/MOL
REMARK 927      BINDING AFFINITY PREDICTED BY RF-SCORE:    0.00 PKD
ROOT
HETATM    1  C   UNL     1      -5.967  10.764  68.595  1.00  0.00    -0.039 C  
HETATM    2  C   UNL     1      -6.401  12.061  67.891  1.00  0.00    -0.073 C  
HETATM    3  C   UNL     1      -5.127  12.837  67.496  1.00  0.00    -0.060 C  
HETATM    4  C   UNL     1      -7.222  12.939  68.848  1.00  0.00    -0.042 C  
HETATM    5  N   UNL     1      -7.137  11.784  66.638  1.00  0.00    -0.360 NA 
HETATM    6  H   UNL     1      -6.528  11.312  65.970  1.00  0.00     0.000 HD 
ENDROOT
BRANCH   5   7
HETATM    7  C   UNL     1      -8.389  11.030  66.802  1.00  0.00    -0.147 C  
BRANCH   7   8
HETATM    8  C   UNL     1      -9.655  11.773  66.329  1.00  0.00    -0.225 C  
HETATM    9  O   UNL     1      -9.400  12.300  65.017  1.00  0.00    -0.441 OA 
HETATM   10  H   UNL     1     -10.180  12.758  64.726  1.00  0.00     0.000 HD 
BRANCH   8  11
HETATM   11  C   UNL     1     -10.030  12.926  67.265  1.00  0.00    -0.224 C  
BRANCH  11  12
HETATM   12  O   UNL     1     -11.449  12.899  67.486  1.00  0.00    -0.295 OA 
BRANCH  12  13
HETATM   13  C   UNL     1     -11.810  12.452  68.735  1.00  0.00    -0.311 A  
HETATM   14  C   UNL     1     -11.906  11.090  69.054  1.00  0.00    -0.399 A  
HETATM   15  C   UNL     1     -12.334  10.687  70.316  1.00  0.00    -0.406 A  
HETATM   16  C   UNL     1     -12.629  11.646  71.281  1.00  0.00    -0.425 A  
HETATM   17  C   UNL     1     -12.474  13.006  70.988  1.00  0.00    -0.385 A  
HETATM   18  C   UNL     1     -12.072  13.429  69.708  1.00  0.00    -0.374 A  
HETATM   19  C   UNL     1     -11.885  14.896  69.394  1.00  0.00    -0.356 C  
HETATM   20  C   UNL     1     -12.633  15.804  70.363  1.00  0.00    -0.279 C  
HETATM   21  C   UNL     1     -12.327  15.429  71.801  1.00  0.00    -0.453 C  
HETATM   22  C   UNL     1     -12.721  13.996  72.068  1.00  0.00    -0.277 C  
HETATM   23  O   UNL     1     -13.167  13.640  73.155  1.00  0.00    -0.495 OA 
ENDBRANCH  12  13
ENDBRANCH  11  12
ENDBRANCH   8  11
ENDBRANCH   7   8
ENDBRANCH   5   7
TORSDOF 5
ENDMDL
MODEL      162
REMARK 921   NORMALIZED FREE ENERGY PREDICTED BY IDOCK:   -4.24 KCAL/MOL
REMARK 922        TOTAL FREE ENERGY PREDICTED BY IDOCK:   -6.21 KCAL/MOL
REMARK 923 INTER-LIGAND FREE ENERGY PREDICTED BY IDOCK:   -5.36 KCAL/MOL
REMARK 924 INTRA-LIGAND FREE ENERGY PREDICTED BY IDOCK:   -0.84 KCAL/MOL
REMARK 927      BINDING AFFINITY PREDICTED BY RF-SCORE:    0.00 PKD
ROOT
HETATM    1  C   UNL     1      -9.931   7.084  69.307  1.00  0.00    -0.163 C  
HETATM    2  C   UNL     1      -9.043   8.075  70.080  1.00  0.00    -0.151 C  
HETATM    3  C   UNL     1      -7.670   8.132  69.378  1.00  0.00    -0.103 C  
HETATM    4  C   UNL     1      -8.826   7.586  71.520  1.00  0.00    -0.133 C  
HETATM    5  N   UNL     1      -9.596   9.446  70.046  1.00  0.00    -0.210 NA 
HETATM    6  H   UNL     1      -9.609   9.796  69.089  1.00  0.00     0.000 HD 
ENDROOT
BRANCH   5   7
HETATM    7  C   UNL     1     -10.923   9.601  70.660  1.00  0.00    -0.320 C  
BRANCH   7   8
HETATM    8  C   UNL     1     -11.589  10.971  70.419  1.00  0.00    -0.293 C  
HETATM    9  O   UNL     1     -12.749  11.060  71.260  1.00  0.00    -0.387 OA 
HETATM   10  H   UNL     1     -13.159  11.904  71.110  1.00  0.00     0.000 HD 
BRANCH   8  11
HETATM   11  C   UNL     1     -12.015  11.155  68.959  1.00  0.00    -0.320 C  
BRANCH  11  12
HETATM   12  O   UNL     1     -11.015  10.574  68.108  1.00  0.00    -0.235 OA 
BRANCH  12  13
HETATM   13  C   UNL     1     -10.863  11.220  66.904  1.00  0.00    -0.282 A  
HETATM   14  C   UNL     1     -11.473  12.450  66.621  1.00  0.00    -0.429 A  
HETATM   15  C   UNL     1     -11.337  13.035  65.365  1.00  0.00    -0.327 A  
HETATM   16  C   UNL     1     -10.555  12.412  64.397  1.00  0.00    -0.366 A  
HETATM   17  C   UNL     1      -9.892  11.216  64.694  1.00  0.00    -0.330 A  
HETATM   18  C   UNL     1     -10.044  10.596  65.948  1.00  0.00    -0.321 A  
HETATM   19  C   UNL     1      -9.315   9.315  66.280  1.00  0.00    -0.257 C  
HETATM   20  C   UNL     1      -8.868   8.555  65.037  1.00  0.00    -0.074 C  
HETATM   21  C   UNL     1      -8.123   9.469  64.082  1.00  0.00    -0.147 C  
HETATM   22  C   UNL     1      -9.002  10.623  63.662  1.00  0.00    -0.202 C  
HETATM   23  O   UNL     1      -8.944  11.103  62.535  1.00  0.00    -0.314 OA 
ENDBRANCH  12  13
ENDBRANCH  11  12
ENDBRANCH   8  11
ENDBRANCH   7   8
ENDBRANCH   5   7
TORSDOF 5
ENDMDL
MODEL      163
REMARK 921   NORMALIZED FREE ENERGY PREDICTED BY IDOCK:   -4.24 KCAL/MOL
REMARK 922        TOTAL FREE ENERGY PREDICTED BY IDOCK:   -6.20 KCAL/MOL
REMARK 923 INTER-LIGAND FREE ENERGY PREDICTED BY IDOCK:   -5.83 KCAL/MOL
REMARK 924 INTRA-LIGAND FREE ENERGY PREDICTED BY IDOCK:   -0.38 KCAL/MOL
REMARK 927      BINDING AFFINITY PREDICTED BY RF-SCORE:    0.00 PKD
ROOT
HETATM    1  C   UNL     1     -10.111   4.480  66.077  1.00  0.00    -0.282 C  
HETATM    2  C   UNL     1      -8.888   5.247  65.543  1.00  0.00    -0.153 C  
HETATM    3  C   UNL     1      -8.720   4.894  64.051  1.00  0.00    -0.119 C  
HETATM    4  C   UNL     1      -7.617   4.811  66.287  1.00  0.00    -0.091 C  
HETATM    5  N   UNL     1      -9.088   6.711  65.615  1.00  0.00    -0.370 NA 
HETATM    6  H   UNL     1      -9.860   6.991  65.010  1.00  0.00     0.000 HD 
ENDROOT
BRANCH   5   7
HETATM    7  C   UNL     1      -9.285   7.250  66.969  1.00  0.00    -0.145 C  
BRANCH   7   8
HETATM    8  C   UNL     1      -9.377   8.788  67.043  1.00  0.00    -0.157 C  
HETATM    9  O   UNL     1      -8.390   9.251  67.977  1.00  0.00    -0.118 OA 
HETATM   10  H   UNL     1      -8.447  10.198  68.022  1.00  0.00     0.000 HD 
BRANCH   8  11
HETATM   11  C   UNL     1     -10.759   9.261  67.502  1.00  0.00    -0.203 C  
BRANCH  11  12
HETATM   12  O   UNL     1     -10.812  10.694  67.411  1.00  0.00    -0.262 OA 
BRANCH  12  13
HETATM   13  C   UNL     1     -11.326  11.305  68.530  1.00  0.00    -0.276 A  
HETATM   14  C   UNL     1     -11.691  10.595  69.682  1.00  0.00    -0.368 A  
HETATM   15  C   UNL     1     -12.264  11.253  70.767  1.00  0.00    -0.479 A  
HETATM   16  C   UNL     1     -12.435  12.634  70.722  1.00  0.00    -0.357 A  
HETATM   17  C   UNL     1     -12.014  13.357  69.600  1.00  0.00    -0.386 A  
HETATM   18  C   UNL     1     -11.463  12.703  68.483  1.00  0.00    -0.349 A  
HETATM   19  C   UNL     1     -10.989  13.481  67.278  1.00  0.00    -0.293 C  
HETATM   20  C   UNL     1     -11.614  14.868  67.192  1.00  0.00    -0.327 C  
HETATM   21  C   UNL     1     -11.471  15.608  68.510  1.00  0.00    -0.380 C  
HETATM   22  C   UNL     1     -12.140  14.837  69.622  1.00  0.00    -0.304 C  
HETATM   23  O   UNL     1     -12.710  15.403  70.549  1.00  0.00    -0.410 OA 
ENDBRANCH  12  13
ENDBRANCH  11  12
ENDBRANCH   8  11
ENDBRANCH   7   8
ENDBRANCH   5   7
TORSDOF 5
ENDMDL
MODEL      164
REMARK 921   NORMALIZED FREE ENERGY PREDICTED BY IDOCK:   -4.23 KCAL/MOL
REMARK 922        TOTAL FREE ENERGY PREDICTED BY IDOCK:   -6.19 KCAL/MOL
REMARK 923 INTER-LIGAND FREE ENERGY PREDICTED BY IDOCK:   -5.75 KCAL/MOL
REMARK 924 INTRA-LIGAND FREE ENERGY PREDICTED BY IDOCK:   -0.44 KCAL/MOL
REMARK 927      BINDING AFFINITY PREDICTED BY RF-SCORE:    0.00 PKD
ROOT
HETATM    1  C   UNL     1     -10.048  17.147  67.882  1.00  0.00    -0.308 C  
HETATM    2  C   UNL     1      -9.812  15.976  66.911  1.00  0.00    -0.245 C  
HETATM    3  C   UNL     1      -8.307  15.933  66.576  1.00  0.00    -0.330 C  
HETATM    4  C   UNL     1     -10.589  16.201  65.605  1.00  0.00    -0.377 C  
HETATM    5  N   UNL     1     -10.149  14.676  67.530  1.00  0.00    -0.224 NA 
HETATM    6  H   UNL     1      -9.530  14.492  68.320  1.00  0.00     0.000 HD 
ENDROOT
BRANCH   5   7
HETATM    7  C   UNL     1     -11.552  14.523  67.940  1.00  0.00    -0.344 C  
BRANCH   7   8
HETATM    8  C   UNL     1     -11.856  13.232  68.728  1.00  0.00    -0.334 C  
HETATM    9  O   UNL     1     -11.760  13.530  70.130  1.00  0.00    -0.433 OA 
HETATM   10  H   UNL     1     -11.946  12.735  70.615  1.00  0.00     0.000 HD 
BRANCH   8  11
HETATM   11  C   UNL     1     -10.874  12.106  68.390  1.00  0.00    -0.224 C  
BRANCH  11  12
HETATM   12  O   UNL     1     -11.583  10.857  68.391  1.00  0.00    -0.339 OA 
BRANCH  12  13
HETATM   13  C   UNL     1     -11.067   9.923  69.257  1.00  0.00    -0.181 A  
HETATM   14  C   UNL     1     -11.115  10.073  70.650  1.00  0.00    -0.408 A  
HETATM   15  C   UNL     1     -10.525   9.127  71.484  1.00  0.00    -0.422 A  
HETATM   16  C   UNL     1      -9.920   8.003  70.929  1.00  0.00    -0.207 A  
HETATM   17  C   UNL     1      -9.924   7.816  69.542  1.00  0.00    -0.187 A  
HETATM   18  C   UNL     1     -10.489   8.778  68.685  1.00  0.00    -0.213 A  
HETATM   19  C   UNL     1     -10.513   8.572  67.188  1.00  0.00    -0.370 C  
HETATM   20  C   UNL     1      -9.474   7.560  66.718  1.00  0.00    -0.230 C  
HETATM   21  C   UNL     1      -9.562   6.279  67.527  1.00  0.00    -0.122 C  
HETATM   22  C   UNL     1      -9.339   6.566  68.993  1.00  0.00    -0.128 C  
HETATM   23  O   UNL     1      -8.757   5.772  69.725  1.00  0.00    -0.124 OA 
ENDBRANCH  12  13
ENDBRANCH  11  12
ENDBRANCH   8  11
ENDBRANCH   7   8
ENDBRANCH   5   7
TORSDOF 5
ENDMDL
MODEL      165
REMARK 921   NORMALIZED FREE ENERGY PREDICTED BY IDOCK:   -4.22 KCAL/MOL
REMARK 922        TOTAL FREE ENERGY PREDICTED BY IDOCK:   -6.18 KCAL/MOL
REMARK 923 INTER-LIGAND FREE ENERGY PREDICTED BY IDOCK:   -5.73 KCAL/MOL
REMARK 924 INTRA-LIGAND FREE ENERGY PREDICTED BY IDOCK:   -0.46 KCAL/MOL
REMARK 927      BINDING AFFINITY PREDICTED BY RF-SCORE:    0.00 PKD
ROOT
HETATM    1  C   UNL     1     -11.520   6.482  70.574  1.00  0.00    -0.448 C  
HETATM    2  C   UNL     1     -10.116   7.079  70.775  1.00  0.00    -0.194 C  
HETATM    3  C   UNL     1      -9.141   6.327  69.845  1.00  0.00    -0.145 C  
HETATM    4  C   UNL     1      -9.651   6.876  72.224  1.00  0.00    -0.159 C  
HETATM    5  N   UNL     1     -10.066   8.504  70.381  1.00  0.00    -0.186 NA 
HETATM    6  H   UNL     1     -10.253   8.600  69.383  1.00  0.00     0.000 HD 
ENDROOT
BRANCH   5   7
HETATM    7  C   UNL     1     -10.947   9.396  71.148  1.00  0.00    -0.360 C  
BRANCH   7   8
HETATM    8  C   UNL     1     -11.883  10.272  70.289  1.00  0.00    -0.288 C  
HETATM    9  O   UNL     1     -13.233   9.836  70.510  1.00  0.00    -0.589 OA 
HETATM   10  H   UNL     1     -13.808  10.375  69.980  1.00  0.00     0.000 HD 
BRANCH   8  11
HETATM   11  C   UNL     1     -11.562  10.164  68.795  1.00  0.00     0.031 C  
BRANCH  11  12
HETATM   12  O   UNL     1     -11.987  11.371  68.142  1.00  0.00    -0.594 OA 
BRANCH  12  13
HETATM   13  C   UNL     1     -10.953  12.185  67.746  1.00  0.00    -0.233 A  
HETATM   14  C   UNL     1      -9.655  12.067  68.263  1.00  0.00    -0.204 A  
HETATM   15  C   UNL     1      -8.655  12.955  67.874  1.00  0.00    -0.185 A  
HETATM   16  C   UNL     1      -8.939  13.940  66.932  1.00  0.00    -0.236 A  
HETATM   17  C   UNL     1     -10.215  14.023  66.366  1.00  0.00    -0.293 A  
HETATM   18  C   UNL     1     -11.244  13.153  66.771  1.00  0.00    -0.330 A  
HETATM   19  C   UNL     1     -12.619  13.226  66.149  1.00  0.00    -0.208 C  
HETATM   20  C   UNL     1     -12.894  14.571  65.487  1.00  0.00    -0.134 C  
HETATM   21  C   UNL     1     -11.762  14.954  64.551  1.00  0.00    -0.388 C  
HETATM   22  C   UNL     1     -10.457  15.036  65.307  1.00  0.00    -0.403 C  
HETATM   23  O   UNL     1      -9.595  15.861  65.020  1.00  0.00    -0.183 OA 
ENDBRANCH  12  13
ENDBRANCH  11  12
ENDBRANCH   8  11
ENDBRANCH   7   8
ENDBRANCH   5   7
TORSDOF 5
ENDMDL
MODEL      166
REMARK 921   NORMALIZED FREE ENERGY PREDICTED BY IDOCK:   -4.22 KCAL/MOL
REMARK 922        TOTAL FREE ENERGY PREDICTED BY IDOCK:   -6.18 KCAL/MOL
REMARK 923 INTER-LIGAND FREE ENERGY PREDICTED BY IDOCK:   -5.50 KCAL/MOL
REMARK 924 INTRA-LIGAND FREE ENERGY PREDICTED BY IDOCK:   -0.68 KCAL/MOL
REMARK 927      BINDING AFFINITY PREDICTED BY RF-SCORE:    0.00 PKD
ROOT
HETATM    1  C   UNL     1      -6.263   9.024  68.606  1.00  0.00    -0.045 C  
HETATM    2  C   UNL     1      -6.743   9.842  69.818  1.00  0.00    -0.069 C  
HETATM    3  C   UNL     1      -6.402   9.045  71.095  1.00  0.00    -0.065 C  
HETATM    4  C   UNL     1      -8.266  10.033  69.764  1.00  0.00    -0.191 C  
HETATM    5  N   UNL     1      -6.034  11.136  69.921  1.00  0.00    -0.092 NA 
HETATM    6  H   UNL     1      -5.040  10.979  70.085  1.00  0.00     0.000 HD 
ENDROOT
BRANCH   5   7
HETATM    7  C   UNL     1      -6.221  12.043  68.779  1.00  0.00    -0.063 C  
BRANCH   7   8
HETATM    8  C   UNL     1      -6.440  13.522  69.162  1.00  0.00    -0.108 C  
HETATM    9  O   UNL     1      -6.478  13.612  70.595  1.00  0.00    -0.406 OA 
HETATM   10  H   UNL     1      -6.613  14.523  70.830  1.00  0.00     0.000 HD 
BRANCH   8  11
HETATM   11  C   UNL     1      -7.749  14.077  68.593  1.00  0.00    -0.135 C  
BRANCH  11  12
HETATM   12  O   UNL     1      -8.614  12.977  68.266  1.00  0.00    -0.177 OA 
BRANCH  12  13
HETATM   13  C   UNL     1      -9.806  13.356  67.695  1.00  0.00    -0.226 A  
HETATM   14  C   UNL     1     -10.605  14.381  68.219  1.00  0.00    -0.243 A  
HETATM   15  C   UNL     1     -11.834  14.687  67.639  1.00  0.00    -0.366 A  
HETATM   16  C   UNL     1     -12.250  13.996  66.505  1.00  0.00    -0.485 A  
HETATM   17  C   UNL     1     -11.427  13.015  65.940  1.00  0.00    -0.374 A  
HETATM   18  C   UNL     1     -10.198  12.673  66.532  1.00  0.00    -0.255 A  
HETATM   19  C   UNL     1      -9.298  11.628  65.915  1.00  0.00    -0.232 C  
HETATM   20  C   UNL     1     -10.045  10.691  64.974  1.00  0.00    -0.388 C  
HETATM   21  C   UNL     1     -10.870  11.477  63.971  1.00  0.00    -0.453 C  
HETATM   22  C   UNL     1     -11.870  12.356  64.684  1.00  0.00    -0.380 C  
HETATM   23  O   UNL     1     -12.983  12.577  64.218  1.00  0.00    -0.748 OA 
ENDBRANCH  12  13
ENDBRANCH  11  12
ENDBRANCH   8  11
ENDBRANCH   7   8
ENDBRANCH   5   7
TORSDOF 5
ENDMDL
MODEL      167
REMARK 921   NORMALIZED FREE ENERGY PREDICTED BY IDOCK:   -4.19 KCAL/MOL
REMARK 922        TOTAL FREE ENERGY PREDICTED BY IDOCK:   -6.14 KCAL/MOL
REMARK 923 INTER-LIGAND FREE ENERGY PREDICTED BY IDOCK:   -5.70 KCAL/MOL
REMARK 924 INTRA-LIGAND FREE ENERGY PREDICTED BY IDOCK:   -0.45 KCAL/MOL
REMARK 927      BINDING AFFINITY PREDICTED BY RF-SCORE:    0.00 PKD
ROOT
HETATM    1  C   UNL     1     -10.906  17.138  68.485  1.00  0.00    -0.281 C  
HETATM    2  C   UNL     1     -11.185  15.717  69.004  1.00  0.00    -0.306 C  
HETATM    3  C   UNL     1     -12.220  15.821  70.143  1.00  0.00    -0.340 C  
HETATM    4  C   UNL     1      -9.902  15.095  69.576  1.00  0.00    -0.191 C  
HETATM    5  N   UNL     1     -11.787  14.861  67.958  1.00  0.00    -0.486 NA 
HETATM    6  H   UNL     1     -12.700  15.227  67.687  1.00  0.00     0.000 HD 
ENDROOT
BRANCH   5   7
HETATM    7  C   UNL     1     -10.953  14.650  66.766  1.00  0.00    -0.323 C  
BRANCH   7   8
HETATM    8  C   UNL     1     -10.911  13.193  66.260  1.00  0.00    -0.279 C  
HETATM    9  O   UNL     1     -11.520  13.153  64.961  1.00  0.00    -0.298 OA 
HETATM   10  H   UNL     1     -11.494  12.255  64.650  1.00  0.00     0.000 HD 
BRANCH   8  11
HETATM   11  C   UNL     1     -11.661  12.238  67.193  1.00  0.00    -0.326 C  
BRANCH  11  12
HETATM   12  O   UNL     1     -10.707  11.549  68.016  1.00  0.00    -0.186 OA 
BRANCH  12  13
HETATM   13  C   UNL     1     -10.466  10.253  67.626  1.00  0.00    -0.239 A  
HETATM   14  C   UNL     1     -10.002   9.920  66.345  1.00  0.00    -0.309 A  
HETATM   15  C   UNL     1      -9.831   8.588  65.979  1.00  0.00    -0.135 A  
HETATM   16  C   UNL     1     -10.082   7.582  66.907  1.00  0.00    -0.336 A  
HETATM   17  C   UNL     1     -10.484   7.910  68.207  1.00  0.00    -0.212 A  
HETATM   18  C   UNL     1     -10.692   9.250  68.583  1.00  0.00    -0.180 A  
HETATM   19  C   UNL     1     -11.107   9.610  69.990  1.00  0.00    -0.293 C  
HETATM   20  C   UNL     1     -11.741   8.440  70.733  1.00  0.00    -0.219 C  
HETATM   21  C   UNL     1     -10.869   7.202  70.636  1.00  0.00    -0.268 C  
HETATM   22  C   UNL     1     -10.665   6.812  69.191  1.00  0.00    -0.253 C  
HETATM   23  O   UNL     1     -10.582   5.639  68.844  1.00  0.00    -0.239 OA 
ENDBRANCH  12  13
ENDBRANCH  11  12
ENDBRANCH   8  11
ENDBRANCH   7   8
ENDBRANCH   5   7
TORSDOF 5
ENDMDL
MODEL      168
REMARK 921   NORMALIZED FREE ENERGY PREDICTED BY IDOCK:   -4.18 KCAL/MOL
REMARK 922        TOTAL FREE ENERGY PREDICTED BY IDOCK:   -6.13 KCAL/MOL
REMARK 923 INTER-LIGAND FREE ENERGY PREDICTED BY IDOCK:   -5.89 KCAL/MOL
REMARK 924 INTRA-LIGAND FREE ENERGY PREDICTED BY IDOCK:   -0.25 KCAL/MOL
REMARK 927      BINDING AFFINITY PREDICTED BY RF-SCORE:    0.00 PKD
ROOT
HETATM    1  C   UNL     1      -9.341   4.333  69.678  1.00  0.00    -0.235 C  
HETATM    2  C   UNL     1      -9.123   4.179  71.194  1.00  0.00    -0.124 C  
HETATM    3  C   UNL     1      -7.657   3.755  71.423  1.00  0.00    -0.056 C  
HETATM    4  C   UNL     1     -10.035   3.079  71.756  1.00  0.00    -0.192 C  
HETATM    5  N   UNL     1      -9.311   5.462  71.907  1.00  0.00    -0.141 NA 
HETATM    6  H   UNL     1      -8.609   6.137  71.606  1.00  0.00     0.000 HD 
ENDROOT
BRANCH   5   7
HETATM    7  C   UNL     1     -10.656   6.046  71.796  1.00  0.00    -0.229 C  
BRANCH   7   8
HETATM    8  C   UNL     1     -10.798   7.454  72.411  1.00  0.00    -0.263 C  
HETATM    9  O   UNL     1     -12.141   7.595  72.901  1.00  0.00    -0.580 OA 
HETATM   10  H   UNL     1     -12.228   8.462  73.280  1.00  0.00     0.000 HD 
BRANCH   8  11
HETATM   11  C   UNL     1     -10.523   8.560  71.388  1.00  0.00    -0.237 C  
BRANCH  11  12
HETATM   12  O   UNL     1     -11.749   8.884  70.715  1.00  0.00    -0.280 OA 
BRANCH  12  13
HETATM   13  C   UNL     1     -12.085  10.215  70.776  1.00  0.00    -0.343 A  
HETATM   14  C   UNL     1     -12.695  10.792  71.899  1.00  0.00    -0.368 A  
HETATM   15  C   UNL     1     -13.070  12.133  71.889  1.00  0.00    -0.475 A  
HETATM   16  C   UNL     1     -12.798  12.916  70.771  1.00  0.00    -0.128 A  
HETATM   17  C   UNL     1     -12.132  12.361  69.672  1.00  0.00    -0.271 A  
HETATM   18  C   UNL     1     -11.775  11.001  69.654  1.00  0.00    -0.401 A  
HETATM   19  C   UNL     1     -11.038  10.402  68.478  1.00  0.00    -0.318 C  
HETATM   20  C   UNL     1     -11.193  11.228  67.206  1.00  0.00    -0.364 C  
HETATM   21  C   UNL     1     -10.872  12.689  67.468  1.00  0.00    -0.267 C  
HETATM   22  C   UNL     1     -11.788  13.248  68.530  1.00  0.00    -0.349 C  
HETATM   23  O   UNL     1     -12.184  14.408  68.497  1.00  0.00    -0.268 OA 
ENDBRANCH  12  13
ENDBRANCH  11  12
ENDBRANCH   8  11
ENDBRANCH   7   8
ENDBRANCH   5   7
TORSDOF 5
ENDMDL
MODEL      169
REMARK 921   NORMALIZED FREE ENERGY PREDICTED BY IDOCK:   -4.18 KCAL/MOL
REMARK 922        TOTAL FREE ENERGY PREDICTED BY IDOCK:   -6.13 KCAL/MOL
REMARK 923 INTER-LIGAND FREE ENERGY PREDICTED BY IDOCK:   -5.68 KCAL/MOL
REMARK 924 INTRA-LIGAND FREE ENERGY PREDICTED BY IDOCK:   -0.45 KCAL/MOL
REMARK 927      BINDING AFFINITY PREDICTED BY RF-SCORE:    0.00 PKD
ROOT
HETATM    1  C   UNL     1     -12.473   9.391  71.931  1.00  0.00    -0.468 C  
HETATM    2  C   UNL     1     -11.700   8.089  71.659  1.00  0.00    -0.283 C  
HETATM    3  C   UNL     1     -12.704   7.042  71.131  1.00  0.00    -0.361 C  
HETATM    4  C   UNL     1     -11.084   7.551  72.959  1.00  0.00    -0.413 C  
HETATM    5  N   UNL     1     -10.679   8.269  70.604  1.00  0.00    -0.216 NA 
HETATM    6  H   UNL     1     -11.126   8.501  69.717  1.00  0.00     0.000 HD 
ENDROOT
BRANCH   5   7
HETATM    7  C   UNL     1      -9.628   9.251  70.912  1.00  0.00    -0.269 C  
BRANCH   7   8
HETATM    8  C   UNL     1      -8.563   9.421  69.809  1.00  0.00    -0.175 C  
HETATM    9  O   UNL     1      -7.615  10.406  70.251  1.00  0.00    -0.404 OA 
HETATM   10  H   UNL     1      -6.960  10.511  69.571  1.00  0.00     0.000 HD 
BRANCH   8  11
HETATM   11  C   UNL     1      -9.176   9.879  68.483  1.00  0.00    -0.136 C  
BRANCH  11  12
HETATM   12  O   UNL     1      -8.676  11.189  68.169  1.00  0.00    -0.132 OA 
BRANCH  12  13
HETATM   13  C   UNL     1      -9.602  12.011  67.572  1.00  0.00    -0.177 A  
HETATM   14  C   UNL     1     -10.815  11.536  67.055  1.00  0.00    -0.320 A  
HETATM   15  C   UNL     1     -11.693  12.399  66.404  1.00  0.00    -0.453 A  
HETATM   16  C   UNL     1     -11.381  13.752  66.305  1.00  0.00    -0.329 A  
HETATM   17  C   UNL     1     -10.201  14.243  66.876  1.00  0.00    -0.266 A  
HETATM   18  C   UNL     1      -9.289  13.378  67.508  1.00  0.00    -0.218 A  
HETATM   19  C   UNL     1      -8.023  13.907  68.142  1.00  0.00    -0.148 C  
HETATM   20  C   UNL     1      -7.618  15.272  67.597  1.00  0.00    -0.193 C  
HETATM   21  C   UNL     1      -8.788  16.238  67.636  1.00  0.00    -0.195 C  
HETATM   22  C   UNL     1      -9.941  15.705  66.819  1.00  0.00    -0.250 C  
HETATM   23  O   UNL     1     -10.681  16.449  66.183  1.00  0.00    -0.273 OA 
ENDBRANCH  12  13
ENDBRANCH  11  12
ENDBRANCH   8  11
ENDBRANCH   7   8
ENDBRANCH   5   7
TORSDOF 5
ENDMDL
MODEL      170
REMARK 921   NORMALIZED FREE ENERGY PREDICTED BY IDOCK:   -4.16 KCAL/MOL
REMARK 922        TOTAL FREE ENERGY PREDICTED BY IDOCK:   -6.11 KCAL/MOL
REMARK 923 INTER-LIGAND FREE ENERGY PREDICTED BY IDOCK:   -5.87 KCAL/MOL
REMARK 924 INTRA-LIGAND FREE ENERGY PREDICTED BY IDOCK:   -0.24 KCAL/MOL
REMARK 927      BINDING AFFINITY PREDICTED BY RF-SCORE:    0.00 PKD
ROOT
HETATM    1  C   UNL     1     -10.926   7.971  72.458  1.00  0.00    -0.430 C  
HETATM    2  C   UNL     1     -11.833   7.834  71.222  1.00  0.00    -0.295 C  
HETATM    3  C   UNL     1     -13.214   7.337  71.699  1.00  0.00    -0.421 C  
HETATM    4  C   UNL     1     -11.258   6.793  70.250  1.00  0.00    -0.385 C  
HETATM    5  N   UNL     1     -12.055   9.137  70.559  1.00  0.00    -0.476 NA 
HETATM    6  H   UNL     1     -12.554   9.769  71.184  1.00  0.00     0.000 HD 
ENDROOT
BRANCH   5   7
HETATM    7  C   UNL     1     -10.843   9.790  70.042  1.00  0.00    -0.278 C  
BRANCH   7   8
HETATM    8  C   UNL     1     -11.079  11.176  69.406  1.00  0.00    -0.255 C  
HETATM    9  O   UNL     1     -12.004  11.896  70.236  1.00  0.00    -0.344 OA 
HETATM   10  H   UNL     1     -12.150  12.749  69.844  1.00  0.00     0.000 HD 
BRANCH   8  11
HETATM   11  C   UNL     1     -11.656  11.070  67.992  1.00  0.00    -0.249 C  
BRANCH  11  12
HETATM   12  O   UNL     1     -11.647  12.373  67.389  1.00  0.00    -0.328 OA 
BRANCH  12  13
HETATM   13  C   UNL     1     -10.403  12.957  67.342  1.00  0.00    -0.233 A  
HETATM   14  C   UNL     1      -9.250  12.255  66.964  1.00  0.00    -0.205 A  
HETATM   15  C   UNL     1      -8.004  12.876  66.990  1.00  0.00    -0.031 A  
HETATM   16  C   UNL     1      -7.910  14.216  67.354  1.00  0.00    -0.195 A  
HETATM   17  C   UNL     1      -9.065  14.939  67.671  1.00  0.00    -0.183 A  
HETATM   18  C   UNL     1     -10.328  14.318  67.679  1.00  0.00    -0.248 A  
HETATM   19  C   UNL     1     -11.580  15.100  68.002  1.00  0.00    -0.345 C  
HETATM   20  C   UNL     1     -11.290  16.382  68.773  1.00  0.00    -0.277 C  
HETATM   21  C   UNL     1     -10.206  17.193  68.085  1.00  0.00    -0.332 C  
HETATM   22  C   UNL     1      -8.934  16.387  67.977  1.00  0.00    -0.185 C  
HETATM   23  O   UNL     1      -7.828  16.910  68.068  1.00  0.00    -0.171 OA 
ENDBRANCH  12  13
ENDBRANCH  11  12
ENDBRANCH   8  11
ENDBRANCH   7   8
ENDBRANCH   5   7
TORSDOF 5
ENDMDL
MODEL      171
REMARK 921   NORMALIZED FREE ENERGY PREDICTED BY IDOCK:   -4.15 KCAL/MOL
REMARK 922        TOTAL FREE ENERGY PREDICTED BY IDOCK:   -6.10 KCAL/MOL
REMARK 923 INTER-LIGAND FREE ENERGY PREDICTED BY IDOCK:   -5.57 KCAL/MOL
REMARK 924 INTRA-LIGAND FREE ENERGY PREDICTED BY IDOCK:   -0.53 KCAL/MOL
REMARK 927      BINDING AFFINITY PREDICTED BY RF-SCORE:    0.00 PKD
ROOT
HETATM    1  C   UNL     1      -5.716  19.427  65.632  1.00  0.00    -0.187 C  
HETATM    2  C   UNL     1      -6.370  20.052  66.878  1.00  0.00    -0.188 C  
HETATM    3  C   UNL     1      -5.575  21.322  67.246  1.00  0.00    -0.379 C  
HETATM    4  C   UNL     1      -6.298  19.078  68.063  1.00  0.00    -0.231 C  
HETATM    5  N   UNL     1      -7.759  20.482  66.608  1.00  0.00    -0.493 NA 
HETATM    6  H   UNL     1      -7.768  21.222  65.906  1.00  0.00     0.000 HD 
ENDROOT
BRANCH   5   7
HETATM    7  C   UNL     1      -8.683  19.406  66.220  1.00  0.00    -0.346 C  
BRANCH   7   8
HETATM    8  C   UNL     1      -9.862  19.189  67.191  1.00  0.00    -0.338 C  
HETATM    9  O   UNL     1      -9.494  19.729  68.470  1.00  0.00    -0.348 OA 
HETATM   10  H   UNL     1     -10.221  19.595  69.067  1.00  0.00     0.000 HD 
BRANCH   8  11
HETATM   11  C   UNL     1     -10.206  17.706  67.357  1.00  0.00    -0.345 C  
BRANCH  11  12
HETATM   12  O   UNL     1      -9.378  16.936  66.471  1.00  0.00    -0.246 OA 
BRANCH  12  13
HETATM   13  C   UNL     1      -8.859  15.798  67.040  1.00  0.00    -0.216 A  
HETATM   14  C   UNL     1      -7.815  15.826  67.975  1.00  0.00    -0.138 A  
HETATM   15  C   UNL     1      -7.284  14.641  68.477  1.00  0.00    -0.118 A  
HETATM   16  C   UNL     1      -7.823  13.421  68.079  1.00  0.00    -0.148 A  
HETATM   17  C   UNL     1      -8.908  13.389  67.194  1.00  0.00    -0.225 A  
HETATM   18  C   UNL     1      -9.435  14.576  66.654  1.00  0.00    -0.301 A  
HETATM   19  C   UNL     1     -10.618  14.548  65.714  1.00  0.00    -0.326 C  
HETATM   20  C   UNL     1     -10.812  13.187  65.054  1.00  0.00    -0.331 C  
HETATM   21  C   UNL     1     -10.810  12.079  66.091  1.00  0.00    -0.325 C  
HETATM   22  C   UNL     1      -9.507  12.073  66.855  1.00  0.00    -0.203 C  
HETATM   23  O   UNL     1      -8.990  11.030  67.243  1.00  0.00    -0.138 OA 
ENDBRANCH  12  13
ENDBRANCH  11  12
ENDBRANCH   8  11
ENDBRANCH   7   8
ENDBRANCH   5   7
TORSDOF 5
ENDMDL
MODEL      172
REMARK 921   NORMALIZED FREE ENERGY PREDICTED BY IDOCK:   -4.13 KCAL/MOL
REMARK 922        TOTAL FREE ENERGY PREDICTED BY IDOCK:   -6.07 KCAL/MOL
REMARK 923 INTER-LIGAND FREE ENERGY PREDICTED BY IDOCK:   -5.45 KCAL/MOL
REMARK 924 INTRA-LIGAND FREE ENERGY PREDICTED BY IDOCK:   -0.62 KCAL/MOL
REMARK 927      BINDING AFFINITY PREDICTED BY RF-SCORE:    0.00 PKD
ROOT
HETATM    1  C   UNL     1      -9.609  12.751  66.912  1.00  0.00    -0.235 C  
HETATM    2  C   UNL     1     -10.940  11.983  66.991  1.00  0.00    -0.274 C  
HETATM    3  C   UNL     1     -11.950  12.686  66.061  1.00  0.00    -0.478 C  
HETATM    4  C   UNL     1     -11.496  12.023  68.422  1.00  0.00    -0.356 C  
HETATM    5  N   UNL     1     -10.801  10.595  66.498  1.00  0.00    -0.156 NA 
HETATM    6  H   UNL     1     -10.555  10.597  65.508  1.00  0.00     0.000 HD 
ENDROOT
BRANCH   5   7
HETATM    7  C   UNL     1      -9.858   9.756  67.252  1.00  0.00    -0.181 C  
BRANCH   7   8
HETATM    8  C   UNL     1      -9.428   8.462  66.529  1.00  0.00    -0.220 C  
HETATM    9  O   UNL     1     -10.548   7.564  66.514  1.00  0.00    -0.495 OA 
HETATM   10  H   UNL     1     -10.283   6.768  66.069  1.00  0.00     0.000 HD 
BRANCH   8  11
HETATM   11  C   UNL     1      -8.249   7.777  67.226  1.00  0.00    -0.119 C  
BRANCH  11  12
HETATM   12  O   UNL     1      -8.356   7.998  68.641  1.00  0.00    -0.125 OA 
BRANCH  12  13
HETATM   13  C   UNL     1      -8.906   6.944  69.330  1.00  0.00    -0.136 A  
HETATM   14  C   UNL     1      -8.660   5.606  68.992  1.00  0.00    -0.105 A  
HETATM   15  C   UNL     1      -9.288   4.574  69.684  1.00  0.00    -0.221 A  
HETATM   16  C   UNL     1     -10.135   4.875  70.747  1.00  0.00    -0.303 A  
HETATM   17  C   UNL     1     -10.335   6.206  71.130  1.00  0.00    -0.257 A  
HETATM   18  C   UNL     1      -9.732   7.261  70.421  1.00  0.00    -0.172 A  
HETATM   19  C   UNL     1      -9.929   8.698  70.842  1.00  0.00    -0.257 C  
HETATM   20  C   UNL     1     -11.171   8.892  71.705  1.00  0.00    -0.415 C  
HETATM   21  C   UNL     1     -11.196   7.895  72.849  1.00  0.00    -0.429 C  
HETATM   22  C   UNL     1     -11.183   6.482  72.318  1.00  0.00    -0.273 C  
HETATM   23  O   UNL     1     -11.791   5.575  72.879  1.00  0.00    -0.247 OA 
ENDBRANCH  12  13
ENDBRANCH  11  12
ENDBRANCH   8  11
ENDBRANCH   7   8
ENDBRANCH   5   7
TORSDOF 5
ENDMDL
MODEL      173
REMARK 921   NORMALIZED FREE ENERGY PREDICTED BY IDOCK:   -4.12 KCAL/MOL
REMARK 922        TOTAL FREE ENERGY PREDICTED BY IDOCK:   -6.06 KCAL/MOL
REMARK 923 INTER-LIGAND FREE ENERGY PREDICTED BY IDOCK:   -5.43 KCAL/MOL
REMARK 924 INTRA-LIGAND FREE ENERGY PREDICTED BY IDOCK:   -0.63 KCAL/MOL
REMARK 927      BINDING AFFINITY PREDICTED BY RF-SCORE:    0.00 PKD
ROOT
HETATM    1  C   UNL     1      -8.794  10.766  69.324  1.00  0.00    -0.039 C  
HETATM    2  C   UNL     1      -7.482  11.107  68.594  1.00  0.00    -0.119 C  
HETATM    3  C   UNL     1      -6.351  10.280  69.240  1.00  0.00    -0.047 C  
HETATM    4  C   UNL     1      -7.148  12.596  68.765  1.00  0.00    -0.087 C  
HETATM    5  N   UNL     1      -7.533  10.718  67.168  1.00  0.00    -0.098 NA 
HETATM    6  H   UNL     1      -7.627   9.706  67.083  1.00  0.00     0.000 HD 
ENDROOT
BRANCH   5   7
HETATM    7  C   UNL     1      -8.570  11.392  66.373  1.00  0.00    -0.174 C  
BRANCH   7   8
HETATM    8  C   UNL     1      -9.891  10.606  66.239  1.00  0.00    -0.214 C  
HETATM    9  O   UNL     1      -9.872   9.911  64.982  1.00  0.00    -0.317 OA 
HETATM   10  H   UNL     1     -10.685   9.427  64.900  1.00  0.00     0.000 HD 
BRANCH   8  11
HETATM   11  C   UNL     1     -11.115  11.525  66.282  1.00  0.00    -0.263 C  
BRANCH  11  12
HETATM   12  O   UNL     1     -11.642  11.532  67.618  1.00  0.00    -0.442 OA 
BRANCH  12  13
HETATM   13  C   UNL     1     -11.709  12.782  68.185  1.00  0.00    -0.345 A  
HETATM   14  C   UNL     1     -11.340  13.947  67.497  1.00  0.00    -0.342 A  
HETATM   15  C   UNL     1     -11.369  15.184  68.135  1.00  0.00    -0.345 A  
HETATM   16  C   UNL     1     -11.807  15.269  69.453  1.00  0.00    -0.367 A  
HETATM   17  C   UNL     1     -12.237  14.118  70.125  1.00  0.00    -0.415 A  
HETATM   18  C   UNL     1     -12.185  12.857  69.504  1.00  0.00    -0.177 A  
HETATM   19  C   UNL     1     -12.665  11.614  70.218  1.00  0.00    -0.043 C  
HETATM   20  C   UNL     1     -12.702  11.785  71.732  1.00  0.00    -0.299 C  
HETATM   21  C   UNL     1     -13.442  13.053  72.116  1.00  0.00    -0.638 C  
HETATM   22  C   UNL     1     -12.774  14.260  71.503  1.00  0.00    -0.350 C  
HETATM   23  O   UNL     1     -12.729  15.339  72.085  1.00  0.00    -0.310 OA 
ENDBRANCH  12  13
ENDBRANCH  11  12
ENDBRANCH   8  11
ENDBRANCH   7   8
ENDBRANCH   5   7
TORSDOF 5
ENDMDL
MODEL      174
REMARK 921   NORMALIZED FREE ENERGY PREDICTED BY IDOCK:   -4.10 KCAL/MOL
REMARK 922        TOTAL FREE ENERGY PREDICTED BY IDOCK:   -6.03 KCAL/MOL
REMARK 923 INTER-LIGAND FREE ENERGY PREDICTED BY IDOCK:   -5.06 KCAL/MOL
REMARK 924 INTRA-LIGAND FREE ENERGY PREDICTED BY IDOCK:   -0.97 KCAL/MOL
REMARK 927      BINDING AFFINITY PREDICTED BY RF-SCORE:    0.00 PKD
ROOT
HETATM    1  C   UNL     1      -8.332   5.570  68.160  1.00  0.00    -0.099 C  
HETATM    2  C   UNL     1      -8.598   5.182  66.695  1.00  0.00    -0.110 C  
HETATM    3  C   UNL     1      -9.953   4.444  66.637  1.00  0.00    -0.234 C  
HETATM    4  C   UNL     1      -7.508   4.225  66.190  1.00  0.00    -0.085 C  
HETATM    5  N   UNL     1      -8.724   6.373  65.828  1.00  0.00    -0.202 NA 
HETATM    6  H   UNL     1      -9.535   6.926  66.105  1.00  0.00     0.000 HD 
ENDROOT
BRANCH   5   7
HETATM    7  C   UNL     1      -7.529   7.227  65.760  1.00  0.00    -0.084 C  
BRANCH   7   8
HETATM    8  C   UNL     1      -7.801   8.732  65.962  1.00  0.00    -0.105 C  
HETATM    9  O   UNL     1      -7.260   9.117  67.235  1.00  0.00    -0.082 OA 
HETATM   10  H   UNL     1      -7.427  10.044  67.360  1.00  0.00     0.000 HD 
BRANCH   8  11
HETATM   11  C   UNL     1      -9.297   9.055  65.938  1.00  0.00    -0.242 C  
BRANCH  11  12
HETATM   12  O   UNL     1      -9.861   8.737  67.221  1.00  0.00    -0.172 OA 
BRANCH  12  13
HETATM   13  C   UNL     1     -10.590   9.759  67.779  1.00  0.00    -0.266 A  
HETATM   14  C   UNL     1     -10.911  10.931  67.080  1.00  0.00    -0.334 A  
HETATM   15  C   UNL     1     -11.600  11.964  67.710  1.00  0.00    -0.393 A  
HETATM   16  C   UNL     1     -12.010  11.812  69.032  1.00  0.00    -0.341 A  
HETATM   17  C   UNL     1     -11.748  10.619  69.715  1.00  0.00    -0.385 A  
HETATM   18  C   UNL     1     -11.025   9.579  69.103  1.00  0.00    -0.148 A  
HETATM   19  C   UNL     1     -10.756   8.282  69.829  1.00  0.00    -0.221 C  
HETATM   20  C   UNL     1     -10.872   8.422  71.343  1.00  0.00    -0.304 C  
HETATM   21  C   UNL     1     -12.178   9.094  71.725  1.00  0.00    -0.442 C  
HETATM   22  C   UNL     1     -12.270  10.464  71.097  1.00  0.00    -0.394 C  
HETATM   23  O   UNL     1     -12.813  11.403  71.671  1.00  0.00    -0.420 OA 
ENDBRANCH  12  13
ENDBRANCH  11  12
ENDBRANCH   8  11
ENDBRANCH   7   8
ENDBRANCH   5   7
TORSDOF 5
ENDMDL
MODEL      175
REMARK 921   NORMALIZED FREE ENERGY PREDICTED BY IDOCK:   -4.08 KCAL/MOL
REMARK 922        TOTAL FREE ENERGY PREDICTED BY IDOCK:   -6.00 KCAL/MOL
REMARK 923 INTER-LIGAND FREE ENERGY PREDICTED BY IDOCK:   -5.56 KCAL/MOL
REMARK 924 INTRA-LIGAND FREE ENERGY PREDICTED BY IDOCK:   -0.44 KCAL/MOL
REMARK 927      BINDING AFFINITY PREDICTED BY RF-SCORE:    0.00 PKD
ROOT
HETATM    1  C   UNL     1      -8.568  12.437  67.415  1.00  0.00    -0.181 C  
HETATM    2  C   UNL     1      -9.762  13.403  67.314  1.00  0.00    -0.232 C  
HETATM    3  C   UNL     1      -9.816  13.943  65.870  1.00  0.00    -0.287 C  
HETATM    4  C   UNL     1      -9.567  14.593  68.266  1.00  0.00    -0.208 C  
HETATM    5  N   UNL     1     -11.047  12.713  67.559  1.00  0.00    -0.259 NA 
HETATM    6  H   UNL     1     -11.213  12.013  66.837  1.00  0.00     0.000 HD 
ENDROOT
BRANCH   5   7
HETATM    7  C   UNL     1     -11.187  12.108  68.892  1.00  0.00    -0.269 C  
BRANCH   7   8
HETATM    8  C   UNL     1     -11.547  10.608  68.883  1.00  0.00    -0.249 C  
HETATM    9  O   UNL     1     -12.902  10.470  69.338  1.00  0.00    -0.654 OA 
HETATM   10  H   UNL     1     -13.123   9.546  69.333  1.00  0.00     0.000 HD 
BRANCH   8  11
HETATM   11  C   UNL     1     -10.629   9.790  69.796  1.00  0.00    -0.257 C  
BRANCH  11  12
HETATM   12  O   UNL     1     -11.007   8.406  69.714  1.00  0.00    -0.221 OA 
BRANCH  12  13
HETATM   13  C   UNL     1     -10.862   7.717  70.894  1.00  0.00    -0.237 A  
HETATM   14  C   UNL     1     -11.130   8.291  72.145  1.00  0.00    -0.397 A  
HETATM   15  C   UNL     1     -10.910   7.570  73.315  1.00  0.00    -0.409 A  
HETATM   16  C   UNL     1     -10.460   6.255  73.239  1.00  0.00    -0.267 A  
HETATM   17  C   UNL     1     -10.252   5.656  71.992  1.00  0.00    -0.252 A  
HETATM   18  C   UNL     1     -10.440   6.381  70.801  1.00  0.00    -0.270 A  
HETATM   19  C   UNL     1     -10.235   5.733  69.451  1.00  0.00    -0.301 C  
HETATM   20  C   UNL     1      -9.361   4.486  69.526  1.00  0.00    -0.221 C  
HETATM   21  C   UNL     1      -9.857   3.541  70.605  1.00  0.00    -0.093 C  
HETATM   22  C   UNL     1      -9.849   4.226  71.950  1.00  0.00    -0.179 C  
HETATM   23  O   UNL     1      -9.588   3.619  72.983  1.00  0.00    -0.114 OA 
ENDBRANCH  12  13
ENDBRANCH  11  12
ENDBRANCH   8  11
ENDBRANCH   7   8
ENDBRANCH   5   7
TORSDOF 5
ENDMDL
MODEL      176
REMARK 921   NORMALIZED FREE ENERGY PREDICTED BY IDOCK:   -4.07 KCAL/MOL
REMARK 922        TOTAL FREE ENERGY PREDICTED BY IDOCK:   -6.00 KCAL/MOL
REMARK 923 INTER-LIGAND FREE ENERGY PREDICTED BY IDOCK:   -5.49 KCAL/MOL
REMARK 924 INTRA-LIGAND FREE ENERGY PREDICTED BY IDOCK:   -0.51 KCAL/MOL
REMARK 927      BINDING AFFINITY PREDICTED BY RF-SCORE:    0.00 PKD
ROOT
HETATM    1  C   UNL     1      -9.303  19.416  68.801  1.00  0.00    -0.444 C  
HETATM    2  C   UNL     1      -9.846  18.728  67.536  1.00  0.00    -0.320 C  
HETATM    3  C   UNL     1     -10.550  19.799  66.677  1.00  0.00    -0.578 C  
HETATM    4  C   UNL     1     -10.882  17.658  67.913  1.00  0.00    -0.245 C  
HETATM    5  N   UNL     1      -8.757  18.166  66.708  1.00  0.00    -0.256 NA 
HETATM    6  H   UNL     1      -8.156  18.914  66.363  1.00  0.00     0.000 HD 
ENDROOT
BRANCH   5   7
HETATM    7  C   UNL     1      -7.948  17.126  67.361  1.00  0.00    -0.180 C  
BRANCH   7   8
HETATM    8  C   UNL     1      -8.049  15.730  66.712  1.00  0.00    -0.262 C  
HETATM    9  O   UNL     1      -9.039  15.790  65.674  1.00  0.00    -0.263 OA 
HETATM   10  H   UNL     1      -9.101  14.930  65.275  1.00  0.00     0.000 HD 
BRANCH   8  11
HETATM   11  C   UNL     1      -8.450  14.653  67.723  1.00  0.00    -0.174 C  
BRANCH  11  12
HETATM   12  O   UNL     1      -8.261  13.361  67.124  1.00  0.00    -0.174 OA 
BRANCH  12  13
HETATM   13  C   UNL     1      -9.279  12.473  67.377  1.00  0.00    -0.186 A  
HETATM   14  C   UNL     1     -10.449  12.836  68.059  1.00  0.00    -0.233 A  
HETATM   15  C   UNL     1     -11.425  11.885  68.344  1.00  0.00    -0.357 A  
HETATM   16  C   UNL     1     -11.255  10.574  67.910  1.00  0.00    -0.358 A  
HETATM   17  C   UNL     1     -10.119  10.220  67.173  1.00  0.00    -0.259 A  
HETATM   18  C   UNL     1      -9.109  11.162  66.905  1.00  0.00    -0.166 A  
HETATM   19  C   UNL     1      -7.890  10.789  66.093  1.00  0.00    -0.155 C  
HETATM   20  C   UNL     1      -7.641   9.286  66.065  1.00  0.00    -0.096 C  
HETATM   21  C   UNL     1      -8.902   8.535  65.679  1.00  0.00    -0.214 C  
HETATM   22  C   UNL     1     -10.012   8.830  66.659  1.00  0.00    -0.285 C  
HETATM   23  O   UNL     1     -10.839   7.980  66.974  1.00  0.00    -0.283 OA 
ENDBRANCH  12  13
ENDBRANCH  11  12
ENDBRANCH   8  11
ENDBRANCH   7   8
ENDBRANCH   5   7
TORSDOF 5
ENDMDL
MODEL      177
REMARK 921   NORMALIZED FREE ENERGY PREDICTED BY IDOCK:   -4.07 KCAL/MOL
REMARK 922        TOTAL FREE ENERGY PREDICTED BY IDOCK:   -5.99 KCAL/MOL
REMARK 923 INTER-LIGAND FREE ENERGY PREDICTED BY IDOCK:   -5.33 KCAL/MOL
REMARK 924 INTRA-LIGAND FREE ENERGY PREDICTED BY IDOCK:   -0.67 KCAL/MOL
REMARK 927      BINDING AFFINITY PREDICTED BY RF-SCORE:    0.00 PKD
ROOT
HETATM    1  C   UNL     1      -9.406   4.550  65.110  1.00  0.00    -0.160 C  
HETATM    2  C   UNL     1      -8.377   5.121  64.117  1.00  0.00    -0.137 C  
HETATM    3  C   UNL     1      -8.814   4.715  62.694  1.00  0.00    -0.127 C  
HETATM    4  C   UNL     1      -6.988   4.521  64.384  1.00  0.00    -0.046 C  
HETATM    5  N   UNL     1      -8.349   6.599  64.149  1.00  0.00    -0.334 NA 
HETATM    6  H   UNL     1      -9.247   6.974  63.843  1.00  0.00     0.000 HD 
ENDROOT
BRANCH   5   7
HETATM    7  C   UNL     1      -7.967   7.190  65.440  1.00  0.00    -0.125 C  
BRANCH   7   8
HETATM    8  C   UNL     1      -7.073   8.443  65.335  1.00  0.00    -0.081 C  
HETATM    9  O   UNL     1      -6.468   8.670  66.617  1.00  0.00    -0.058 OA 
HETATM   10  H   UNL     1      -5.918   9.442  66.552  1.00  0.00     0.000 HD 
BRANCH   8  11
HETATM   11  C   UNL     1      -7.871   9.687  64.933  1.00  0.00    -0.123 C  
BRANCH  11  12
HETATM   12  O   UNL     1      -9.267   9.436  65.162  1.00  0.00    -0.229 OA 
BRANCH  12  13
HETATM   13  C   UNL     1      -9.896  10.409  65.901  1.00  0.00    -0.235 A  
HETATM   14  C   UNL     1      -9.758  10.511  67.292  1.00  0.00    -0.197 A  
HETATM   15  C   UNL     1     -10.463  11.478  68.004  1.00  0.00    -0.214 A  
HETATM   16  C   UNL     1     -11.279  12.376  67.321  1.00  0.00    -0.357 A  
HETATM   17  C   UNL     1     -11.370  12.320  65.926  1.00  0.00    -0.406 A  
HETATM   18  C   UNL     1     -10.688  11.329  65.196  1.00  0.00    -0.312 A  
HETATM   19  C   UNL     1     -10.769  11.276  63.688  1.00  0.00    -0.438 C  
HETATM   20  C   UNL     1     -11.987  12.009  63.139  1.00  0.00    -0.323 C  
HETATM   21  C   UNL     1     -12.085  13.407  63.721  1.00  0.00    -0.516 C  
HETATM   22  C   UNL     1     -12.187  13.345  65.227  1.00  0.00    -0.440 C  
HETATM   23  O   UNL     1     -12.862  14.149  65.862  1.00  0.00    -0.471 OA 
ENDBRANCH  12  13
ENDBRANCH  11  12
ENDBRANCH   8  11
ENDBRANCH   7   8
ENDBRANCH   5   7
TORSDOF 5
ENDMDL
MODEL      178
REMARK 921   NORMALIZED FREE ENERGY PREDICTED BY IDOCK:   -4.06 KCAL/MOL
REMARK 922        TOTAL FREE ENERGY PREDICTED BY IDOCK:   -5.98 KCAL/MOL
REMARK 923 INTER-LIGAND FREE ENERGY PREDICTED BY IDOCK:   -5.26 KCAL/MOL
REMARK 924 INTRA-LIGAND FREE ENERGY PREDICTED BY IDOCK:   -0.72 KCAL/MOL
REMARK 927      BINDING AFFINITY PREDICTED BY RF-SCORE:    0.00 PKD
ROOT
HETATM    1  C   UNL     1      -6.674   5.841  66.775  1.00  0.00    -0.058 C  
HETATM    2  C   UNL     1      -7.958   6.459  66.193  1.00  0.00    -0.112 C  
HETATM    3  C   UNL     1      -9.002   5.333  66.042  1.00  0.00    -0.144 C  
HETATM    4  C   UNL     1      -7.682   7.049  64.802  1.00  0.00    -0.115 C  
HETATM    5  N   UNL     1      -8.544   7.464  67.106  1.00  0.00    -0.117 NA 
HETATM    6  H   UNL     1      -8.837   7.020  67.976  1.00  0.00     0.000 HD 
ENDROOT
BRANCH   5   7
HETATM    7  C   UNL     1      -7.686   8.624  67.393  1.00  0.00    -0.098 C  
BRANCH   7   8
HETATM    8  C   UNL     1      -8.323   9.991  67.069  1.00  0.00    -0.121 C  
HETATM    9  O   UNL     1      -7.495  11.017  67.639  1.00  0.00    -0.092 OA 
HETATM   10  H   UNL     1      -7.888  11.859  67.439  1.00  0.00     0.000 HD 
BRANCH   8  11
HETATM   11  C   UNL     1      -9.738  10.118  67.640  1.00  0.00    -0.161 C  
BRANCH  11  12
HETATM   12  O   UNL     1      -9.732   9.653  68.999  1.00  0.00    -0.159 OA 
BRANCH  12  13
HETATM   13  C   UNL     1     -10.807  10.080  69.741  1.00  0.00    -0.273 A  
HETATM   14  C   UNL     1     -11.188  11.427  69.816  1.00  0.00    -0.266 A  
HETATM   15  C   UNL     1     -12.249  11.818  70.629  1.00  0.00    -0.443 A  
HETATM   16  C   UNL     1     -12.962  10.857  71.339  1.00  0.00    -0.527 A  
HETATM   17  C   UNL     1     -12.627   9.503  71.218  1.00  0.00    -0.425 A  
HETATM   18  C   UNL     1     -11.538   9.096  70.425  1.00  0.00    -0.181 A  
HETATM   19  C   UNL     1     -11.185   7.634  70.276  1.00  0.00    -0.230 C  
HETATM   20  C   UNL     1     -11.748   6.776  71.403  1.00  0.00    -0.371 C  
HETATM   21  C   UNL     1     -13.229   7.045  71.599  1.00  0.00    -0.368 C  
HETATM   22  C   UNL     1     -13.462   8.500  71.927  1.00  0.00    -0.383 C  
HETATM   23  O   UNL     1     -14.349   8.855  72.698  1.00  0.00    -0.613 OA 
ENDBRANCH  12  13
ENDBRANCH  11  12
ENDBRANCH   8  11
ENDBRANCH   7   8
ENDBRANCH   5   7
TORSDOF 5
ENDMDL
MODEL      179
REMARK 921   NORMALIZED FREE ENERGY PREDICTED BY IDOCK:   -4.05 KCAL/MOL
REMARK 922        TOTAL FREE ENERGY PREDICTED BY IDOCK:   -5.97 KCAL/MOL
REMARK 923 INTER-LIGAND FREE ENERGY PREDICTED BY IDOCK:   -5.21 KCAL/MOL
REMARK 924 INTRA-LIGAND FREE ENERGY PREDICTED BY IDOCK:   -0.76 KCAL/MOL
REMARK 927      BINDING AFFINITY PREDICTED BY RF-SCORE:    0.00 PKD
ROOT
HETATM    1  C   UNL     1      -9.170   5.282  65.953  1.00  0.00    -0.166 C  
HETATM    2  C   UNL     1      -8.999   6.537  66.826  1.00  0.00    -0.131 C  
HETATM    3  C   UNL     1      -8.853   6.080  68.293  1.00  0.00    -0.111 C  
HETATM    4  C   UNL     1     -10.243   7.432  66.724  1.00  0.00    -0.313 C  
HETATM    5  N   UNL     1      -7.765   7.277  66.485  1.00  0.00    -0.092 NA 
HETATM    6  H   UNL     1      -6.945   6.704  66.684  1.00  0.00     0.000 HD 
ENDROOT
BRANCH   5   7
HETATM    7  C   UNL     1      -7.703   7.788  65.107  1.00  0.00    -0.101 C  
BRANCH   7   8
HETATM    8  C   UNL     1      -6.711   8.951  64.897  1.00  0.00    -0.069 C  
HETATM    9  O   UNL     1      -5.493   8.631  65.587  1.00  0.00    -0.034 OA 
HETATM   10  H   UNL     1      -4.883   9.348  65.457  1.00  0.00     0.000 HD 
BRANCH   8  11
HETATM   11  C   UNL     1      -7.256  10.277  65.435  1.00  0.00    -0.143 C  
BRANCH  11  12
HETATM   12  O   UNL     1      -8.602  10.073  65.893  1.00  0.00    -0.133 OA 
BRANCH  12  13
HETATM   13  C   UNL     1      -9.544  10.787  65.192  1.00  0.00    -0.245 A  
HETATM   14  C   UNL     1      -9.727  10.649  63.809  1.00  0.00    -0.382 A  
HETATM   15  C   UNL     1     -10.654  11.439  63.135  1.00  0.00    -0.278 A  
HETATM   16  C   UNL     1     -11.435  12.343  63.848  1.00  0.00    -0.509 A  
HETATM   17  C   UNL     1     -11.303  12.441  65.238  1.00  0.00    -0.374 A  
HETATM   18  C   UNL     1     -10.348  11.672  65.929  1.00  0.00    -0.289 A  
HETATM   19  C   UNL     1     -10.214  11.760  67.432  1.00  0.00    -0.220 C  
HETATM   20  C   UNL     1     -10.799  13.048  67.999  1.00  0.00    -0.261 C  
HETATM   21  C   UNL     1     -12.208  13.277  67.482  1.00  0.00    -0.213 C  
HETATM   22  C   UNL     1     -12.209  13.359  65.974  1.00  0.00    -0.437 C  
HETATM   23  O   UNL     1     -12.973  14.104  65.368  1.00  0.00    -0.706 OA 
ENDBRANCH  12  13
ENDBRANCH  11  12
ENDBRANCH   8  11
ENDBRANCH   7   8
ENDBRANCH   5   7
TORSDOF 5
ENDMDL
MODEL      180
REMARK 921   NORMALIZED FREE ENERGY PREDICTED BY IDOCK:   -4.05 KCAL/MOL
REMARK 922        TOTAL FREE ENERGY PREDICTED BY IDOCK:   -5.96 KCAL/MOL
REMARK 923 INTER-LIGAND FREE ENERGY PREDICTED BY IDOCK:   -5.44 KCAL/MOL
REMARK 924 INTRA-LIGAND FREE ENERGY PREDICTED BY IDOCK:   -0.52 KCAL/MOL
REMARK 927      BINDING AFFINITY PREDICTED BY RF-SCORE:    0.00 PKD
ROOT
HETATM    1  C   UNL     1      -9.583   3.369  64.598  1.00  0.00    -0.161 C  
HETATM    2  C   UNL     1      -8.624   4.510  64.216  1.00  0.00    -0.131 C  
HETATM    3  C   UNL     1      -8.872   4.866  62.735  1.00  0.00    -0.099 C  
HETATM    4  C   UNL     1      -7.165   4.053  64.362  1.00  0.00    -0.062 C  
HETATM    5  N   UNL     1      -8.892   5.736  65.000  1.00  0.00    -0.345 NA 
HETATM    6  H   UNL     1      -9.824   6.092  64.786  1.00  0.00     0.000 HD 
ENDROOT
BRANCH   5   7
HETATM    7  C   UNL     1      -8.724   5.598  66.454  1.00  0.00    -0.126 C  
BRANCH   7   8
HETATM    8  C   UNL     1      -9.824   6.278  67.296  1.00  0.00    -0.137 C  
HETATM    9  O   UNL     1     -11.043   6.261  66.538  1.00  0.00    -0.687 OA 
HETATM   10  H   UNL     1     -11.719   6.680  67.057  1.00  0.00     0.000 HD 
BRANCH   8  11
HETATM   11  C   UNL     1      -9.471   7.727  67.642  1.00  0.00    -0.144 C  
BRANCH  11  12
HETATM   12  O   UNL     1     -10.667   8.520  67.589  1.00  0.00    -0.219 OA 
BRANCH  12  13
HETATM   13  C   UNL     1     -10.517   9.715  66.926  1.00  0.00    -0.212 A  
HETATM   14  C   UNL     1      -9.999   9.800  65.627  1.00  0.00    -0.352 A  
HETATM   15  C   UNL     1      -9.810  11.039  65.020  1.00  0.00    -0.321 A  
HETATM   16  C   UNL     1     -10.178  12.199  65.696  1.00  0.00    -0.285 A  
HETATM   17  C   UNL     1     -10.755  12.117  66.968  1.00  0.00    -0.272 A  
HETATM   18  C   UNL     1     -10.924  10.874  67.607  1.00  0.00    -0.350 A  
HETATM   19  C   UNL     1     -11.563  10.778  68.972  1.00  0.00    -0.370 C  
HETATM   20  C   UNL     1     -11.514  12.096  69.738  1.00  0.00    -0.261 C  
HETATM   21  C   UNL     1     -12.032  13.237  68.883  1.00  0.00    -0.336 C  
HETATM   22  C   UNL     1     -11.209  13.370  67.624  1.00  0.00    -0.276 C  
HETATM   23  O   UNL     1     -10.974  14.463  67.117  1.00  0.00    -0.291 OA 
ENDBRANCH  12  13
ENDBRANCH  11  12
ENDBRANCH   8  11
ENDBRANCH   7   8
ENDBRANCH   5   7
TORSDOF 5
ENDMDL
MODEL      181
REMARK 921   NORMALIZED FREE ENERGY PREDICTED BY IDOCK:   -4.04 KCAL/MOL
REMARK 922        TOTAL FREE ENERGY PREDICTED BY IDOCK:   -5.95 KCAL/MOL
REMARK 923 INTER-LIGAND FREE ENERGY PREDICTED BY IDOCK:   -5.35 KCAL/MOL
REMARK 924 INTRA-LIGAND FREE ENERGY PREDICTED BY IDOCK:   -0.59 KCAL/MOL
REMARK 927      BINDING AFFINITY PREDICTED BY RF-SCORE:    0.00 PKD
ROOT
HETATM    1  C   UNL     1      -6.128  10.784  68.522  1.00  0.00    -0.043 C  
HETATM    2  C   UNL     1      -6.842  11.855  67.679  1.00  0.00    -0.112 C  
HETATM    3  C   UNL     1      -5.789  12.890  67.233  1.00  0.00     0.037 C  
HETATM    4  C   UNL     1      -7.903  12.579  68.521  1.00  0.00    -0.108 C  
HETATM    5  N   UNL     1      -7.424  11.281  66.445  1.00  0.00    -0.294 NA 
HETATM    6  H   UNL     1      -6.684  10.921  65.843  1.00  0.00     0.000 HD 
ENDROOT
BRANCH   5   7
HETATM    7  C   UNL     1      -8.450  10.250  66.658  1.00  0.00    -0.124 C  
BRANCH   7   8
HETATM    8  C   UNL     1      -9.807  10.543  65.984  1.00  0.00    -0.222 C  
HETATM    9  O   UNL     1      -9.930   9.687  64.838  1.00  0.00    -0.418 OA 
HETATM   10  H   UNL     1     -10.766   9.868  64.423  1.00  0.00     0.000 HD 
BRANCH   8  11
HETATM   11  C   UNL     1      -9.922  12.001  65.532  1.00  0.00    -0.241 C  
BRANCH  11  12
HETATM   12  O   UNL     1     -11.229  12.490  65.874  1.00  0.00    -0.294 OA 
BRANCH  12  13
HETATM   13  C   UNL     1     -11.246  13.313  66.975  1.00  0.00    -0.292 A  
HETATM   14  C   UNL     1     -11.548  12.850  68.263  1.00  0.00    -0.374 A  
HETATM   15  C   UNL     1     -11.612  13.734  69.336  1.00  0.00    -0.365 A  
HETATM   16  C   UNL     1     -11.331  15.083  69.134  1.00  0.00    -0.311 A  
HETATM   17  C   UNL     1     -10.966  15.540  67.863  1.00  0.00    -0.316 A  
HETATM   18  C   UNL     1     -10.928  14.664  66.762  1.00  0.00    -0.323 A  
HETATM   19  C   UNL     1     -10.517  15.150  65.392  1.00  0.00    -0.416 C  
HETATM   20  C   UNL     1     -10.659  16.660  65.236  1.00  0.00    -0.224 C  
HETATM   21  C   UNL     1      -9.987  17.387  66.386  1.00  0.00    -0.322 C  
HETATM   22  C   UNL     1     -10.596  16.970  67.703  1.00  0.00    -0.333 C  
HETATM   23  O   UNL     1     -10.724  17.758  68.635  1.00  0.00    -0.260 OA 
ENDBRANCH  12  13
ENDBRANCH  11  12
ENDBRANCH   8  11
ENDBRANCH   7   8
ENDBRANCH   5   7
TORSDOF 5
ENDMDL
MODEL      182
REMARK 921   NORMALIZED FREE ENERGY PREDICTED BY IDOCK:   -4.03 KCAL/MOL
REMARK 922        TOTAL FREE ENERGY PREDICTED BY IDOCK:   -5.95 KCAL/MOL
REMARK 923 INTER-LIGAND FREE ENERGY PREDICTED BY IDOCK:   -5.55 KCAL/MOL
REMARK 924 INTRA-LIGAND FREE ENERGY PREDICTED BY IDOCK:   -0.39 KCAL/MOL
REMARK 927      BINDING AFFINITY PREDICTED BY RF-SCORE:    0.00 PKD
ROOT
HETATM    1  C   UNL     1     -10.225   8.357  66.690  1.00  0.00    -0.335 C  
HETATM    2  C   UNL     1      -8.977   9.112  66.201  1.00  0.00    -0.173 C  
HETATM    3  C   UNL     1      -8.923   8.995  64.663  1.00  0.00    -0.112 C  
HETATM    4  C   UNL     1      -7.705   8.471  66.776  1.00  0.00    -0.091 C  
HETATM    5  N   UNL     1      -9.052  10.555  66.516  1.00  0.00    -0.155 NA 
HETATM    6  H   UNL     1      -9.831  10.983  66.017  1.00  0.00     0.000 HD 
ENDROOT
BRANCH   5   7
HETATM    7  C   UNL     1      -9.127  10.879  67.948  1.00  0.00    -0.149 C  
BRANCH   7   8
HETATM    8  C   UNL     1     -10.504  11.391  68.420  1.00  0.00    -0.200 C  
HETATM    9  O   UNL     1     -11.213  10.290  69.009  1.00  0.00    -0.253 OA 
HETATM   10  H   UNL     1     -12.061  10.606  69.300  1.00  0.00     0.000 HD 
BRANCH   8  11
HETATM   11  C   UNL     1     -11.335  11.958  67.265  1.00  0.00    -0.329 C  
BRANCH  11  12
HETATM   12  O   UNL     1     -12.406  12.746  67.808  1.00  0.00    -0.211 OA 
BRANCH  12  13
HETATM   13  C   UNL     1     -12.002  13.947  68.340  1.00  0.00    -0.356 A  
HETATM   14  C   UNL     1     -11.340  14.926  67.585  1.00  0.00    -0.348 A  
HETATM   15  C   UNL     1     -10.897  16.102  68.185  1.00  0.00    -0.329 A  
HETATM   16  C   UNL     1     -11.152  16.324  69.535  1.00  0.00    -0.330 A  
HETATM   17  C   UNL     1     -11.868  15.379  70.279  1.00  0.00    -0.368 A  
HETATM   18  C   UNL     1     -12.294  14.172  69.695  1.00  0.00    -0.304 A  
HETATM   19  C   UNL     1     -13.084  13.157  70.489  1.00  0.00     0.241 C  
HETATM   20  C   UNL     1     -12.913  13.327  71.994  1.00  0.00    -0.401 C  
HETATM   21  C   UNL     1     -13.153  14.768  72.406  1.00  0.00    -0.463 C  
HETATM   22  C   UNL     1     -12.189  15.687  71.696  1.00  0.00    -0.426 C  
HETATM   23  O   UNL     1     -11.735  16.690  72.237  1.00  0.00    -0.460 OA 
ENDBRANCH  12  13
ENDBRANCH  11  12
ENDBRANCH   8  11
ENDBRANCH   7   8
ENDBRANCH   5   7
TORSDOF 5
ENDMDL
MODEL      183
REMARK 921   NORMALIZED FREE ENERGY PREDICTED BY IDOCK:   -4.03 KCAL/MOL
REMARK 922        TOTAL FREE ENERGY PREDICTED BY IDOCK:   -5.94 KCAL/MOL
REMARK 923 INTER-LIGAND FREE ENERGY PREDICTED BY IDOCK:   -5.67 KCAL/MOL
REMARK 924 INTRA-LIGAND FREE ENERGY PREDICTED BY IDOCK:   -0.27 KCAL/MOL
REMARK 927      BINDING AFFINITY PREDICTED BY RF-SCORE:    0.00 PKD
ROOT
HETATM    1  C   UNL     1      -9.430  20.091  68.667  1.00  0.00    -0.202 C  
HETATM    2  C   UNL     1      -8.122  19.543  68.067  1.00  0.00    -0.312 C  
HETATM    3  C   UNL     1      -7.177  19.186  69.233  1.00  0.00    -0.283 C  
HETATM    4  C   UNL     1      -7.440  20.616  67.206  1.00  0.00    -0.395 C  
HETATM    5  N   UNL     1      -8.350  18.296  67.306  1.00  0.00    -0.243 NA 
HETATM    6  H   UNL     1      -8.683  17.560  67.928  1.00  0.00     0.000 HD 
ENDROOT
BRANCH   5   7
HETATM    7  C   UNL     1      -9.248  18.425  66.148  1.00  0.00    -0.120 C  
BRANCH   7   8
HETATM    8  C   UNL     1     -10.498  17.521  66.200  1.00  0.00    -0.288 C  
HETATM    9  O   UNL     1     -10.850  17.324  67.578  1.00  0.00    -0.314 OA 
HETATM   10  H   UNL     1     -11.620  16.768  67.610  1.00  0.00     0.000 HD 
BRANCH   8  11
HETATM   11  C   UNL     1     -10.251  16.158  65.549  1.00  0.00    -0.331 C  
BRANCH  11  12
HETATM   12  O   UNL     1     -10.930  15.149  66.313  1.00  0.00    -0.337 OA 
BRANCH  12  13
HETATM   13  C   UNL     1     -10.141  14.074  66.644  1.00  0.00    -0.276 A  
HETATM   14  C   UNL     1      -9.416  14.005  67.842  1.00  0.00    -0.210 A  
HETATM   15  C   UNL     1      -8.584  12.920  68.103  1.00  0.00    -0.188 A  
HETATM   16  C   UNL     1      -8.504  11.877  67.186  1.00  0.00    -0.173 A  
HETATM   17  C   UNL     1      -9.275  11.909  66.018  1.00  0.00    -0.176 A  
HETATM   18  C   UNL     1     -10.096  13.013  65.724  1.00  0.00    -0.294 A  
HETATM   19  C   UNL     1     -10.944  13.045  64.474  1.00  0.00    -0.381 C  
HETATM   20  C   UNL     1     -10.445  12.083  63.401  1.00  0.00    -0.474 C  
HETATM   21  C   UNL     1     -10.230  10.695  63.977  1.00  0.00    -0.334 C  
HETATM   22  C   UNL     1      -9.224  10.741  65.102  1.00  0.00    -0.209 C  
HETATM   23  O   UNL     1      -8.435   9.822  65.301  1.00  0.00    -0.132 OA 
ENDBRANCH  12  13
ENDBRANCH  11  12
ENDBRANCH   8  11
ENDBRANCH   7   8
ENDBRANCH   5   7
TORSDOF 5
ENDMDL
MODEL      184
REMARK 921   NORMALIZED FREE ENERGY PREDICTED BY IDOCK:   -4.03 KCAL/MOL
REMARK 922        TOTAL FREE ENERGY PREDICTED BY IDOCK:   -5.94 KCAL/MOL
REMARK 923 INTER-LIGAND FREE ENERGY PREDICTED BY IDOCK:   -5.09 KCAL/MOL
REMARK 924 INTRA-LIGAND FREE ENERGY PREDICTED BY IDOCK:   -0.85 KCAL/MOL
REMARK 927      BINDING AFFINITY PREDICTED BY RF-SCORE:    0.00 PKD
ROOT
HETATM    1  C   UNL     1     -10.466  15.190  68.990  1.00  0.00    -0.248 C  
HETATM    2  C   UNL     1     -10.688  13.941  68.118  1.00  0.00    -0.250 C  
HETATM    3  C   UNL     1      -9.458  13.776  67.201  1.00  0.00    -0.244 C  
HETATM    4  C   UNL     1     -11.928  14.122  67.231  1.00  0.00    -0.449 C  
HETATM    5  N   UNL     1     -10.776  12.712  68.937  1.00  0.00    -0.375 NA 
HETATM    6  H   UNL     1      -9.892  12.545  69.417  1.00  0.00     0.000 HD 
ENDROOT
BRANCH   5   7
HETATM    7  C   UNL     1     -11.889  12.680  69.898  1.00  0.00    -0.294 C  
BRANCH   7   8
HETATM    8  C   UNL     1     -12.459  11.273  70.175  1.00  0.00    -0.221 C  
HETATM    9  O   UNL     1     -12.819  11.201  71.563  1.00  0.00    -0.423 OA 
HETATM   10  H   UNL     1     -13.170  10.335  71.733  1.00  0.00     0.000 HD 
BRANCH   8  11
HETATM   11  C   UNL     1     -11.445  10.169  69.864  1.00  0.00    -0.254 C  
BRANCH  11  12
HETATM   12  O   UNL     1     -11.281  10.078  68.440  1.00  0.00    -0.218 OA 
BRANCH  12  13
HETATM   13  C   UNL     1     -10.499   9.022  68.035  1.00  0.00    -0.216 A  
HETATM   14  C   UNL     1     -10.411   7.824  68.756  1.00  0.00    -0.219 A  
HETATM   15  C   UNL     1      -9.558   6.806  68.336  1.00  0.00    -0.125 A  
HETATM   16  C   UNL     1      -8.821   6.966  67.166  1.00  0.00    -0.120 A  
HETATM   17  C   UNL     1      -8.953   8.135  66.407  1.00  0.00    -0.207 A  
HETATM   18  C   UNL     1      -9.786   9.185  66.836  1.00  0.00    -0.280 A  
HETATM   19  C   UNL     1      -9.947  10.440  66.011  1.00  0.00    -0.301 C  
HETATM   20  C   UNL     1      -8.798  10.650  65.031  1.00  0.00    -0.212 C  
HETATM   21  C   UNL     1      -8.546   9.394  64.217  1.00  0.00    -0.216 C  
HETATM   22  C   UNL     1      -8.210   8.235  65.125  1.00  0.00    -0.154 C  
HETATM   23  O   UNL     1      -7.407   7.368  64.796  1.00  0.00    -0.068 OA 
ENDBRANCH  12  13
ENDBRANCH  11  12
ENDBRANCH   8  11
ENDBRANCH   7   8
ENDBRANCH   5   7
TORSDOF 5
ENDMDL
MODEL      185
REMARK 921   NORMALIZED FREE ENERGY PREDICTED BY IDOCK:   -4.03 KCAL/MOL
REMARK 922        TOTAL FREE ENERGY PREDICTED BY IDOCK:   -5.94 KCAL/MOL
REMARK 923 INTER-LIGAND FREE ENERGY PREDICTED BY IDOCK:   -5.31 KCAL/MOL
REMARK 924 INTRA-LIGAND FREE ENERGY PREDICTED BY IDOCK:   -0.63 KCAL/MOL
REMARK 927      BINDING AFFINITY PREDICTED BY RF-SCORE:    0.00 PKD
ROOT
HETATM    1  C   UNL     1      -8.532  16.305  68.788  1.00  0.00    -0.240 C  
HETATM    2  C   UNL     1      -9.689  16.928  67.988  1.00  0.00    -0.256 C  
HETATM    3  C   UNL     1      -9.253  17.014  66.510  1.00  0.00    -0.296 C  
HETATM    4  C   UNL     1      -9.979  18.352  68.488  1.00  0.00    -0.415 C  
HETATM    5  N   UNL     1     -10.900  16.080  68.026  1.00  0.00    -0.324 NA 
HETATM    6  H   UNL     1     -10.717  15.185  67.572  1.00  0.00     0.000 HD 
ENDROOT
BRANCH   5   7
HETATM    7  C   UNL     1     -11.468  15.860  69.365  1.00  0.00    -0.351 C  
BRANCH   7   8
HETATM    8  C   UNL     1     -12.141  14.486  69.562  1.00  0.00    -0.306 C  
HETATM    9  O   UNL     1     -11.594  13.885  70.745  1.00  0.00    -0.514 OA 
HETATM   10  H   UNL     1     -12.008  13.039  70.866  1.00  0.00     0.000 HD 
BRANCH   8  11
HETATM   11  C   UNL     1     -11.902  13.552  68.372  1.00  0.00    -0.373 C  
BRANCH  11  12
HETATM   12  O   UNL     1     -11.243  12.365  68.840  1.00  0.00    -0.249 OA 
BRANCH  12  13
HETATM   13  C   UNL     1     -10.037  12.118  68.229  1.00  0.00    -0.210 A  
HETATM   14  C   UNL     1      -9.101  13.128  67.963  1.00  0.00    -0.207 A  
HETATM   15  C   UNL     1      -7.919  12.837  67.288  1.00  0.00    -0.156 A  
HETATM   16  C   UNL     1      -7.646  11.525  66.912  1.00  0.00    -0.151 A  
HETATM   17  C   UNL     1      -8.547  10.502  67.232  1.00  0.00    -0.122 A  
HETATM   18  C   UNL     1      -9.760  10.785  67.886  1.00  0.00    -0.181 A  
HETATM   19  C   UNL     1     -10.727   9.682  68.249  1.00  0.00    -0.262 C  
HETATM   20  C   UNL     1     -10.513   8.418  67.424  1.00  0.00    -0.354 C  
HETATM   21  C   UNL     1      -9.053   8.002  67.441  1.00  0.00    -0.147 C  
HETATM   22  C   UNL     1      -8.184   9.104  66.885  1.00  0.00    -0.116 C  
HETATM   23  O   UNL     1      -7.177   8.862  66.227  1.00  0.00    -0.084 OA 
ENDBRANCH  12  13
ENDBRANCH  11  12
ENDBRANCH   8  11
ENDBRANCH   7   8
ENDBRANCH   5   7
TORSDOF 5
ENDMDL
MODEL      186
REMARK 921   NORMALIZED FREE ENERGY PREDICTED BY IDOCK:   -4.03 KCAL/MOL
REMARK 922        TOTAL FREE ENERGY PREDICTED BY IDOCK:   -5.93 KCAL/MOL
REMARK 923 INTER-LIGAND FREE ENERGY PREDICTED BY IDOCK:   -5.28 KCAL/MOL
REMARK 924 INTRA-LIGAND FREE ENERGY PREDICTED BY IDOCK:   -0.66 KCAL/MOL
REMARK 927      BINDING AFFINITY PREDICTED BY RF-SCORE:    0.00 PKD
ROOT
HETATM    1  C   UNL     1     -10.628  18.279  67.607  1.00  0.00    -0.427 C  
HETATM    2  C   UNL     1      -9.662  17.176  68.077  1.00  0.00    -0.274 C  
HETATM    3  C   UNL     1      -8.378  17.857  68.594  1.00  0.00    -0.276 C  
HETATM    4  C   UNL     1      -9.283  16.263  66.902  1.00  0.00    -0.237 C  
HETATM    5  N   UNL     1     -10.221  16.406  69.209  1.00  0.00    -0.266 NA 
HETATM    6  H   UNL     1     -10.344  17.012  70.020  1.00  0.00     0.000 HD 
ENDROOT
BRANCH   5   7
HETATM    7  C   UNL     1     -11.472  15.688  68.920  1.00  0.00    -0.361 C  
BRANCH   7   8
HETATM    8  C   UNL     1     -12.235  15.197  70.168  1.00  0.00    -0.352 C  
HETATM    9  O   UNL     1     -11.889  16.052  71.269  1.00  0.00    -0.415 OA 
HETATM   10  H   UNL     1     -12.359  15.749  72.037  1.00  0.00     0.000 HD 
BRANCH   8  11
HETATM   11  C   UNL     1     -11.881  13.752  70.528  1.00  0.00    -0.223 C  
BRANCH  11  12
HETATM   12  O   UNL     1     -11.672  13.010  69.316  1.00  0.00    -0.286 OA 
BRANCH  12  13
HETATM   13  C   UNL     1     -11.080  11.785  69.506  1.00  0.00    -0.133 A  
HETATM   14  C   UNL     1     -11.533  10.864  70.460  1.00  0.00    -0.314 A  
HETATM   15  C   UNL     1     -10.862   9.660  70.656  1.00  0.00    -0.386 A  
HETATM   16  C   UNL     1      -9.757   9.352  69.868  1.00  0.00    -0.236 A  
HETATM   17  C   UNL     1      -9.338  10.239  68.870  1.00  0.00    -0.180 A  
HETATM   18  C   UNL     1      -9.986  11.473  68.681  1.00  0.00    -0.207 A  
HETATM   19  C   UNL     1      -9.550  12.426  67.592  1.00  0.00    -0.193 C  
HETATM   20  C   UNL     1      -8.123  12.167  67.123  1.00  0.00    -0.175 C  
HETATM   21  C   UNL     1      -7.922  10.700  66.788  1.00  0.00    -0.132 C  
HETATM   22  C   UNL     1      -8.205   9.840  67.996  1.00  0.00    -0.109 C  
HETATM   23  O   UNL     1      -7.573   8.812  68.220  1.00  0.00    -0.093 OA 
ENDBRANCH  12  13
ENDBRANCH  11  12
ENDBRANCH   8  11
ENDBRANCH   7   8
ENDBRANCH   5   7
TORSDOF 5
ENDMDL
MODEL      187
REMARK 921   NORMALIZED FREE ENERGY PREDICTED BY IDOCK:   -4.02 KCAL/MOL
REMARK 922        TOTAL FREE ENERGY PREDICTED BY IDOCK:   -5.93 KCAL/MOL
REMARK 923 INTER-LIGAND FREE ENERGY PREDICTED BY IDOCK:   -5.70 KCAL/MOL
REMARK 924 INTRA-LIGAND FREE ENERGY PREDICTED BY IDOCK:   -0.23 KCAL/MOL
REMARK 927      BINDING AFFINITY PREDICTED BY RF-SCORE:    0.00 PKD
ROOT
HETATM    1  C   UNL     1      -8.762   5.704  69.717  1.00  0.00    -0.125 C  
HETATM    2  C   UNL     1     -10.022   6.312  70.359  1.00  0.00    -0.178 C  
HETATM    3  C   UNL     1     -10.446   5.402  71.530  1.00  0.00    -0.289 C  
HETATM    4  C   UNL     1     -11.172   6.353  69.341  1.00  0.00    -0.459 C  
HETATM    5  N   UNL     1      -9.753   7.648  70.933  1.00  0.00    -0.172 NA 
HETATM    6  H   UNL     1      -9.079   7.574  71.695  1.00  0.00     0.000 HD 
ENDROOT
BRANCH   5   7
HETATM    7  C   UNL     1      -9.315   8.667  69.967  1.00  0.00    -0.162 C  
BRANCH   7   8
HETATM    8  C   UNL     1     -10.088  10.000  70.043  1.00  0.00    -0.239 C  
HETATM    9  O   UNL     1     -11.358   9.746  70.663  1.00  0.00    -0.279 OA 
HETATM   10  H   UNL     1     -11.834  10.567  70.709  1.00  0.00     0.000 HD 
BRANCH   8  11
HETATM   11  C   UNL     1     -10.322  10.610  68.658  1.00  0.00    -0.186 C  
BRANCH  11  12
HETATM   12  O   UNL     1     -10.782   9.579  67.770  1.00  0.00    -0.261 OA 
BRANCH  12  13
HETATM   13  C   UNL     1     -10.089   9.513  66.585  1.00  0.00    -0.252 A  
HETATM   14  C   UNL     1      -9.184   8.483  66.292  1.00  0.00    -0.262 A  
HETATM   15  C   UNL     1      -8.462   8.494  65.102  1.00  0.00    -0.193 A  
HETATM   16  C   UNL     1      -8.672   9.514  64.178  1.00  0.00    -0.239 A  
HETATM   17  C   UNL     1      -9.621  10.510  64.437  1.00  0.00    -0.357 A  
HETATM   18  C   UNL     1     -10.336  10.530  65.648  1.00  0.00    -0.274 A  
HETATM   19  C   UNL     1     -11.374  11.593  65.924  1.00  0.00    -0.262 C  
HETATM   20  C   UNL     1     -11.190  12.833  65.057  1.00  0.00    -0.333 C  
HETATM   21  C   UNL     1     -11.056  12.454  63.594  1.00  0.00    -0.535 C  
HETATM   22  C   UNL     1      -9.874  11.536  63.393  1.00  0.00    -0.401 C  
HETATM   23  O   UNL     1      -9.185  11.582  62.379  1.00  0.00    -0.241 OA 
ENDBRANCH  12  13
ENDBRANCH  11  12
ENDBRANCH   8  11
ENDBRANCH   7   8
ENDBRANCH   5   7
TORSDOF 5
ENDMDL
MODEL      188
REMARK 921   NORMALIZED FREE ENERGY PREDICTED BY IDOCK:   -4.02 KCAL/MOL
REMARK 922        TOTAL FREE ENERGY PREDICTED BY IDOCK:   -5.93 KCAL/MOL
REMARK 923 INTER-LIGAND FREE ENERGY PREDICTED BY IDOCK:   -5.60 KCAL/MOL
REMARK 924 INTRA-LIGAND FREE ENERGY PREDICTED BY IDOCK:   -0.33 KCAL/MOL
REMARK 927      BINDING AFFINITY PREDICTED BY RF-SCORE:    0.00 PKD
ROOT
HETATM    1  C   UNL     1     -10.978  12.018  63.988  1.00  0.00    -0.442 C  
HETATM    2  C   UNL     1     -11.337  13.056  65.065  1.00  0.00    -0.296 C  
HETATM    3  C   UNL     1     -12.551  13.864  64.562  1.00  0.00    -0.246 C  
HETATM    4  C   UNL     1     -10.168  14.029  65.280  1.00  0.00    -0.383 C  
HETATM    5  N   UNL     1     -11.749  12.411  66.331  1.00  0.00    -0.485 NA 
HETATM    6  H   UNL     1     -12.604  11.873  66.188  1.00  0.00     0.000 HD 
ENDROOT
BRANCH   5   7
HETATM    7  C   UNL     1     -10.723  11.573  66.969  1.00  0.00    -0.259 C  
BRANCH   7   8
HETATM    8  C   UNL     1     -11.046  11.152  68.418  1.00  0.00    -0.247 C  
HETATM    9  O   UNL     1     -10.013  11.665  69.273  1.00  0.00    -0.413 OA 
HETATM   10  H   UNL     1     -10.212  11.405  70.165  1.00  0.00     0.000 HD 
BRANCH   8  11
HETATM   11  C   UNL     1     -11.113   9.630  68.574  1.00  0.00    -0.041 C  
BRANCH  11  12
HETATM   12  O   UNL     1     -10.570   9.271  69.854  1.00  0.00    -0.208 OA 
BRANCH  12  13
HETATM   13  C   UNL     1     -10.389   7.920  70.025  1.00  0.00    -0.221 A  
HETATM   14  C   UNL     1     -10.762   6.977  69.057  1.00  0.00    -0.234 A  
HETATM   15  C   UNL     1     -10.613   5.614  69.302  1.00  0.00    -0.359 A  
HETATM   16  C   UNL     1     -10.050   5.189  70.502  1.00  0.00    -0.326 A  
HETATM   17  C   UNL     1      -9.617   6.128  71.446  1.00  0.00    -0.177 A  
HETATM   18  C   UNL     1      -9.790   7.506  71.226  1.00  0.00    -0.188 A  
HETATM   19  C   UNL     1      -9.307   8.524  72.233  1.00  0.00    -0.363 C  
HETATM   20  C   UNL     1      -9.121   7.931  73.625  1.00  0.00    -0.337 C  
HETATM   21  C   UNL     1      -8.287   6.664  73.566  1.00  0.00    -0.127 C  
HETATM   22  C   UNL     1      -8.949   5.637  72.679  1.00  0.00    -0.132 C  
HETATM   23  O   UNL     1      -8.885   4.436  72.922  1.00  0.00    -0.113 OA 
ENDBRANCH  12  13
ENDBRANCH  11  12
ENDBRANCH   8  11
ENDBRANCH   7   8
ENDBRANCH   5   7
TORSDOF 5
ENDMDL
MODEL      189
REMARK 921   NORMALIZED FREE ENERGY PREDICTED BY IDOCK:   -4.01 KCAL/MOL
REMARK 922        TOTAL FREE ENERGY PREDICTED BY IDOCK:   -5.91 KCAL/MOL
REMARK 923 INTER-LIGAND FREE ENERGY PREDICTED BY IDOCK:   -4.92 KCAL/MOL
REMARK 924 INTRA-LIGAND FREE ENERGY PREDICTED BY IDOCK:   -0.99 KCAL/MOL
REMARK 927      BINDING AFFINITY PREDICTED BY RF-SCORE:    0.00 PKD
ROOT
HETATM    1  C   UNL     1     -11.774  13.021  67.337  1.00  0.00    -0.427 C  
HETATM    2  C   UNL     1     -11.457  13.360  68.805  1.00  0.00    -0.305 C  
HETATM    3  C   UNL     1     -12.264  12.398  69.701  1.00  0.00    -0.171 C  
HETATM    4  C   UNL     1     -11.893  14.797  69.126  1.00  0.00    -0.340 C  
HETATM    5  N   UNL     1     -10.029  13.140  69.120  1.00  0.00    -0.343 NA 
HETATM    6  H   UNL     1      -9.795  12.152  69.022  1.00  0.00     0.000 HD 
ENDROOT
BRANCH   5   7
HETATM    7  C   UNL     1      -9.084  13.962  68.350  1.00  0.00    -0.184 C  
BRANCH   7   8
HETATM    8  C   UNL     1      -7.861  13.195  67.803  1.00  0.00    -0.152 C  
HETATM    9  O   UNL     1      -7.312  13.949  66.711  1.00  0.00    -0.246 OA 
HETATM   10  H   UNL     1      -6.559  13.477  66.375  1.00  0.00     0.000 HD 
BRANCH   8  11
HETATM   11  C   UNL     1      -8.234  11.796  67.305  1.00  0.00    -0.163 C  
BRANCH  11  12
HETATM   12  O   UNL     1      -8.215  10.888  68.418  1.00  0.00    -0.119 OA 
BRANCH  12  13
HETATM   13  C   UNL     1      -8.653   9.622  68.112  1.00  0.00    -0.119 A  
HETATM   14  C   UNL     1      -8.231   8.929  66.969  1.00  0.00    -0.106 A  
HETATM   15  C   UNL     1      -8.750   7.671  66.672  1.00  0.00    -0.150 A  
HETATM   16  C   UNL     1      -9.664   7.082  67.541  1.00  0.00    -0.167 A  
HETATM   17  C   UNL     1     -10.041   7.741  68.716  1.00  0.00    -0.205 A  
HETATM   18  C   UNL     1      -9.549   9.025  69.015  1.00  0.00    -0.160 A  
HETATM   19  C   UNL     1      -9.938   9.733  70.292  1.00  0.00    -0.309 C  
HETATM   20  C   UNL     1     -11.224   9.183  70.900  1.00  0.00    -0.359 C  
HETATM   21  C   UNL     1     -11.163   7.671  71.016  1.00  0.00    -0.283 C  
HETATM   22  C   UNL     1     -10.956   7.045  69.658  1.00  0.00    -0.236 C  
HETATM   23  O   UNL     1     -11.465   5.970  69.357  1.00  0.00    -0.372 OA 
ENDBRANCH  12  13
ENDBRANCH  11  12
ENDBRANCH   8  11
ENDBRANCH   7   8
ENDBRANCH   5   7
TORSDOF 5
ENDMDL
MODEL      190
REMARK 921   NORMALIZED FREE ENERGY PREDICTED BY IDOCK:   -4.00 KCAL/MOL
REMARK 922        TOTAL FREE ENERGY PREDICTED BY IDOCK:   -5.90 KCAL/MOL
REMARK 923 INTER-LIGAND FREE ENERGY PREDICTED BY IDOCK:   -5.07 KCAL/MOL
REMARK 924 INTRA-LIGAND FREE ENERGY PREDICTED BY IDOCK:   -0.84 KCAL/MOL
REMARK 927      BINDING AFFINITY PREDICTED BY RF-SCORE:    0.00 PKD
ROOT
HETATM    1  C   UNL     1      -6.755   9.318  66.400  1.00  0.00    -0.071 C  
HETATM    2  C   UNL     1      -7.839   8.404  65.802  1.00  0.00    -0.101 C  
HETATM    3  C   UNL     1      -7.773   7.047  66.533  1.00  0.00    -0.104 C  
HETATM    4  C   UNL     1      -7.567   8.160  64.310  1.00  0.00    -0.116 C  
HETATM    5  N   UNL     1      -9.196   8.945  66.028  1.00  0.00    -0.212 NA 
HETATM    6  H   UNL     1      -9.400   8.977  67.027  1.00  0.00     0.000 HD 
ENDROOT
BRANCH   5   7
HETATM    7  C   UNL     1      -9.457  10.257  65.417  1.00  0.00    -0.232 C  
BRANCH   7   8
HETATM    8  C   UNL     1     -10.182  11.263  66.336  1.00  0.00    -0.230 C  
HETATM    9  O   UNL     1     -10.524  12.417  65.554  1.00  0.00    -0.261 OA 
HETATM   10  H   UNL     1     -10.970  13.036  66.120  1.00  0.00     0.000 HD 
BRANCH   8  11
HETATM   11  C   UNL     1      -9.307  11.700  67.515  1.00  0.00    -0.168 C  
BRANCH  11  12
HETATM   12  O   UNL     1     -10.111  11.719  68.705  1.00  0.00    -0.206 OA 
BRANCH  12  13
HETATM   13  C   UNL     1      -9.876  10.665  69.554  1.00  0.00    -0.084 A  
HETATM   14  C   UNL     1      -8.638  10.010  69.626  1.00  0.00    -0.198 A  
HETATM   15  C   UNL     1      -8.468   8.908  70.459  1.00  0.00    -0.198 A  
HETATM   16  C   UNL     1      -9.524   8.480  71.258  1.00  0.00    -0.265 A  
HETATM   17  C   UNL     1     -10.742   9.168  71.239  1.00  0.00    -0.401 A  
HETATM   18  C   UNL     1     -10.940  10.265  70.379  1.00  0.00    -0.365 A  
HETATM   19  C   UNL     1     -12.247  11.023  70.369  1.00  0.00    -0.461 C  
HETATM   20  C   UNL     1     -13.401  10.211  70.944  1.00  0.00    -0.272 C  
HETATM   21  C   UNL     1     -13.030   9.624  72.293  1.00  0.00    -0.440 C  
HETATM   22  C   UNL     1     -11.819   8.731  72.165  1.00  0.00    -0.366 C  
HETATM   23  O   UNL     1     -11.688   7.717  72.843  1.00  0.00    -0.315 OA 
ENDBRANCH  12  13
ENDBRANCH  11  12
ENDBRANCH   8  11
ENDBRANCH   7   8
ENDBRANCH   5   7
TORSDOF 5
ENDMDL
MODEL      191
REMARK 921   NORMALIZED FREE ENERGY PREDICTED BY IDOCK:   -4.00 KCAL/MOL
REMARK 922        TOTAL FREE ENERGY PREDICTED BY IDOCK:   -5.90 KCAL/MOL
REMARK 923 INTER-LIGAND FREE ENERGY PREDICTED BY IDOCK:   -5.63 KCAL/MOL
REMARK 924 INTRA-LIGAND FREE ENERGY PREDICTED BY IDOCK:   -0.27 KCAL/MOL
REMARK 927      BINDING AFFINITY PREDICTED BY RF-SCORE:    0.00 PKD
ROOT
HETATM    1  C   UNL     1     -10.198  10.482  66.696  1.00  0.00    -0.289 C  
HETATM    2  C   UNL     1     -10.286  11.892  67.305  1.00  0.00    -0.200 C  
HETATM    3  C   UNL     1     -11.663  12.031  67.987  1.00  0.00    -0.398 C  
HETATM    4  C   UNL     1     -10.186  12.957  66.202  1.00  0.00    -0.286 C  
HETATM    5  N   UNL     1      -9.267  12.099  68.357  1.00  0.00    -0.281 NA 
HETATM    6  H   UNL     1      -9.434  11.464  69.137  1.00  0.00     0.000 HD 
ENDROOT
BRANCH   5   7
HETATM    7  C   UNL     1      -7.871  11.990  67.905  1.00  0.00    -0.144 C  
BRANCH   7   8
HETATM    8  C   UNL     1      -7.226  13.327  67.483  1.00  0.00    -0.150 C  
HETATM    9  O   UNL     1      -5.913  13.048  66.974  1.00  0.00    -0.464 OA 
HETATM   10  H   UNL     1      -5.515  13.871  66.714  1.00  0.00     0.000 HD 
BRANCH   8  11
HETATM   11  C   UNL     1      -7.110  14.306  68.654  1.00  0.00    -0.111 C  
BRANCH  11  12
HETATM   12  O   UNL     1      -7.925  15.456  68.379  1.00  0.00    -0.125 OA 
BRANCH  12  13
HETATM   13  C   UNL     1      -7.207  16.592  68.088  1.00  0.00    -0.152 A  
HETATM   14  C   UNL     1      -5.818  16.584  67.900  1.00  0.00    -0.141 A  
HETATM   15  C   UNL     1      -5.129  17.770  67.666  1.00  0.00    -0.131 A  
HETATM   16  C   UNL     1      -5.832  18.968  67.576  1.00  0.00    -0.176 A  
HETATM   17  C   UNL     1      -7.226  18.974  67.699  1.00  0.00    -0.243 A  
HETATM   18  C   UNL     1      -7.933  17.788  67.967  1.00  0.00    -0.244 A  
HETATM   19  C   UNL     1      -9.440  17.786  68.082  1.00  0.00    -0.282 C  
HETATM   20  C   UNL     1     -10.007  19.168  68.386  1.00  0.00    -0.493 C  
HETATM   21  C   UNL     1      -9.454  20.204  67.424  1.00  0.00    -0.531 C  
HETATM   22  C   UNL     1      -7.948  20.260  67.518  1.00  0.00    -0.311 C  
HETATM   23  O   UNL     1      -7.331  21.312  67.384  1.00  0.00    -0.484 OA 
ENDBRANCH  12  13
ENDBRANCH  11  12
ENDBRANCH   8  11
ENDBRANCH   7   8
ENDBRANCH   5   7
TORSDOF 5
ENDMDL
MODEL      192
REMARK 921   NORMALIZED FREE ENERGY PREDICTED BY IDOCK:   -3.99 KCAL/MOL
REMARK 922        TOTAL FREE ENERGY PREDICTED BY IDOCK:   -5.88 KCAL/MOL
REMARK 923 INTER-LIGAND FREE ENERGY PREDICTED BY IDOCK:   -4.93 KCAL/MOL
REMARK 924 INTRA-LIGAND FREE ENERGY PREDICTED BY IDOCK:   -0.95 KCAL/MOL
REMARK 927      BINDING AFFINITY PREDICTED BY RF-SCORE:    0.00 PKD
ROOT
HETATM    1  C   UNL     1      -7.910   8.839  64.915  1.00  0.00    -0.120 C  
HETATM    2  C   UNL     1      -8.538   8.287  66.207  1.00  0.00    -0.138 C  
HETATM    3  C   UNL     1      -8.998   6.840  65.932  1.00  0.00    -0.095 C  
HETATM    4  C   UNL     1      -9.769   9.117  66.599  1.00  0.00    -0.287 C  
HETATM    5  N   UNL     1      -7.553   8.218  67.308  1.00  0.00    -0.096 NA 
HETATM    6  H   UNL     1      -6.810   7.560  67.075  1.00  0.00     0.000 HD 
ENDROOT
BRANCH   5   7
HETATM    7  C   UNL     1      -6.977   9.509  67.714  1.00  0.00    -0.080 C  
BRANCH   7   8
HETATM    8  C   UNL     1      -6.189   9.475  69.040  1.00  0.00    -0.042 C  
HETATM    9  O   UNL     1      -5.500   8.217  69.119  1.00  0.00    -0.030 OA 
HETATM   10  H   UNL     1      -5.016   8.197  69.936  1.00  0.00     0.000 HD 
BRANCH   8  11
HETATM   11  C   UNL     1      -7.107   9.617  70.258  1.00  0.00    -0.127 C  
BRANCH  11  12
HETATM   12  O   UNL     1      -8.467   9.433  69.837  1.00  0.00    -0.141 OA 
BRANCH  12  13
HETATM   13  C   UNL     1      -9.289   8.921  70.813  1.00  0.00    -0.230 A  
HETATM   14  C   UNL     1      -8.876   7.919  71.703  1.00  0.00    -0.163 A  
HETATM   15  C   UNL     1      -9.765   7.391  72.635  1.00  0.00    -0.212 A  
HETATM   16  C   UNL     1     -11.061   7.892  72.710  1.00  0.00    -0.462 A  
HETATM   17  C   UNL     1     -11.460   8.936  71.867  1.00  0.00    -0.442 A  
HETATM   18  C   UNL     1     -10.584   9.459  70.899  1.00  0.00    -0.390 A  
HETATM   19  C   UNL     1     -11.003  10.598  70.000  1.00  0.00    -0.325 C  
HETATM   20  C   UNL     1     -12.518  10.740  69.900  1.00  0.00    -0.277 C  
HETATM   21  C   UNL     1     -13.151  10.765  71.279  1.00  0.00    -0.427 C  
HETATM   22  C   UNL     1     -12.826   9.498  72.032  1.00  0.00    -0.414 C  
HETATM   23  O   UNL     1     -13.627   8.981  72.804  1.00  0.00    -0.433 OA 
ENDBRANCH  12  13
ENDBRANCH  11  12
ENDBRANCH   8  11
ENDBRANCH   7   8
ENDBRANCH   5   7
TORSDOF 5
ENDMDL
MODEL      193
REMARK 921   NORMALIZED FREE ENERGY PREDICTED BY IDOCK:   -3.97 KCAL/MOL
REMARK 922        TOTAL FREE ENERGY PREDICTED BY IDOCK:   -5.86 KCAL/MOL
REMARK 923 INTER-LIGAND FREE ENERGY PREDICTED BY IDOCK:   -5.26 KCAL/MOL
REMARK 924 INTRA-LIGAND FREE ENERGY PREDICTED BY IDOCK:   -0.61 KCAL/MOL
REMARK 927      BINDING AFFINITY PREDICTED BY RF-SCORE:    0.00 PKD
ROOT
HETATM    1  C   UNL     1      -8.443   5.032  67.425  1.00  0.00    -0.105 C  
HETATM    2  C   UNL     1      -9.420   6.090  66.881  1.00  0.00    -0.134 C  
HETATM    3  C   UNL     1     -10.730   5.373  66.494  1.00  0.00    -0.309 C  
HETATM    4  C   UNL     1      -8.843   6.751  65.620  1.00  0.00    -0.043 C  
HETATM    5  N   UNL     1      -9.771   7.092  67.911  1.00  0.00    -0.123 NA 
HETATM    6  H   UNL     1     -10.268   6.645  68.681  1.00  0.00     0.000 HD 
ENDROOT
BRANCH   5   7
HETATM    7  C   UNL     1      -8.641   7.880  68.427  1.00  0.00    -0.128 C  
BRANCH   7   8
HETATM    8  C   UNL     1      -8.446   7.799  69.956  1.00  0.00    -0.135 C  
HETATM    9  O   UNL     1      -8.383   6.413  70.326  1.00  0.00    -0.123 OA 
HETATM   10  H   UNL     1      -8.263   6.364  71.267  1.00  0.00     0.000 HD 
BRANCH   8  11
HETATM   11  C   UNL     1      -9.593   8.467  70.719  1.00  0.00    -0.180 C  
BRANCH  11  12
HETATM   12  O   UNL     1     -10.396   9.212  69.789  1.00  0.00    -0.199 OA 
BRANCH  12  13
HETATM   13  C   UNL     1     -11.287  10.072  70.386  1.00  0.00    -0.320 A  
HETATM   14  C   UNL     1     -12.152   9.675  71.415  1.00  0.00    -0.472 A  
HETATM   15  C   UNL     1     -13.078  10.568  71.945  1.00  0.00    -0.567 A  
HETATM   16  C   UNL     1     -13.115  11.879  71.478  1.00  0.00    -0.377 A  
HETATM   17  C   UNL     1     -12.211  12.299  70.496  1.00  0.00    -0.387 A  
HETATM   18  C   UNL     1     -11.290  11.400  69.928  1.00  0.00    -0.300 A  
HETATM   19  C   UNL     1     -10.300  11.854  68.881  1.00  0.00    -0.131 C  
HETATM   20  C   UNL     1     -10.730  13.140  68.184  1.00  0.00    -0.258 C  
HETATM   21  C   UNL     1     -11.101  14.206  69.198  1.00  0.00    -0.295 C  
HETATM   22  C   UNL     1     -12.228  13.726  70.080  1.00  0.00    -0.342 C  
HETATM   23  O   UNL     1     -13.093  14.490  70.498  1.00  0.00    -0.330 OA 
ENDBRANCH  12  13
ENDBRANCH  11  12
ENDBRANCH   8  11
ENDBRANCH   7   8
ENDBRANCH   5   7
TORSDOF 5
ENDMDL
MODEL      194
REMARK 921   NORMALIZED FREE ENERGY PREDICTED BY IDOCK:   -3.97 KCAL/MOL
REMARK 922        TOTAL FREE ENERGY PREDICTED BY IDOCK:   -5.86 KCAL/MOL
REMARK 923 INTER-LIGAND FREE ENERGY PREDICTED BY IDOCK:   -4.96 KCAL/MOL
REMARK 924 INTRA-LIGAND FREE ENERGY PREDICTED BY IDOCK:   -0.90 KCAL/MOL
REMARK 927      BINDING AFFINITY PREDICTED BY RF-SCORE:    0.00 PKD
ROOT
HETATM    1  C   UNL     1      -9.151  13.205  67.141  1.00  0.00    -0.230 C  
HETATM    2  C   UNL     1      -8.727  11.973  67.960  1.00  0.00    -0.175 C  
HETATM    3  C   UNL     1      -7.356  12.276  68.600  1.00  0.00    -0.106 C  
HETATM    4  C   UNL     1      -8.571  10.750  67.044  1.00  0.00    -0.130 C  
HETATM    5  N   UNL     1      -9.666  11.706  69.072  1.00  0.00    -0.413 NA 
HETATM    6  H   UNL     1      -9.656  12.481  69.735  1.00  0.00     0.000 HD 
ENDROOT
BRANCH   5   7
HETATM    7  C   UNL     1     -11.048  11.407  68.665  1.00  0.00    -0.236 C  
BRANCH   7   8
HETATM    8  C   UNL     1     -11.758  10.344  69.529  1.00  0.00    -0.188 C  
HETATM    9  O   UNL     1     -13.147  10.697  69.621  1.00  0.00    -0.502 OA 
HETATM   10  H   UNL     1     -13.583  10.042  70.153  1.00  0.00     0.000 HD 
BRANCH   8  11
HETATM   11  C   UNL     1     -11.170  10.263  70.941  1.00  0.00    -0.233 C  
BRANCH  11  12
HETATM   12  O   UNL     1     -10.002   9.427  70.909  1.00  0.00    -0.278 OA 
BRANCH  12  13
HETATM   13  C   UNL     1     -10.219   8.149  71.367  1.00  0.00    -0.198 A  
HETATM   14  C   UNL     1     -10.728   7.878  72.645  1.00  0.00    -0.411 A  
HETATM   15  C   UNL     1     -10.873   6.565  73.085  1.00  0.00    -0.286 A  
HETATM   16  C   UNL     1     -10.549   5.514  72.232  1.00  0.00    -0.276 A  
HETATM   17  C   UNL     1     -10.100   5.778  70.933  1.00  0.00    -0.256 A  
HETATM   18  C   UNL     1      -9.918   7.099  70.485  1.00  0.00    -0.191 A  
HETATM   19  C   UNL     1      -9.452   7.389  69.077  1.00  0.00    -0.148 C  
HETATM   20  C   UNL     1      -8.749   6.199  68.435  1.00  0.00    -0.115 C  
HETATM   21  C   UNL     1      -9.584   4.939  68.571  1.00  0.00    -0.210 C  
HETATM   22  C   UNL     1      -9.840   4.630  70.026  1.00  0.00    -0.224 C  
HETATM   23  O   UNL     1      -9.900   3.477  70.442  1.00  0.00    -0.156 OA 
ENDBRANCH  12  13
ENDBRANCH  11  12
ENDBRANCH   8  11
ENDBRANCH   7   8
ENDBRANCH   5   7
TORSDOF 5
ENDMDL
MODEL      195
REMARK 921   NORMALIZED FREE ENERGY PREDICTED BY IDOCK:   -3.96 KCAL/MOL
REMARK 922        TOTAL FREE ENERGY PREDICTED BY IDOCK:   -5.85 KCAL/MOL
REMARK 923 INTER-LIGAND FREE ENERGY PREDICTED BY IDOCK:   -5.08 KCAL/MOL
REMARK 924 INTRA-LIGAND FREE ENERGY PREDICTED BY IDOCK:   -0.77 KCAL/MOL
REMARK 927      BINDING AFFINITY PREDICTED BY RF-SCORE:    0.00 PKD
ROOT
HETATM    1  C   UNL     1      -6.857  11.734  69.223  1.00  0.00    -0.093 C  
HETATM    2  C   UNL     1      -6.500  10.336  69.759  1.00  0.00    -0.080 C  
HETATM    3  C   UNL     1      -5.151  10.442  70.501  1.00  0.00    -0.051 C  
HETATM    4  C   UNL     1      -6.333   9.345  68.598  1.00  0.00    -0.048 C  
HETATM    5  N   UNL     1      -7.493   9.859  70.746  1.00  0.00    -0.367 NA 
HETATM    6  H   UNL     1      -7.491  10.465  71.567  1.00  0.00     0.000 HD 
ENDROOT
BRANCH   5   7
HETATM    7  C   UNL     1      -8.862   9.706  70.232  1.00  0.00    -0.211 C  
BRANCH   7   8
HETATM    8  C   UNL     1      -9.414   8.267  70.290  1.00  0.00    -0.164 C  
HETATM    9  O   UNL     1      -8.371   7.407  70.774  1.00  0.00    -0.116 OA 
HETATM   10  H   UNL     1      -8.711   6.520  70.809  1.00  0.00     0.000 HD 
BRANCH   8  11
HETATM   11  C   UNL     1      -9.872   7.770  68.915  1.00  0.00    -0.166 C  
BRANCH  11  12
HETATM   12  O   UNL     1     -10.867   8.672  68.405  1.00  0.00    -0.094 OA 
BRANCH  12  13
HETATM   13  C   UNL     1     -10.480   9.346  67.272  1.00  0.00    -0.264 A  
HETATM   14  C   UNL     1      -9.782   8.730  66.224  1.00  0.00    -0.342 A  
HETATM   15  C   UNL     1      -9.360   9.471  65.123  1.00  0.00    -0.316 A  
HETATM   16  C   UNL     1      -9.670  10.826  65.045  1.00  0.00    -0.323 A  
HETATM   17  C   UNL     1     -10.421  11.432  66.058  1.00  0.00    -0.305 A  
HETATM   18  C   UNL     1     -10.828  10.705  67.192  1.00  0.00    -0.328 A  
HETATM   19  C   UNL     1     -11.655  11.350  68.279  1.00  0.00    -0.376 C  
HETATM   20  C   UNL     1     -11.548  12.871  68.273  1.00  0.00    -0.374 C  
HETATM   21  C   UNL     1     -11.798  13.426  66.883  1.00  0.00    -0.453 C  
HETATM   22  C   UNL     1     -10.801  12.860  65.902  1.00  0.00    -0.272 C  
HETATM   23  O   UNL     1     -10.365  13.525  64.967  1.00  0.00    -0.343 OA 
ENDBRANCH  12  13
ENDBRANCH  11  12
ENDBRANCH   8  11
ENDBRANCH   7   8
ENDBRANCH   5   7
TORSDOF 5
ENDMDL
MODEL      196
REMARK 921   NORMALIZED FREE ENERGY PREDICTED BY IDOCK:   -3.95 KCAL/MOL
REMARK 922        TOTAL FREE ENERGY PREDICTED BY IDOCK:   -5.84 KCAL/MOL
REMARK 923 INTER-LIGAND FREE ENERGY PREDICTED BY IDOCK:   -5.10 KCAL/MOL
REMARK 924 INTRA-LIGAND FREE ENERGY PREDICTED BY IDOCK:   -0.74 KCAL/MOL
REMARK 927      BINDING AFFINITY PREDICTED BY RF-SCORE:    0.00 PKD
ROOT
HETATM    1  C   UNL     1     -11.795  12.810  67.610  1.00  0.00    -0.396 C  
HETATM    2  C   UNL     1     -11.237  13.829  68.619  1.00  0.00    -0.278 C  
HETATM    3  C   UNL     1     -12.075  13.728  69.911  1.00  0.00    -0.412 C  
HETATM    4  C   UNL     1     -11.373  15.256  68.068  1.00  0.00    -0.345 C  
HETATM    5  N   UNL     1      -9.840  13.519  68.994  1.00  0.00    -0.419 NA 
HETATM    6  H   UNL     1      -9.795  12.620  69.474  1.00  0.00     0.000 HD 
ENDROOT
BRANCH   5   7
HETATM    7  C   UNL     1      -8.874  13.547  67.885  1.00  0.00    -0.190 C  
BRANCH   7   8
HETATM    8  C   UNL     1      -7.715  12.537  68.015  1.00  0.00    -0.140 C  
HETATM    9  O   UNL     1      -6.717  12.873  67.038  1.00  0.00    -0.418 OA 
HETATM   10  H   UNL     1      -6.004  12.250  67.118  1.00  0.00     0.000 HD 
BRANCH   8  11
HETATM   11  C   UNL     1      -8.178  11.096  67.779  1.00  0.00    -0.119 C  
BRANCH  11  12
HETATM   12  O   UNL     1      -9.152  10.754  68.778  1.00  0.00    -0.165 OA 
BRANCH  12  13
HETATM   13  C   UNL     1      -8.871   9.593  69.457  1.00  0.00    -0.190 A  
HETATM   14  C   UNL     1      -8.026   9.553  70.574  1.00  0.00    -0.188 A  
HETATM   15  C   UNL     1      -7.725   8.342  71.191  1.00  0.00    -0.097 A  
HETATM   16  C   UNL     1      -8.302   7.167  70.719  1.00  0.00    -0.128 A  
HETATM   17  C   UNL     1      -9.197   7.208  69.643  1.00  0.00    -0.146 A  
HETATM   18  C   UNL     1      -9.487   8.420  68.990  1.00  0.00    -0.151 A  
HETATM   19  C   UNL     1     -10.467   8.472  67.841  1.00  0.00    -0.262 C  
HETATM   20  C   UNL     1     -10.672   7.113  67.181  1.00  0.00    -0.422 C  
HETATM   21  C   UNL     1     -10.981   6.050  68.219  1.00  0.00    -0.347 C  
HETATM   22  C   UNL     1      -9.855   5.945  69.219  1.00  0.00    -0.160 C  
HETATM   23  O   UNL     1      -9.532   4.872  69.718  1.00  0.00    -0.126 OA 
ENDBRANCH  12  13
ENDBRANCH  11  12
ENDBRANCH   8  11
ENDBRANCH   7   8
ENDBRANCH   5   7
TORSDOF 5
ENDMDL
MODEL      197
REMARK 921   NORMALIZED FREE ENERGY PREDICTED BY IDOCK:   -3.94 KCAL/MOL
REMARK 922        TOTAL FREE ENERGY PREDICTED BY IDOCK:   -5.82 KCAL/MOL
REMARK 923 INTER-LIGAND FREE ENERGY PREDICTED BY IDOCK:   -5.71 KCAL/MOL
REMARK 924 INTRA-LIGAND FREE ENERGY PREDICTED BY IDOCK:   -0.11 KCAL/MOL
REMARK 927      BINDING AFFINITY PREDICTED BY RF-SCORE:    0.00 PKD
ROOT
HETATM    1  C   UNL     1      -7.876  14.393  67.233  1.00  0.00    -0.188 C  
HETATM    2  C   UNL     1      -8.324  15.847  67.467  1.00  0.00    -0.163 C  
HETATM    3  C   UNL     1      -7.672  16.726  66.380  1.00  0.00    -0.345 C  
HETATM    4  C   UNL     1      -7.841  16.340  68.839  1.00  0.00    -0.224 C  
HETATM    5  N   UNL     1      -9.788  15.998  67.317  1.00  0.00    -0.233 NA 
HETATM    6  H   UNL     1     -10.067  15.787  66.359  1.00  0.00     0.000 HD 
ENDROOT
BRANCH   5   7
HETATM    7  C   UNL     1     -10.598  15.217  68.263  1.00  0.00    -0.244 C  
BRANCH   7   8
HETATM    8  C   UNL     1     -11.295  13.985  67.649  1.00  0.00    -0.312 C  
HETATM    9  O   UNL     1     -12.550  14.410  67.096  1.00  0.00    -0.540 OA 
HETATM   10  H   UNL     1     -12.979  13.651  66.719  1.00  0.00     0.000 HD 
BRANCH   8  11
HETATM   11  C   UNL     1     -11.554  12.891  68.690  1.00  0.00    -0.316 C  
BRANCH  11  12
HETATM   12  O   UNL     1     -12.152  11.762  68.035  1.00  0.00    -0.572 OA 
BRANCH  12  13
HETATM   13  C   UNL     1     -11.243  10.856  67.542  1.00  0.00    -0.293 A  
HETATM   14  C   UNL     1     -10.730  10.930  66.240  1.00  0.00    -0.241 A  
HETATM   15  C   UNL     1      -9.856   9.953  65.767  1.00  0.00    -0.356 A  
HETATM   16  C   UNL     1      -9.459   8.920  66.611  1.00  0.00    -0.261 A  
HETATM   17  C   UNL     1      -9.918   8.877  67.932  1.00  0.00    -0.223 A  
HETATM   18  C   UNL     1     -10.825   9.838  68.415  1.00  0.00    -0.244 A  
HETATM   19  C   UNL     1     -11.309   9.806  69.846  1.00  0.00    -0.238 C  
HETATM   20  C   UNL     1     -11.143   8.435  70.491  1.00  0.00    -0.267 C  
HETATM   21  C   UNL     1      -9.732   7.912  70.296  1.00  0.00    -0.183 C  
HETATM   22  C   UNL     1      -9.408   7.804  68.825  1.00  0.00    -0.146 C  
HETATM   23  O   UNL     1      -8.697   6.907  68.384  1.00  0.00    -0.125 OA 
ENDBRANCH  12  13
ENDBRANCH  11  12
ENDBRANCH   8  11
ENDBRANCH   7   8
ENDBRANCH   5   7
TORSDOF 5
ENDMDL
MODEL      198
REMARK 921   NORMALIZED FREE ENERGY PREDICTED BY IDOCK:   -3.94 KCAL/MOL
REMARK 922        TOTAL FREE ENERGY PREDICTED BY IDOCK:   -5.82 KCAL/MOL
REMARK 923 INTER-LIGAND FREE ENERGY PREDICTED BY IDOCK:   -5.23 KCAL/MOL
REMARK 924 INTRA-LIGAND FREE ENERGY PREDICTED BY IDOCK:   -0.59 KCAL/MOL
REMARK 927      BINDING AFFINITY PREDICTED BY RF-SCORE:    0.00 PKD
ROOT
HETATM    1  C   UNL     1      -8.564  19.534  66.418  1.00  0.00    -0.384 C  
HETATM    2  C   UNL     1      -8.510  19.499  67.956  1.00  0.00    -0.321 C  
HETATM    3  C   UNL     1      -9.835  20.083  68.491  1.00  0.00    -0.412 C  
HETATM    4  C   UNL     1      -7.357  20.373  68.470  1.00  0.00    -0.035 C  
HETATM    5  N   UNL     1      -8.418  18.115  68.469  1.00  0.00    -0.305 NA 
HETATM    6  H   UNL     1      -9.258  17.592  68.222  1.00  0.00     0.000 HD 
ENDROOT
BRANCH   5   7
HETATM    7  C   UNL     1      -7.218  17.373  68.052  1.00  0.00    -0.193 C  
BRANCH   7   8
HETATM    8  C   UNL     1      -7.026  16.013  68.756  1.00  0.00    -0.139 C  
HETATM    9  O   UNL     1      -5.706  15.535  68.453  1.00  0.00    -0.095 OA 
HETATM   10  H   UNL     1      -5.589  14.698  68.886  1.00  0.00     0.000 HD 
BRANCH   8  11
HETATM   11  C   UNL     1      -8.051  14.974  68.291  1.00  0.00    -0.133 C  
BRANCH  11  12
HETATM   12  O   UNL     1      -7.900  14.775  66.877  1.00  0.00    -0.128 OA 
BRANCH  12  13
HETATM   13  C   UNL     1      -9.085  14.797  66.180  1.00  0.00    -0.126 A  
HETATM   14  C   UNL     1      -9.727  15.988  65.815  1.00  0.00    -0.340 A  
HETATM   15  C   UNL     1     -10.957  15.958  65.162  1.00  0.00    -0.389 A  
HETATM   16  C   UNL     1     -11.531  14.733  64.833  1.00  0.00    -0.412 A  
HETATM   17  C   UNL     1     -10.864  13.541  65.139  1.00  0.00    -0.336 A  
HETATM   18  C   UNL     1      -9.636  13.555  65.826  1.00  0.00    -0.073 A  
HETATM   19  C   UNL     1      -8.903  12.272  66.141  1.00  0.00     0.062 C  
HETATM   20  C   UNL     1      -9.817  11.052  66.116  1.00  0.00    -0.268 C  
HETATM   21  C   UNL     1     -10.628  11.010  64.834  1.00  0.00    -0.328 C  
HETATM   22  C   UNL     1     -11.470  12.257  64.701  1.00  0.00    -0.336 C  
HETATM   23  O   UNL     1     -12.585  12.232  64.192  1.00  0.00    -0.536 OA 
ENDBRANCH  12  13
ENDBRANCH  11  12
ENDBRANCH   8  11
ENDBRANCH   7   8
ENDBRANCH   5   7
TORSDOF 5
ENDMDL
MODEL      199
REMARK 921   NORMALIZED FREE ENERGY PREDICTED BY IDOCK:   -3.93 KCAL/MOL
REMARK 922        TOTAL FREE ENERGY PREDICTED BY IDOCK:   -5.81 KCAL/MOL
REMARK 923 INTER-LIGAND FREE ENERGY PREDICTED BY IDOCK:   -5.19 KCAL/MOL
REMARK 924 INTRA-LIGAND FREE ENERGY PREDICTED BY IDOCK:   -0.62 KCAL/MOL
REMARK 927      BINDING AFFINITY PREDICTED BY RF-SCORE:    0.00 PKD
ROOT
HETATM    1  C   UNL     1      -9.958   9.029  68.266  1.00  0.00    -0.198 C  
HETATM    2  C   UNL     1      -9.395   9.859  67.099  1.00  0.00    -0.146 C  
HETATM    3  C   UNL     1      -8.934   8.880  65.998  1.00  0.00    -0.235 C  
HETATM    4  C   UNL     1      -8.176  10.672  67.560  1.00  0.00    -0.111 C  
HETATM    5  N   UNL     1     -10.431  10.723  66.493  1.00  0.00    -0.247 NA 
HETATM    6  H   UNL     1     -11.168  10.152  66.079  1.00  0.00     0.000 HD 
ENDROOT
BRANCH   5   7
HETATM    7  C   UNL     1     -11.014  11.727  67.396  1.00  0.00    -0.262 C  
BRANCH   7   8
HETATM    8  C   UNL     1     -11.217  13.120  66.765  1.00  0.00    -0.299 C  
HETATM    9  O   UNL     1     -12.419  13.085  65.979  1.00  0.00    -0.463 OA 
HETATM   10  H   UNL     1     -12.543  13.943  65.591  1.00  0.00     0.000 HD 
BRANCH   8  11
HETATM   11  C   UNL     1     -10.044  13.521  65.865  1.00  0.00    -0.303 C  
BRANCH  11  12
HETATM   12  O   UNL     1      -9.837  14.938  65.978  1.00  0.00    -0.282 OA 
BRANCH  12  13
HETATM   13  C   UNL     1      -8.837  15.287  66.853  1.00  0.00    -0.254 A  
HETATM   14  C   UNL     1      -7.882  14.372  67.318  1.00  0.00    -0.188 A  
HETATM   15  C   UNL     1      -6.924  14.761  68.251  1.00  0.00    -0.119 A  
HETATM   16  C   UNL     1      -6.890  16.081  68.691  1.00  0.00    -0.131 A  
HETATM   17  C   UNL     1      -7.799  17.014  68.182  1.00  0.00    -0.196 A  
HETATM   18  C   UNL     1      -8.793  16.630  67.263  1.00  0.00    -0.206 A  
HETATM   19  C   UNL     1      -9.765  17.638  66.696  1.00  0.00    -0.304 C  
HETATM   20  C   UNL     1      -9.884  18.888  67.560  1.00  0.00    -0.377 C  
HETATM   21  C   UNL     1      -8.514  19.454  67.884  1.00  0.00    -0.348 C  
HETATM   22  C   UNL     1      -7.680  18.430  68.616  1.00  0.00    -0.301 C  
HETATM   23  O   UNL     1      -6.882  18.752  69.491  1.00  0.00    -0.224 OA 
ENDBRANCH  12  13
ENDBRANCH  11  12
ENDBRANCH   8  11
ENDBRANCH   7   8
ENDBRANCH   5   7
TORSDOF 5
ENDMDL
MODEL      200
REMARK 921   NORMALIZED FREE ENERGY PREDICTED BY IDOCK:   -3.93 KCAL/MOL
REMARK 922        TOTAL FREE ENERGY PREDICTED BY IDOCK:   -5.81 KCAL/MOL
REMARK 923 INTER-LIGAND FREE ENERGY PREDICTED BY IDOCK:   -5.09 KCAL/MOL
REMARK 924 INTRA-LIGAND FREE ENERGY PREDICTED BY IDOCK:   -0.72 KCAL/MOL
REMARK 927      BINDING AFFINITY PREDICTED BY RF-SCORE:    0.00 PKD
ROOT
HETATM    1  C   UNL     1      -7.623   8.375  68.588  1.00  0.00    -0.102 C  
HETATM    2  C   UNL     1      -9.130   8.467  68.291  1.00  0.00    -0.138 C  
HETATM    3  C   UNL     1      -9.867   8.680  69.630  1.00  0.00    -0.186 C  
HETATM    4  C   UNL     1      -9.632   7.156  67.669  1.00  0.00    -0.152 C  
HETATM    5  N   UNL     1      -9.449   9.634  67.439  1.00  0.00    -0.140 NA 
HETATM    6  H   UNL     1      -9.224  10.499  67.929  1.00  0.00     0.000 HD 
ENDROOT
BRANCH   5   7
HETATM    7  C   UNL     1      -8.822   9.627  66.109  1.00  0.00    -0.150 C  
BRANCH   7   8
HETATM    8  C   UNL     1      -9.769   9.998  64.949  1.00  0.00    -0.307 C  
HETATM    9  O   UNL     1      -9.290   9.355  63.757  1.00  0.00    -0.408 OA 
HETATM   10  H   UNL     1      -9.873   9.584  63.043  1.00  0.00     0.000 HD 
BRANCH   8  11
HETATM   11  C   UNL     1      -9.825  11.510  64.712  1.00  0.00    -0.249 C  
BRANCH  11  12
HETATM   12  O   UNL     1     -10.543  12.122  65.794  1.00  0.00    -0.245 OA 
BRANCH  12  13
HETATM   13  C   UNL     1     -10.547  13.496  65.755  1.00  0.00    -0.283 A  
HETATM   14  C   UNL     1     -11.234  14.224  64.774  1.00  0.00    -0.387 A  
HETATM   15  C   UNL     1     -11.159  15.614  64.741  1.00  0.00    -0.426 A  
HETATM   16  C   UNL     1     -10.428  16.286  65.717  1.00  0.00    -0.379 A  
HETATM   17  C   UNL     1      -9.793  15.568  66.736  1.00  0.00    -0.252 A  
HETATM   18  C   UNL     1      -9.834  14.162  66.765  1.00  0.00    -0.275 A  
HETATM   19  C   UNL     1      -9.165  13.384  67.874  1.00  0.00    -0.216 C  
HETATM   20  C   UNL     1      -8.086  14.189  68.588  1.00  0.00    -0.126 C  
HETATM   21  C   UNL     1      -8.615  15.548  69.009  1.00  0.00    -0.234 C  
HETATM   22  C   UNL     1      -9.090  16.325  67.804  1.00  0.00    -0.195 C  
HETATM   23  O   UNL     1      -8.966  17.543  67.731  1.00  0.00    -0.239 OA 
ENDBRANCH  12  13
ENDBRANCH  11  12
ENDBRANCH   8  11
ENDBRANCH   7   8
ENDBRANCH   5   7
TORSDOF 5
ENDMDL
MODEL      201
REMARK 921   NORMALIZED FREE ENERGY PREDICTED BY IDOCK:   -3.92 KCAL/MOL
REMARK 922        TOTAL FREE ENERGY PREDICTED BY IDOCK:   -5.80 KCAL/MOL
REMARK 923 INTER-LIGAND FREE ENERGY PREDICTED BY IDOCK:   -5.31 KCAL/MOL
REMARK 924 INTRA-LIGAND FREE ENERGY PREDICTED BY IDOCK:   -0.49 KCAL/MOL
REMARK 927      BINDING AFFINITY PREDICTED BY RF-SCORE:    0.00 PKD
ROOT
HETATM    1  C   UNL     1     -11.465   7.363  72.683  1.00  0.00    -0.337 C  
HETATM    2  C   UNL     1     -12.346   7.490  71.427  1.00  0.00    -0.345 C  
HETATM    3  C   UNL     1     -13.695   6.802  71.721  1.00  0.00    -0.161 C  
HETATM    4  C   UNL     1     -11.689   6.771  70.239  1.00  0.00    -0.397 C  
HETATM    5  N   UNL     1     -12.647   8.903  71.111  1.00  0.00    -0.460 NA 
HETATM    6  H   UNL     1     -13.197   9.321  71.861  1.00  0.00     0.000 HD 
ENDROOT
BRANCH   5   7
HETATM    7  C   UNL     1     -11.476   9.741  70.813  1.00  0.00    -0.342 C  
BRANCH   7   8
HETATM    8  C   UNL     1     -11.805  11.210  70.475  1.00  0.00    -0.351 C  
HETATM    9  O   UNL     1     -12.895  11.628  71.312  1.00  0.00    -0.391 OA 
HETATM   10  H   UNL     1     -13.097  12.532  71.104  1.00  0.00     0.000 HD 
BRANCH   8  11
HETATM   11  C   UNL     1     -12.206  11.388  69.008  1.00  0.00    -0.134 C  
BRANCH  11  12
HETATM   12  O   UNL     1     -11.467  12.490  68.457  1.00  0.00    -0.257 OA 
BRANCH  12  13
HETATM   13  C   UNL     1     -10.251  12.136  67.924  1.00  0.00    -0.198 A  
HETATM   14  C   UNL     1     -10.032  10.906  67.288  1.00  0.00    -0.216 A  
HETATM   15  C   UNL     1      -8.766  10.569  66.817  1.00  0.00    -0.136 A  
HETATM   16  C   UNL     1      -7.720  11.480  66.942  1.00  0.00    -0.157 A  
HETATM   17  C   UNL     1      -7.948  12.735  67.518  1.00  0.00    -0.177 A  
HETATM   18  C   UNL     1      -9.214  13.078  68.027  1.00  0.00    -0.212 A  
HETATM   19  C   UNL     1      -9.470  14.438  68.633  1.00  0.00    -0.193 C  
HETATM   20  C   UNL     1      -8.189  15.132  69.081  1.00  0.00    -0.214 C  
HETATM   21  C   UNL     1      -7.154  15.126  67.971  1.00  0.00    -0.139 C  
HETATM   22  C   UNL     1      -6.828  13.709  67.561  1.00  0.00    -0.137 C  
HETATM   23  O   UNL     1      -5.698  13.382  67.211  1.00  0.00    -0.353 OA 
ENDBRANCH  12  13
ENDBRANCH  11  12
ENDBRANCH   8  11
ENDBRANCH   7   8
ENDBRANCH   5   7
TORSDOF 5
ENDMDL
MODEL      202
REMARK 921   NORMALIZED FREE ENERGY PREDICTED BY IDOCK:   -3.91 KCAL/MOL
REMARK 922        TOTAL FREE ENERGY PREDICTED BY IDOCK:   -5.78 KCAL/MOL
REMARK 923 INTER-LIGAND FREE ENERGY PREDICTED BY IDOCK:   -5.09 KCAL/MOL
REMARK 924 INTRA-LIGAND FREE ENERGY PREDICTED BY IDOCK:   -0.69 KCAL/MOL
REMARK 927      BINDING AFFINITY PREDICTED BY RF-SCORE:    0.00 PKD
ROOT
HETATM    1  C   UNL     1      -7.201   8.675  71.513  1.00  0.00    -0.112 C  
HETATM    2  C   UNL     1      -8.665   8.200  71.494  1.00  0.00    -0.146 C  
HETATM    3  C   UNL     1      -9.224   8.320  72.927  1.00  0.00    -0.329 C  
HETATM    4  C   UNL     1      -8.742   6.726  71.069  1.00  0.00    -0.137 C  
HETATM    5  N   UNL     1      -9.508   9.060  70.635  1.00  0.00    -0.215 NA 
HETATM    6  H   UNL     1      -9.543  10.007  71.012  1.00  0.00     0.000 HD 
ENDROOT
BRANCH   5   7
HETATM    7  C   UNL     1      -9.124   9.094  69.216  1.00  0.00    -0.146 C  
BRANCH   7   8
HETATM    8  C   UNL     1     -10.212   8.595  68.242  1.00  0.00    -0.198 C  
HETATM    9  O   UNL     1      -9.578   7.781  67.243  1.00  0.00    -0.146 OA 
HETATM   10  H   UNL     1     -10.248   7.474  66.643  1.00  0.00     0.000 HD 
BRANCH   8  11
HETATM   11  C   UNL     1     -10.943   9.751  67.554  1.00  0.00    -0.138 C  
BRANCH  11  12
HETATM   12  O   UNL     1     -10.981  10.873  68.449  1.00  0.00    -0.200 OA 
BRANCH  12  13
HETATM   13  C   UNL     1     -10.742  12.082  67.839  1.00  0.00    -0.210 A  
HETATM   14  C   UNL     1     -10.094  12.191  66.601  1.00  0.00    -0.218 A  
HETATM   15  C   UNL     1      -9.822  13.442  66.053  1.00  0.00    -0.273 A  
HETATM   16  C   UNL     1     -10.235  14.590  66.721  1.00  0.00    -0.266 A  
HETATM   17  C   UNL     1     -10.939  14.486  67.927  1.00  0.00    -0.277 A  
HETATM   18  C   UNL     1     -11.194  13.231  68.509  1.00  0.00    -0.304 A  
HETATM   19  C   UNL     1     -11.970  13.112  69.800  1.00  0.00    -0.382 C  
HETATM   20  C   UNL     1     -11.974  14.407  70.604  1.00  0.00    -0.393 C  
HETATM   21  C   UNL     1     -12.382  15.582  69.735  1.00  0.00    -0.261 C  
HETATM   22  C   UNL     1     -11.433  15.731  68.569  1.00  0.00    -0.379 C  
HETATM   23  O   UNL     1     -11.128  16.832  68.120  1.00  0.00    -0.363 OA 
ENDBRANCH  12  13
ENDBRANCH  11  12
ENDBRANCH   8  11
ENDBRANCH   7   8
ENDBRANCH   5   7
TORSDOF 5
ENDMDL
MODEL      203
REMARK 921   NORMALIZED FREE ENERGY PREDICTED BY IDOCK:   -3.90 KCAL/MOL
REMARK 922        TOTAL FREE ENERGY PREDICTED BY IDOCK:   -5.77 KCAL/MOL
REMARK 923 INTER-LIGAND FREE ENERGY PREDICTED BY IDOCK:   -5.56 KCAL/MOL
REMARK 924 INTRA-LIGAND FREE ENERGY PREDICTED BY IDOCK:   -0.21 KCAL/MOL
REMARK 927      BINDING AFFINITY PREDICTED BY RF-SCORE:    0.00 PKD
ROOT
HETATM    1  C   UNL     1      -6.645  10.040  63.146  1.00  0.00    -0.132 C  
HETATM    2  C   UNL     1      -7.470   8.822  63.596  1.00  0.00    -0.108 C  
HETATM    3  C   UNL     1      -6.491   7.753  64.125  1.00  0.00    -0.057 C  
HETATM    4  C   UNL     1      -8.236   8.226  62.405  1.00  0.00    -0.171 C  
HETATM    5  N   UNL     1      -8.377   9.159  64.715  1.00  0.00    -0.159 NA 
HETATM    6  H   UNL     1      -7.837   9.430  65.536  1.00  0.00     0.000 HD 
ENDROOT
BRANCH   5   7
HETATM    7  C   UNL     1      -9.387  10.185  64.413  1.00  0.00    -0.293 C  
BRANCH   7   8
HETATM    8  C   UNL     1      -9.834  11.025  65.628  1.00  0.00    -0.239 C  
HETATM    9  O   UNL     1      -8.718  11.819  66.058  1.00  0.00    -0.359 OA 
HETATM   10  H   UNL     1      -8.993  12.336  66.806  1.00  0.00     0.000 HD 
BRANCH   8  11
HETATM   11  C   UNL     1     -10.301  10.148  66.794  1.00  0.00    -0.222 C  
BRANCH  11  12
HETATM   12  O   UNL     1      -9.745  10.666  68.013  1.00  0.00    -0.153 OA 
BRANCH  12  13
HETATM   13  C   UNL     1     -10.683  10.945  68.979  1.00  0.00    -0.224 A  
HETATM   14  C   UNL     1     -11.246  12.219  69.142  1.00  0.00    -0.300 A  
HETATM   15  C   UNL     1     -12.147  12.467  70.174  1.00  0.00    -0.366 A  
HETATM   16  C   UNL     1     -12.523  11.430  71.023  1.00  0.00    -0.486 A  
HETATM   17  C   UNL     1     -12.013  10.141  70.826  1.00  0.00    -0.442 A  
HETATM   18  C   UNL     1     -11.077   9.882  69.807  1.00  0.00    -0.294 A  
HETATM   19  C   UNL     1     -10.538   8.489  69.578  1.00  0.00    -0.215 C  
HETATM   20  C   UNL     1     -10.693   7.591  70.800  1.00  0.00    -0.238 C  
HETATM   21  C   UNL     1     -12.116   7.633  71.325  1.00  0.00    -0.337 C  
HETATM   22  C   UNL     1     -12.499   9.044  71.702  1.00  0.00    -0.351 C  
HETATM   23  O   UNL     1     -13.236   9.282  72.653  1.00  0.00    -0.414 OA 
ENDBRANCH  12  13
ENDBRANCH  11  12
ENDBRANCH   8  11
ENDBRANCH   7   8
ENDBRANCH   5   7
TORSDOF 5
ENDMDL
MODEL      204
REMARK 921   NORMALIZED FREE ENERGY PREDICTED BY IDOCK:   -3.90 KCAL/MOL
REMARK 922        TOTAL FREE ENERGY PREDICTED BY IDOCK:   -5.77 KCAL/MOL
REMARK 923 INTER-LIGAND FREE ENERGY PREDICTED BY IDOCK:   -5.27 KCAL/MOL
REMARK 924 INTRA-LIGAND FREE ENERGY PREDICTED BY IDOCK:   -0.50 KCAL/MOL
REMARK 927      BINDING AFFINITY PREDICTED BY RF-SCORE:    0.00 PKD
ROOT
HETATM    1  C   UNL     1     -12.075  13.764  67.780  1.00  0.00    -0.325 C  
HETATM    2  C   UNL     1     -10.998  13.679  68.875  1.00  0.00    -0.249 C  
HETATM    3  C   UNL     1     -10.639  15.117  69.303  1.00  0.00    -0.253 C  
HETATM    4  C   UNL     1      -9.729  13.010  68.325  1.00  0.00    -0.221 C  
HETATM    5  N   UNL     1     -11.499  12.988  70.083  1.00  0.00    -0.519 NA 
HETATM    6  H   UNL     1     -12.260  13.522  70.503  1.00  0.00     0.000 HD 
ENDROOT
BRANCH   5   7
HETATM    7  C   UNL     1     -11.913  11.592  69.878  1.00  0.00    -0.351 C  
BRANCH   7   8
HETATM    8  C   UNL     1     -13.036  11.109  70.821  1.00  0.00    -0.137 C  
HETATM    9  O   UNL     1     -13.197  12.085  71.861  1.00  0.00    -0.480 OA 
HETATM   10  H   UNL     1     -13.888  11.787  72.441  1.00  0.00     0.000 HD 
BRANCH   8  11
HETATM   11  C   UNL     1     -12.711   9.753  71.455  1.00  0.00    -0.387 C  
BRANCH  11  12
HETATM   12  O   UNL     1     -11.494   9.252  70.880  1.00  0.00    -0.269 OA 
BRANCH  12  13
HETATM   13  C   UNL     1     -11.075   8.057  71.414  1.00  0.00    -0.241 A  
HETATM   14  C   UNL     1     -11.965   7.091  71.901  1.00  0.00    -0.355 A  
HETATM   15  C   UNL     1     -11.489   5.921  72.488  1.00  0.00    -0.347 A  
HETATM   16  C   UNL     1     -10.117   5.694  72.553  1.00  0.00    -0.208 A  
HETATM   17  C   UNL     1      -9.225   6.626  72.012  1.00  0.00    -0.142 A  
HETATM   18  C   UNL     1      -9.689   7.826  71.444  1.00  0.00    -0.194 A  
HETATM   19  C   UNL     1      -8.731   8.827  70.840  1.00  0.00    -0.235 C  
HETATM   20  C   UNL     1      -7.306   8.659  71.354  1.00  0.00    -0.116 C  
HETATM   21  C   UNL     1      -6.857   7.214  71.238  1.00  0.00    -0.059 C  
HETATM   22  C   UNL     1      -7.773   6.311  72.029  1.00  0.00    -0.096 C  
HETATM   23  O   UNL     1      -7.355   5.315  72.610  1.00  0.00    -0.090 OA 
ENDBRANCH  12  13
ENDBRANCH  11  12
ENDBRANCH   8  11
ENDBRANCH   7   8
ENDBRANCH   5   7
TORSDOF 5
ENDMDL
MODEL      205
REMARK 921   NORMALIZED FREE ENERGY PREDICTED BY IDOCK:   -3.89 KCAL/MOL
REMARK 922        TOTAL FREE ENERGY PREDICTED BY IDOCK:   -5.76 KCAL/MOL
REMARK 923 INTER-LIGAND FREE ENERGY PREDICTED BY IDOCK:   -5.22 KCAL/MOL
REMARK 924 INTRA-LIGAND FREE ENERGY PREDICTED BY IDOCK:   -0.55 KCAL/MOL
REMARK 927      BINDING AFFINITY PREDICTED BY RF-SCORE:    0.00 PKD
ROOT
HETATM    1  C   UNL     1      -7.821  17.003  68.583  1.00  0.00    -0.257 C  
HETATM    2  C   UNL     1      -7.478  16.623  67.132  1.00  0.00    -0.183 C  
HETATM    3  C   UNL     1      -5.989  16.951  66.894  1.00  0.00    -0.215 C  
HETATM    4  C   UNL     1      -8.317  17.453  66.150  1.00  0.00    -0.217 C  
HETATM    5  N   UNL     1      -7.637  15.171  66.894  1.00  0.00    -0.265 NA 
HETATM    6  H   UNL     1      -6.976  14.647  67.467  1.00  0.00     0.000 HD 
ENDROOT
BRANCH   5   7
HETATM    7  C   UNL     1      -8.999  14.652  67.088  1.00  0.00    -0.225 C  
BRANCH   7   8
HETATM    8  C   UNL     1      -9.570  13.879  65.881  1.00  0.00    -0.145 C  
HETATM    9  O   UNL     1     -10.404  14.775  65.129  1.00  0.00    -0.384 OA 
HETATM   10  H   UNL     1     -10.755  14.299  64.386  1.00  0.00     0.000 HD 
BRANCH   8  11
HETATM   11  C   UNL     1     -10.403  12.669  66.313  1.00  0.00    -0.252 C  
BRANCH  11  12
HETATM   12  O   UNL     1      -9.658  11.919  67.286  1.00  0.00    -0.176 OA 
BRANCH  12  13
HETATM   13  C   UNL     1     -10.420  11.442  68.326  1.00  0.00    -0.198 A  
HETATM   14  C   UNL     1     -11.765  11.795  68.504  1.00  0.00    -0.390 A  
HETATM   15  C   UNL     1     -12.478  11.333  69.607  1.00  0.00    -0.160 A  
HETATM   16  C   UNL     1     -11.860  10.480  70.517  1.00  0.00    -0.442 A  
HETATM   17  C   UNL     1     -10.537  10.074  70.311  1.00  0.00    -0.354 A  
HETATM   18  C   UNL     1      -9.794  10.556  69.218  1.00  0.00    -0.225 A  
HETATM   19  C   UNL     1      -8.371  10.106  68.981  1.00  0.00    -0.138 C  
HETATM   20  C   UNL     1      -7.715   9.546  70.238  1.00  0.00    -0.170 C  
HETATM   21  C   UNL     1      -8.602   8.502  70.891  1.00  0.00    -0.184 C  
HETATM   22  C   UNL     1      -9.938   9.100  71.261  1.00  0.00    -0.303 C  
HETATM   23  O   UNL     1     -10.545   8.754  72.269  1.00  0.00    -0.337 OA 
ENDBRANCH  12  13
ENDBRANCH  11  12
ENDBRANCH   8  11
ENDBRANCH   7   8
ENDBRANCH   5   7
TORSDOF 5
ENDMDL
MODEL      206
REMARK 921   NORMALIZED FREE ENERGY PREDICTED BY IDOCK:   -3.87 KCAL/MOL
REMARK 922        TOTAL FREE ENERGY PREDICTED BY IDOCK:   -5.74 KCAL/MOL
REMARK 923 INTER-LIGAND FREE ENERGY PREDICTED BY IDOCK:   -5.30 KCAL/MOL
REMARK 924 INTRA-LIGAND FREE ENERGY PREDICTED BY IDOCK:   -0.44 KCAL/MOL
REMARK 927      BINDING AFFINITY PREDICTED BY RF-SCORE:    0.00 PKD
ROOT
HETATM    1  C   UNL     1     -10.024   9.747  65.817  1.00  0.00    -0.349 C  
HETATM    2  C   UNL     1      -9.288  10.845  65.029  1.00  0.00    -0.226 C  
HETATM    3  C   UNL     1     -10.245  11.369  63.938  1.00  0.00    -0.415 C  
HETATM    4  C   UNL     1      -8.044  10.265  64.340  1.00  0.00    -0.149 C  
HETATM    5  N   UNL     1      -8.949  12.000  65.889  1.00  0.00    -0.414 NA 
HETATM    6  H   UNL     1      -9.800  12.446  66.231  1.00  0.00     0.000 HD 
ENDROOT
BRANCH   5   7
HETATM    7  C   UNL     1      -8.048  11.700  67.011  1.00  0.00    -0.164 C  
BRANCH   7   8
HETATM    8  C   UNL     1      -7.918  12.832  68.053  1.00  0.00    -0.160 C  
HETATM    9  O   UNL     1      -7.610  12.238  69.323  1.00  0.00    -0.327 OA 
HETATM   10  H   UNL     1      -7.531  12.935  69.964  1.00  0.00     0.000 HD 
BRANCH   8  11
HETATM   11  C   UNL     1      -9.210  13.645  68.183  1.00  0.00    -0.204 C  
BRANCH  11  12
HETATM   12  O   UNL     1      -8.930  14.842  68.925  1.00  0.00    -0.182 OA 
BRANCH  12  13
HETATM   13  C   UNL     1      -9.241  16.000  68.254  1.00  0.00    -0.191 A  
HETATM   14  C   UNL     1     -10.343  16.105  67.394  1.00  0.00    -0.294 A  
HETATM   15  C   UNL     1     -10.582  17.283  66.690  1.00  0.00    -0.179 A  
HETATM   16  C   UNL     1      -9.742  18.377  66.875  1.00  0.00    -0.324 A  
HETATM   17  C   UNL     1      -8.678  18.300  67.780  1.00  0.00    -0.263 A  
HETATM   18  C   UNL     1      -8.405  17.107  68.475  1.00  0.00    -0.262 A  
HETATM   19  C   UNL     1      -7.269  17.024  69.468  1.00  0.00     0.070 C  
HETATM   20  C   UNL     1      -6.218  18.107  69.249  1.00  0.00    -0.253 C  
HETATM   21  C   UNL     1      -6.865  19.476  69.152  1.00  0.00    -0.381 C  
HETATM   22  C   UNL     1      -7.852  19.513  68.010  1.00  0.00    -0.305 C  
HETATM   23  O   UNL     1      -8.022  20.524  67.335  1.00  0.00    -0.328 OA 
ENDBRANCH  12  13
ENDBRANCH  11  12
ENDBRANCH   8  11
ENDBRANCH   7   8
ENDBRANCH   5   7
TORSDOF 5
ENDMDL
MODEL      207
REMARK 921   NORMALIZED FREE ENERGY PREDICTED BY IDOCK:   -3.86 KCAL/MOL
REMARK 922        TOTAL FREE ENERGY PREDICTED BY IDOCK:   -5.72 KCAL/MOL
REMARK 923 INTER-LIGAND FREE ENERGY PREDICTED BY IDOCK:   -4.76 KCAL/MOL
REMARK 924 INTRA-LIGAND FREE ENERGY PREDICTED BY IDOCK:   -0.96 KCAL/MOL
REMARK 927      BINDING AFFINITY PREDICTED BY RF-SCORE:    0.00 PKD
ROOT
HETATM    1  C   UNL     1      -7.608   2.065  68.828  1.00  0.00    -0.043 C  
HETATM    2  C   UNL     1      -8.500   3.310  68.677  1.00  0.00    -0.079 C  
HETATM    3  C   UNL     1      -9.290   3.172  67.359  1.00  0.00    -0.232 C  
HETATM    4  C   UNL     1      -7.637   4.577  68.591  1.00  0.00    -0.064 C  
HETATM    5  N   UNL     1      -9.498   3.402  69.765  1.00  0.00    -0.174 NA 
HETATM    6  H   UNL     1     -10.140   2.611  69.721  1.00  0.00     0.000 HD 
ENDROOT
BRANCH   5   7
HETATM    7  C   UNL     1      -8.938   3.525  71.119  1.00  0.00    -0.097 C  
BRANCH   7   8
HETATM    8  C   UNL     1      -8.997   4.947  71.713  1.00  0.00    -0.135 C  
HETATM    9  O   UNL     1      -8.046   5.023  72.787  1.00  0.00    -0.103 OA 
HETATM   10  H   UNL     1      -8.083   5.899  73.153  1.00  0.00     0.000 HD 
BRANCH   8  11
HETATM   11  C   UNL     1     -10.388   5.289  72.254  1.00  0.00    -0.212 C  
BRANCH  11  12
HETATM   12  O   UNL     1     -11.210   5.741  71.165  1.00  0.00    -0.241 OA 
BRANCH  12  13
HETATM   13  C   UNL     1     -11.084   7.082  70.891  1.00  0.00    -0.267 A  
HETATM   14  C   UNL     1     -11.164   8.069  71.884  1.00  0.00    -0.335 A  
HETATM   15  C   UNL     1     -11.090   9.418  71.547  1.00  0.00    -0.446 A  
HETATM   16  C   UNL     1     -10.895   9.786  70.219  1.00  0.00    -0.356 A  
HETATM   17  C   UNL     1     -10.751   8.804  69.233  1.00  0.00    -0.166 A  
HETATM   18  C   UNL     1     -10.854   7.437  69.552  1.00  0.00    -0.201 A  
HETATM   19  C   UNL     1     -10.681   6.372  68.494  1.00  0.00    -0.347 C  
HETATM   20  C   UNL     1     -10.901   6.905  67.083  1.00  0.00    -0.447 C  
HETATM   21  C   UNL     1     -10.084   8.162  66.846  1.00  0.00    -0.367 C  
HETATM   22  C   UNL     1     -10.464   9.234  67.840  1.00  0.00    -0.236 C  
HETATM   23  O   UNL     1     -10.472  10.423  67.537  1.00  0.00    -0.212 OA 
ENDBRANCH  12  13
ENDBRANCH  11  12
ENDBRANCH   8  11
ENDBRANCH   7   8
ENDBRANCH   5   7
TORSDOF 5
ENDMDL
MODEL      208
REMARK 921   NORMALIZED FREE ENERGY PREDICTED BY IDOCK:   -3.85 KCAL/MOL
REMARK 922        TOTAL FREE ENERGY PREDICTED BY IDOCK:   -5.70 KCAL/MOL
REMARK 923 INTER-LIGAND FREE ENERGY PREDICTED BY IDOCK:   -5.39 KCAL/MOL
REMARK 924 INTRA-LIGAND FREE ENERGY PREDICTED BY IDOCK:   -0.31 KCAL/MOL
REMARK 927      BINDING AFFINITY PREDICTED BY RF-SCORE:    0.00 PKD
ROOT
HETATM    1  C   UNL     1     -10.238  11.765  64.312  1.00  0.00    -0.344 C  
HETATM    2  C   UNL     1     -11.333  12.655  64.925  1.00  0.00    -0.311 C  
HETATM    3  C   UNL     1     -12.542  12.651  63.966  1.00  0.00    -0.429 C  
HETATM    4  C   UNL     1     -10.832  14.100  65.063  1.00  0.00    -0.408 C  
HETATM    5  N   UNL     1     -11.814  12.118  66.217  1.00  0.00    -0.594 NA 
HETATM    6  H   UNL     1     -12.258  11.211  66.078  1.00  0.00     0.000 HD 
ENDROOT
BRANCH   5   7
HETATM    7  C   UNL     1     -10.794  12.025  67.273  1.00  0.00    -0.246 C  
BRANCH   7   8
HETATM    8  C   UNL     1     -10.565  10.601  67.823  1.00  0.00    -0.236 C  
HETATM    9  O   UNL     1     -11.847  10.020  68.107  1.00  0.00    -0.565 OA 
HETATM   10  H   UNL     1     -11.706   9.143  68.446  1.00  0.00     0.000 HD 
BRANCH   8  11
HETATM   11  C   UNL     1      -9.725  10.606  69.103  1.00  0.00    -0.189 C  
BRANCH  11  12
HETATM   12  O   UNL     1      -9.337   9.257  69.408  1.00  0.00    -0.153 OA 
BRANCH  12  13
HETATM   13  C   UNL     1      -9.759   8.820  70.640  1.00  0.00    -0.197 A  
HETATM   14  C   UNL     1     -11.006   9.164  71.181  1.00  0.00    -0.390 A  
HETATM   15  C   UNL     1     -11.362   8.745  72.460  1.00  0.00    -0.152 A  
HETATM   16  C   UNL     1     -10.489   7.943  73.190  1.00  0.00    -0.348 A  
HETATM   17  C   UNL     1      -9.270   7.544  72.630  1.00  0.00    -0.201 A  
HETATM   18  C   UNL     1      -8.882   7.984  71.352  1.00  0.00    -0.170 A  
HETATM   19  C   UNL     1      -7.576   7.541  70.736  1.00  0.00    -0.081 C  
HETATM   20  C   UNL     1      -6.574   7.048  71.774  1.00  0.00    -0.049 C  
HETATM   21  C   UNL     1      -7.211   6.024  72.697  1.00  0.00    -0.086 C  
HETATM   22  C   UNL     1      -8.401   6.623  73.408  1.00  0.00    -0.118 C  
HETATM   23  O   UNL     1      -8.686   6.316  74.561  1.00  0.00    -0.129 OA 
ENDBRANCH  12  13
ENDBRANCH  11  12
ENDBRANCH   8  11
ENDBRANCH   7   8
ENDBRANCH   5   7
TORSDOF 5
ENDMDL
MODEL      209
REMARK 921   NORMALIZED FREE ENERGY PREDICTED BY IDOCK:   -3.83 KCAL/MOL
REMARK 922        TOTAL FREE ENERGY PREDICTED BY IDOCK:   -5.69 KCAL/MOL
REMARK 923 INTER-LIGAND FREE ENERGY PREDICTED BY IDOCK:   -5.10 KCAL/MOL
REMARK 924 INTRA-LIGAND FREE ENERGY PREDICTED BY IDOCK:   -0.59 KCAL/MOL
REMARK 927      BINDING AFFINITY PREDICTED BY RF-SCORE:    0.00 PKD
ROOT
HETATM    1  C   UNL     1     -10.694  17.253  67.671  1.00  0.00    -0.307 C  
HETATM    2  C   UNL     1     -10.021  17.746  66.378  1.00  0.00    -0.344 C  
HETATM    3  C   UNL     1      -8.534  18.018  66.690  1.00  0.00    -0.283 C  
HETATM    4  C   UNL     1     -10.663  19.061  65.911  1.00  0.00    -0.404 C  
HETATM    5  N   UNL     1     -10.052  16.716  65.318  1.00  0.00    -0.555 NA 
HETATM    6  H   UNL     1      -9.509  15.901  65.603  1.00  0.00     0.000 HD 
ENDROOT
BRANCH   5   7
HETATM    7  C   UNL     1     -11.396  16.303  64.887  1.00  0.00    -0.159 C  
BRANCH   7   8
HETATM    8  C   UNL     1     -11.628  14.777  64.876  1.00  0.00    -0.401 C  
HETATM    9  O   UNL     1     -12.577  14.462  65.907  1.00  0.00    -0.383 OA 
HETATM   10  H   UNL     1     -12.719  13.523  65.901  1.00  0.00     0.000 HD 
BRANCH   8  11
HETATM   11  C   UNL     1     -10.336  13.996  65.132  1.00  0.00    -0.400 C  
BRANCH  11  12
HETATM   12  O   UNL     1     -10.458  13.296  66.380  1.00  0.00    -0.276 OA 
BRANCH  12  13
HETATM   13  C   UNL     1      -9.606  12.224  66.504  1.00  0.00    -0.238 A  
HETATM   14  C   UNL     1      -9.915  10.950  66.008  1.00  0.00    -0.290 A  
HETATM   15  C   UNL     1      -9.045   9.882  66.211  1.00  0.00    -0.187 A  
HETATM   16  C   UNL     1      -7.840  10.092  66.875  1.00  0.00    -0.107 A  
HETATM   17  C   UNL     1      -7.498  11.375  67.317  1.00  0.00    -0.134 A  
HETATM   18  C   UNL     1      -8.380  12.458  67.147  1.00  0.00    -0.181 A  
HETATM   19  C   UNL     1      -8.007  13.849  67.605  1.00  0.00    -0.181 C  
HETATM   20  C   UNL     1      -6.904  13.844  68.658  1.00  0.00    -0.101 C  
HETATM   21  C   UNL     1      -5.728  12.997  68.206  1.00  0.00    -0.080 C  
HETATM   22  C   UNL     1      -6.169  11.576  67.951  1.00  0.00    -0.052 C  
HETATM   23  O   UNL     1      -5.439  10.620  68.192  1.00  0.00    -0.037 OA 
ENDBRANCH  12  13
ENDBRANCH  11  12
ENDBRANCH   8  11
ENDBRANCH   7   8
ENDBRANCH   5   7
TORSDOF 5
ENDMDL
MODEL      210
REMARK 921   NORMALIZED FREE ENERGY PREDICTED BY IDOCK:   -3.83 KCAL/MOL
REMARK 922        TOTAL FREE ENERGY PREDICTED BY IDOCK:   -5.68 KCAL/MOL
REMARK 923 INTER-LIGAND FREE ENERGY PREDICTED BY IDOCK:   -5.00 KCAL/MOL
REMARK 924 INTRA-LIGAND FREE ENERGY PREDICTED BY IDOCK:   -0.67 KCAL/MOL
REMARK 927      BINDING AFFINITY PREDICTED BY RF-SCORE:    0.00 PKD
ROOT
HETATM    1  C   UNL     1     -11.071  16.014  64.954  1.00  0.00    -0.381 C  
HETATM    2  C   UNL     1     -10.496  15.856  66.373  1.00  0.00    -0.308 C  
HETATM    3  C   UNL     1     -10.484  17.249  67.038  1.00  0.00    -0.287 C  
HETATM    4  C   UNL     1      -9.050  15.342  66.309  1.00  0.00    -0.337 C  
HETATM    5  N   UNL     1     -11.348  14.989  67.215  1.00  0.00    -0.344 NA 
HETATM    6  H   UNL     1     -12.264  15.418  67.347  1.00  0.00     0.000 HD 
ENDROOT
BRANCH   5   7
HETATM    7  C   UNL     1     -11.501  13.607  66.735  1.00  0.00    -0.346 C  
BRANCH   7   8
HETATM    8  C   UNL     1     -11.740  12.563  67.846  1.00  0.00    -0.359 C  
HETATM    9  O   UNL     1     -11.720  13.243  69.111  1.00  0.00    -0.289 OA 
HETATM   10  H   UNL     1     -11.868  12.600  69.794  1.00  0.00     0.000 HD 
BRANCH   8  11
HETATM   11  C   UNL     1     -10.668  11.470  67.850  1.00  0.00    -0.200 C  
BRANCH  11  12
HETATM   12  O   UNL     1      -9.580  11.886  67.010  1.00  0.00    -0.185 OA 
BRANCH  12  13
HETATM   13  C   UNL     1      -8.776  10.855  66.588  1.00  0.00    -0.155 A  
HETATM   14  C   UNL     1      -7.969  10.115  67.464  1.00  0.00    -0.106 A  
HETATM   15  C   UNL     1      -7.126   9.118  66.978  1.00  0.00    -0.086 A  
HETATM   16  C   UNL     1      -7.117   8.828  65.617  1.00  0.00    -0.083 A  
HETATM   17  C   UNL     1      -7.967   9.519  64.746  1.00  0.00    -0.123 A  
HETATM   18  C   UNL     1      -8.801  10.550  65.217  1.00  0.00    -0.205 A  
HETATM   19  C   UNL     1      -9.734  11.287  64.284  1.00  0.00    -0.295 C  
HETATM   20  C   UNL     1      -9.317  11.170  62.823  1.00  0.00    -0.377 C  
HETATM   21  C   UNL     1      -9.070   9.721  62.445  1.00  0.00    -0.300 C  
HETATM   22  C   UNL     1      -7.987   9.126  63.314  1.00  0.00    -0.147 C  
HETATM   23  O   UNL     1      -7.192   8.299  62.880  1.00  0.00    -0.092 OA 
ENDBRANCH  12  13
ENDBRANCH  11  12
ENDBRANCH   8  11
ENDBRANCH   7   8
ENDBRANCH   5   7
TORSDOF 5
ENDMDL
MODEL      211
REMARK 921   NORMALIZED FREE ENERGY PREDICTED BY IDOCK:   -3.82 KCAL/MOL
REMARK 922        TOTAL FREE ENERGY PREDICTED BY IDOCK:   -5.67 KCAL/MOL
REMARK 923 INTER-LIGAND FREE ENERGY PREDICTED BY IDOCK:   -4.95 KCAL/MOL
REMARK 924 INTRA-LIGAND FREE ENERGY PREDICTED BY IDOCK:   -0.72 KCAL/MOL
REMARK 927      BINDING AFFINITY PREDICTED BY RF-SCORE:    0.00 PKD
ROOT
HETATM    1  C   UNL     1     -10.301  17.721  67.787  1.00  0.00    -0.382 C  
HETATM    2  C   UNL     1      -9.483  19.017  67.931  1.00  0.00    -0.310 C  
HETATM    3  C   UNL     1     -10.208  19.926  68.946  1.00  0.00    -0.399 C  
HETATM    4  C   UNL     1      -9.413  19.756  66.587  1.00  0.00    -0.491 C  
HETATM    5  N   UNL     1      -8.136  18.755  68.481  1.00  0.00    -0.337 NA 
HETATM    6  H   UNL     1      -8.208  18.382  69.427  1.00  0.00     0.000 HD 
ENDROOT
BRANCH   5   7
HETATM    7  C   UNL     1      -7.284  17.883  67.658  1.00  0.00    -0.201 C  
BRANCH   7   8
HETATM    8  C   UNL     1      -6.539  16.783  68.444  1.00  0.00    -0.149 C  
HETATM    9  O   UNL     1      -5.659  16.103  67.536  1.00  0.00    -0.136 OA 
HETATM   10  H   UNL     1      -5.200  15.426  68.020  1.00  0.00     0.000 HD 
BRANCH   8  11
HETATM   11  C   UNL     1      -7.501  15.765  69.062  1.00  0.00    -0.186 C  
BRANCH  11  12
HETATM   12  O   UNL     1      -8.089  14.985  68.010  1.00  0.00    -0.121 OA 
BRANCH  12  13
HETATM   13  C   UNL     1      -8.132  13.637  68.271  1.00  0.00    -0.155 A  
HETATM   14  C   UNL     1      -6.991  12.892  68.600  1.00  0.00    -0.101 A  
HETATM   15  C   UNL     1      -7.077  11.516  68.798  1.00  0.00    -0.108 A  
HETATM   16  C   UNL     1      -8.314  10.884  68.709  1.00  0.00    -0.151 A  
HETATM   17  C   UNL     1      -9.467  11.633  68.445  1.00  0.00    -0.193 A  
HETATM   18  C   UNL     1      -9.392  13.018  68.211  1.00  0.00    -0.199 A  
HETATM   19  C   UNL     1     -10.636  13.834  67.944  1.00  0.00    -0.257 C  
HETATM   20  C   UNL     1     -11.804  12.981  67.463  1.00  0.00    -0.408 C  
HETATM   21  C   UNL     1     -12.021  11.793  68.382  1.00  0.00    -0.250 C  
HETATM   22  C   UNL     1     -10.779  10.936  68.437  1.00  0.00    -0.203 C  
HETATM   23  O   UNL     1     -10.840   9.715  68.540  1.00  0.00    -0.215 OA 
ENDBRANCH  12  13
ENDBRANCH  11  12
ENDBRANCH   8  11
ENDBRANCH   7   8
ENDBRANCH   5   7
TORSDOF 5
ENDMDL
MODEL      212
REMARK 921   NORMALIZED FREE ENERGY PREDICTED BY IDOCK:   -3.81 KCAL/MOL
REMARK 922        TOTAL FREE ENERGY PREDICTED BY IDOCK:   -5.65 KCAL/MOL
REMARK 923 INTER-LIGAND FREE ENERGY PREDICTED BY IDOCK:   -5.35 KCAL/MOL
REMARK 924 INTRA-LIGAND FREE ENERGY PREDICTED BY IDOCK:   -0.30 KCAL/MOL
REMARK 927      BINDING AFFINITY PREDICTED BY RF-SCORE:    0.00 PKD
ROOT
HETATM    1  C   UNL     1     -10.408   4.730  66.611  1.00  0.00    -0.258 C  
HETATM    2  C   UNL     1      -9.291   5.763  66.377  1.00  0.00    -0.156 C  
HETATM    3  C   UNL     1      -8.438   5.279  65.186  1.00  0.00    -0.149 C  
HETATM    4  C   UNL     1      -8.383   5.857  67.612  1.00  0.00    -0.104 C  
HETATM    5  N   UNL     1      -9.839   7.085  65.999  1.00  0.00    -0.388 NA 
HETATM    6  H   UNL     1     -10.329   7.020  65.108  1.00  0.00     0.000 HD 
ENDROOT
BRANCH   5   7
HETATM    7  C   UNL     1     -10.703   7.714  67.009  1.00  0.00    -0.270 C  
BRANCH   7   8
HETATM    8  C   UNL     1     -10.154   9.032  67.594  1.00  0.00    -0.216 C  
HETATM    9  O   UNL     1     -10.726   9.214  68.899  1.00  0.00    -0.307 OA 
HETATM   10  H   UNL     1     -10.388  10.026  69.259  1.00  0.00     0.000 HD 
BRANCH   8  11
HETATM   11  C   UNL     1     -10.506  10.241  66.722  1.00  0.00    -0.214 C  
BRANCH  11  12
HETATM   12  O   UNL     1     -10.884  11.333  67.576  1.00  0.00    -0.213 OA 
BRANCH  12  13
HETATM   13  C   UNL     1     -10.843  12.561  66.961  1.00  0.00    -0.254 A  
HETATM   14  C   UNL     1     -11.907  13.063  66.198  1.00  0.00    -0.466 A  
HETATM   15  C   UNL     1     -11.795  14.287  65.545  1.00  0.00    -0.363 A  
HETATM   16  C   UNL     1     -10.631  15.037  65.686  1.00  0.00    -0.360 A  
HETATM   17  C   UNL     1      -9.590  14.572  66.497  1.00  0.00    -0.311 A  
HETATM   18  C   UNL     1      -9.676  13.322  67.138  1.00  0.00    -0.236 A  
HETATM   19  C   UNL     1      -8.563  12.823  68.030  1.00  0.00    -0.186 C  
HETATM   20  C   UNL     1      -7.233  13.514  67.751  1.00  0.00    -0.157 C  
HETATM   21  C   UNL     1      -7.398  15.022  67.741  1.00  0.00    -0.183 C  
HETATM   22  C   UNL     1      -8.397  15.437  66.687  1.00  0.00    -0.220 C  
HETATM   23  O   UNL     1      -8.272  16.480  66.053  1.00  0.00    -0.341 OA 
ENDBRANCH  12  13
ENDBRANCH  11  12
ENDBRANCH   8  11
ENDBRANCH   7   8
ENDBRANCH   5   7
TORSDOF 5
ENDMDL
MODEL      213
REMARK 921   NORMALIZED FREE ENERGY PREDICTED BY IDOCK:   -3.79 KCAL/MOL
REMARK 922        TOTAL FREE ENERGY PREDICTED BY IDOCK:   -5.63 KCAL/MOL
REMARK 923 INTER-LIGAND FREE ENERGY PREDICTED BY IDOCK:   -5.40 KCAL/MOL
REMARK 924 INTRA-LIGAND FREE ENERGY PREDICTED BY IDOCK:   -0.23 KCAL/MOL
REMARK 927      BINDING AFFINITY PREDICTED BY RF-SCORE:    0.00 PKD
ROOT
HETATM    1  C   UNL     1     -10.148  18.272  65.967  1.00  0.00    -0.278 C  
HETATM    2  C   UNL     1      -9.752  18.234  67.454  1.00  0.00    -0.296 C  
HETATM    3  C   UNL     1      -9.917  19.658  68.026  1.00  0.00    -0.541 C  
HETATM    4  C   UNL     1      -8.279  17.824  67.604  1.00  0.00    -0.230 C  
HETATM    5  N   UNL     1     -10.646  17.354  68.236  1.00  0.00    -0.376 NA 
HETATM    6  H   UNL     1     -11.598  17.721  68.226  1.00  0.00     0.000 HD 
ENDROOT
BRANCH   5   7
HETATM    7  C   UNL     1     -10.645  15.941  67.829  1.00  0.00    -0.302 C  
BRANCH   7   8
HETATM    8  C   UNL     1     -10.268  14.949  68.950  1.00  0.00    -0.238 C  
HETATM    9  O   UNL     1      -9.203  15.528  69.720  1.00  0.00    -0.308 OA 
HETATM   10  H   UNL     1      -8.972  14.917  70.410  1.00  0.00     0.000 HD 
BRANCH   8  11
HETATM   11  C   UNL     1      -9.805  13.600  68.393  1.00  0.00    -0.223 C  
BRANCH  11  12
HETATM   12  O   UNL     1     -10.960  12.810  68.070  1.00  0.00    -0.222 OA 
BRANCH  12  13
HETATM   13  C   UNL     1     -10.898  11.517  68.530  1.00  0.00    -0.215 A  
HETATM   14  C   UNL     1     -10.204  10.504  67.854  1.00  0.00    -0.213 A  
HETATM   15  C   UNL     1     -10.221   9.196  68.329  1.00  0.00    -0.242 A  
HETATM   16  C   UNL     1     -10.898   8.901  69.509  1.00  0.00    -0.163 A  
HETATM   17  C   UNL     1     -11.540   9.919  70.222  1.00  0.00    -0.319 A  
HETATM   18  C   UNL     1     -11.559  11.240  69.739  1.00  0.00    -0.408 A  
HETATM   19  C   UNL     1     -12.234  12.347  70.515  1.00  0.00    -0.382 C  
HETATM   20  C   UNL     1     -13.260  11.822  71.513  1.00  0.00    -0.292 C  
HETATM   21  C   UNL     1     -12.664  10.726  72.376  1.00  0.00     0.536 C  
HETATM   22  C   UNL     1     -12.185   9.580  71.517  1.00  0.00    -0.386 C  
HETATM   23  O   UNL     1     -12.258   8.415  71.894  1.00  0.00    -0.303 OA 
ENDBRANCH  12  13
ENDBRANCH  11  12
ENDBRANCH   8  11
ENDBRANCH   7   8
ENDBRANCH   5   7
TORSDOF 5
ENDMDL
MODEL      214
REMARK 921   NORMALIZED FREE ENERGY PREDICTED BY IDOCK:   -3.78 KCAL/MOL
REMARK 922        TOTAL FREE ENERGY PREDICTED BY IDOCK:   -5.62 KCAL/MOL
REMARK 923 INTER-LIGAND FREE ENERGY PREDICTED BY IDOCK:   -5.20 KCAL/MOL
REMARK 924 INTRA-LIGAND FREE ENERGY PREDICTED BY IDOCK:   -0.42 KCAL/MOL
REMARK 927      BINDING AFFINITY PREDICTED BY RF-SCORE:    0.00 PKD
ROOT
HETATM    1  C   UNL     1      -9.583  15.276  69.032  1.00  0.00    -0.237 C  
HETATM    2  C   UNL     1      -9.219  14.541  67.730  1.00  0.00    -0.194 C  
HETATM    3  C   UNL     1      -7.688  14.612  67.555  1.00  0.00    -0.216 C  
HETATM    4  C   UNL     1      -9.873  15.233  66.525  1.00  0.00    -0.283 C  
HETATM    5  N   UNL     1      -9.575  13.106  67.794  1.00  0.00    -0.201 NA 
HETATM    6  H   UNL     1      -9.030  12.641  68.520  1.00  0.00     0.000 HD 
ENDROOT
BRANCH   5   7
HETATM    7  C   UNL     1     -11.006  12.824  67.977  1.00  0.00    -0.239 C  
BRANCH   7   8
HETATM    8  C   UNL     1     -11.402  11.346  67.778  1.00  0.00    -0.287 C  
HETATM    9  O   UNL     1     -12.507  11.058  68.648  1.00  0.00    -0.723 OA 
HETATM   10  H   UNL     1     -12.750  10.147  68.525  1.00  0.00     0.000 HD 
BRANCH   8  11
HETATM   11  C   UNL     1     -10.248  10.393  68.104  1.00  0.00    -0.161 C  
BRANCH  11  12
HETATM   12  O   UNL     1     -10.568   9.674  69.306  1.00  0.00    -0.206 OA 
BRANCH  12  13
HETATM   13  C   UNL     1      -9.963   8.443  69.397  1.00  0.00    -0.191 A  
HETATM   14  C   UNL     1      -8.846   8.088  68.628  1.00  0.00    -0.134 A  
HETATM   15  C   UNL     1      -8.306   6.808  68.713  1.00  0.00    -0.121 A  
HETATM   16  C   UNL     1      -8.855   5.888  69.601  1.00  0.00    -0.131 A  
HETATM   17  C   UNL     1      -9.930   6.256  70.418  1.00  0.00    -0.214 A  
HETATM   18  C   UNL     1     -10.506   7.535  70.321  1.00  0.00    -0.227 A  
HETATM   19  C   UNL     1     -11.655   7.944  71.214  1.00  0.00    -0.304 C  
HETATM   20  C   UNL     1     -12.400   6.749  71.797  1.00  0.00    -0.400 C  
HETATM   21  C   UNL     1     -11.433   5.766  72.431  1.00  0.00    -0.343 C  
HETATM   22  C   UNL     1     -10.437   5.272  71.410  1.00  0.00    -0.203 C  
HETATM   23  O   UNL     1     -10.005   4.124  71.430  1.00  0.00    -0.185 OA 
ENDBRANCH  12  13
ENDBRANCH  11  12
ENDBRANCH   8  11
ENDBRANCH   7   8
ENDBRANCH   5   7
TORSDOF 5
ENDMDL
MODEL      215
REMARK 921   NORMALIZED FREE ENERGY PREDICTED BY IDOCK:   -3.78 KCAL/MOL
REMARK 922        TOTAL FREE ENERGY PREDICTED BY IDOCK:   -5.62 KCAL/MOL
REMARK 923 INTER-LIGAND FREE ENERGY PREDICTED BY IDOCK:   -4.76 KCAL/MOL
REMARK 924 INTRA-LIGAND FREE ENERGY PREDICTED BY IDOCK:   -0.86 KCAL/MOL
REMARK 927      BINDING AFFINITY PREDICTED BY RF-SCORE:    0.00 PKD
ROOT
HETATM    1  C   UNL     1     -10.700  17.265  68.010  1.00  0.00    -0.367 C  
HETATM    2  C   UNL     1      -9.568  16.290  67.640  1.00  0.00    -0.227 C  
HETATM    3  C   UNL     1      -8.709  16.058  68.901  1.00  0.00    -0.236 C  
HETATM    4  C   UNL     1      -8.671  16.902  66.554  1.00  0.00    -0.304 C  
HETATM    5  N   UNL     1     -10.094  14.969  67.234  1.00  0.00    -0.235 NA 
HETATM    6  H   UNL     1     -10.576  14.527  68.016  1.00  0.00     0.000 HD 
ENDROOT
BRANCH   5   7
HETATM    7  C   UNL     1     -10.960  14.979  66.046  1.00  0.00    -0.334 C  
BRANCH   7   8
HETATM    8  C   UNL     1     -10.842  13.726  65.153  1.00  0.00    -0.345 C  
HETATM    9  O   UNL     1     -11.514  13.996  63.913  1.00  0.00    -0.602 OA 
HETATM   10  H   UNL     1     -11.441  13.224  63.364  1.00  0.00     0.000 HD 
BRANCH   8  11
HETATM   11  C   UNL     1     -11.476  12.494  65.805  1.00  0.00    -0.365 C  
BRANCH  11  12
HETATM   12  O   UNL     1     -10.749  12.178  67.003  1.00  0.00    -0.226 OA 
BRANCH  12  13
HETATM   13  C   UNL     1     -10.140  10.946  66.978  1.00  0.00    -0.205 A  
HETATM   14  C   UNL     1     -10.859   9.747  66.878  1.00  0.00    -0.120 A  
HETATM   15  C   UNL     1     -10.200   8.521  66.917  1.00  0.00    -0.375 A  
HETATM   16  C   UNL     1      -8.812   8.489  67.014  1.00  0.00    -0.144 A  
HETATM   17  C   UNL     1      -8.083   9.684  67.050  1.00  0.00    -0.113 A  
HETATM   18  C   UNL     1      -8.737  10.930  67.043  1.00  0.00    -0.141 A  
HETATM   19  C   UNL     1      -7.954  12.222  67.062  1.00  0.00    -0.123 C  
HETATM   20  C   UNL     1      -6.535  12.041  67.589  1.00  0.00    -0.108 C  
HETATM   21  C   UNL     1      -5.836  10.897  66.877  1.00  0.00    -0.072 C  
HETATM   22  C   UNL     1      -6.600   9.610  67.073  1.00  0.00    -0.067 C  
HETATM   23  O   UNL     1      -6.028   8.529  67.180  1.00  0.00    -0.051 OA 
ENDBRANCH  12  13
ENDBRANCH  11  12
ENDBRANCH   8  11
ENDBRANCH   7   8
ENDBRANCH   5   7
TORSDOF 5
ENDMDL
MODEL      216
REMARK 921   NORMALIZED FREE ENERGY PREDICTED BY IDOCK:   -3.75 KCAL/MOL
REMARK 922        TOTAL FREE ENERGY PREDICTED BY IDOCK:   -5.57 KCAL/MOL
REMARK 923 INTER-LIGAND FREE ENERGY PREDICTED BY IDOCK:   -4.82 KCAL/MOL
REMARK 924 INTRA-LIGAND FREE ENERGY PREDICTED BY IDOCK:   -0.75 KCAL/MOL
REMARK 927      BINDING AFFINITY PREDICTED BY RF-SCORE:    0.00 PKD
ROOT
HETATM    1  C   UNL     1      -9.711   9.861  68.111  1.00  0.00    -0.161 C  
HETATM    2  C   UNL     1      -8.439  10.174  68.918  1.00  0.00    -0.139 C  
HETATM    3  C   UNL     1      -7.986  11.604  68.557  1.00  0.00    -0.144 C  
HETATM    4  C   UNL     1      -7.312   9.203  68.536  1.00  0.00    -0.077 C  
HETATM    5  N   UNL     1      -8.698  10.164  70.374  1.00  0.00    -0.319 NA 
HETATM    6  H   UNL     1      -9.354  10.905  70.619  1.00  0.00     0.000 HD 
ENDROOT
BRANCH   5   7
HETATM    7  C   UNL     1      -9.160   8.878  70.918  1.00  0.00    -0.230 C  
BRANCH   7   8
HETATM    8  C   UNL     1     -10.521   8.937  71.642  1.00  0.00    -0.338 C  
HETATM    9  O   UNL     1     -10.414   8.177  72.856  1.00  0.00    -0.340 OA 
HETATM   10  H   UNL     1     -11.253   8.214  73.302  1.00  0.00     0.000 HD 
BRANCH   8  11
HETATM   11  C   UNL     1     -11.653   8.359  70.789  1.00  0.00    -0.232 C  
BRANCH  11  12
HETATM   12  O   UNL     1     -11.706   6.938  70.992  1.00  0.00    -0.307 OA 
BRANCH  12  13
HETATM   13  C   UNL     1     -11.051   6.211  70.027  1.00  0.00    -0.392 A  
HETATM   14  C   UNL     1     -11.095   6.546  68.666  1.00  0.00    -0.348 A  
HETATM   15  C   UNL     1     -10.463   5.743  67.720  1.00  0.00    -0.289 A  
HETATM   16  C   UNL     1      -9.748   4.623  68.135  1.00  0.00    -0.197 A  
HETATM   17  C   UNL     1      -9.648   4.320  69.497  1.00  0.00    -0.274 A  
HETATM   18  C   UNL     1     -10.306   5.103  70.463  1.00  0.00    -0.314 A  
HETATM   19  C   UNL     1     -10.185   4.791  71.936  1.00  0.00    -0.261 C  
HETATM   20  C   UNL     1      -9.757   3.352  72.198  1.00  0.00    -0.228 C  
HETATM   21  C   UNL     1      -8.529   2.996  71.380  1.00  0.00    -0.092 C  
HETATM   22  C   UNL     1      -8.810   3.163  69.906  1.00  0.00    -0.090 C  
HETATM   23  O   UNL     1      -8.316   2.419  69.066  1.00  0.00    -0.051 OA 
ENDBRANCH  12  13
ENDBRANCH  11  12
ENDBRANCH   8  11
ENDBRANCH   7   8
ENDBRANCH   5   7
TORSDOF 5
ENDMDL
MODEL      217
REMARK 921   NORMALIZED FREE ENERGY PREDICTED BY IDOCK:   -3.74 KCAL/MOL
REMARK 922        TOTAL FREE ENERGY PREDICTED BY IDOCK:   -5.56 KCAL/MOL
REMARK 923 INTER-LIGAND FREE ENERGY PREDICTED BY IDOCK:   -4.98 KCAL/MOL
REMARK 924 INTRA-LIGAND FREE ENERGY PREDICTED BY IDOCK:   -0.59 KCAL/MOL
REMARK 927      BINDING AFFINITY PREDICTED BY RF-SCORE:    0.00 PKD
ROOT
HETATM    1  C   UNL     1      -7.179   8.155  64.932  1.00  0.00    -0.081 C  
HETATM    2  C   UNL     1      -6.740   7.571  66.286  1.00  0.00    -0.057 C  
HETATM    3  C   UNL     1      -5.542   8.400  66.795  1.00  0.00    -0.037 C  
HETATM    4  C   UNL     1      -6.281   6.116  66.116  1.00  0.00    -0.037 C  
HETATM    5  N   UNL     1      -7.805   7.692  67.305  1.00  0.00    -0.115 NA 
HETATM    6  H   UNL     1      -8.002   8.675  67.493  1.00  0.00     0.000 HD 
ENDROOT
BRANCH   5   7
HETATM    7  C   UNL     1      -9.052   6.977  66.994  1.00  0.00    -0.137 C  
BRANCH   7   8
HETATM    8  C   UNL     1     -10.340   7.780  67.271  1.00  0.00    -0.301 C  
HETATM    9  O   UNL     1     -11.465   6.932  66.991  1.00  0.00    -0.670 OA 
HETATM   10  H   UNL     1     -12.258   7.426  67.162  1.00  0.00     0.000 HD 
BRANCH   8  11
HETATM   11  C   UNL     1     -10.435   9.036  66.400  1.00  0.00    -0.040 C  
BRANCH  11  12
HETATM   12  O   UNL     1     -11.020  10.094  67.175  1.00  0.00    -0.235 OA 
BRANCH  12  13
HETATM   13  C   UNL     1     -10.238  11.220  67.263  1.00  0.00    -0.194 A  
HETATM   14  C   UNL     1      -9.050  11.261  68.007  1.00  0.00    -0.156 A  
HETATM   15  C   UNL     1      -8.323  12.444  68.114  1.00  0.00    -0.178 A  
HETATM   16  C   UNL     1      -8.758  13.582  67.443  1.00  0.00    -0.220 A  
HETATM   17  C   UNL     1      -9.909  13.531  66.648  1.00  0.00    -0.279 A  
HETATM   18  C   UNL     1     -10.671  12.352  66.554  1.00  0.00    -0.265 A  
HETATM   19  C   UNL     1     -11.903  12.286  65.682  1.00  0.00    -0.423 C  
HETATM   20  C   UNL     1     -12.478  13.664  65.372  1.00  0.00    -0.537 C  
HETATM   21  C   UNL     1     -11.398  14.598  64.860  1.00  0.00    -0.403 C  
HETATM   22  C   UNL     1     -10.297  14.744  65.883  1.00  0.00    -0.320 C  
HETATM   23  O   UNL     1      -9.695  15.802  66.038  1.00  0.00    -0.293 OA 
ENDBRANCH  12  13
ENDBRANCH  11  12
ENDBRANCH   8  11
ENDBRANCH   7   8
ENDBRANCH   5   7
TORSDOF 5
ENDMDL
MODEL      218
REMARK 921   NORMALIZED FREE ENERGY PREDICTED BY IDOCK:   -3.71 KCAL/MOL
REMARK 922        TOTAL FREE ENERGY PREDICTED BY IDOCK:   -5.53 KCAL/MOL
REMARK 923 INTER-LIGAND FREE ENERGY PREDICTED BY IDOCK:   -4.26 KCAL/MOL
REMARK 924 INTRA-LIGAND FREE ENERGY PREDICTED BY IDOCK:   -1.27 KCAL/MOL
REMARK 927      BINDING AFFINITY PREDICTED BY RF-SCORE:    0.00 PKD
ROOT
HETATM    1  C   UNL     1     -10.896  17.827  67.758  1.00  0.00    -0.238 C  
HETATM    2  C   UNL     1     -10.102  18.124  66.473  1.00  0.00    -0.386 C  
HETATM    3  C   UNL     1      -8.686  18.578  66.883  1.00  0.00    -0.287 C  
HETATM    4  C   UNL     1     -10.765  19.265  65.688  1.00  0.00    -0.335 C  
HETATM    5  N   UNL     1      -9.937  16.912  65.640  1.00  0.00    -0.583 NA 
HETATM    6  H   UNL     1      -9.382  16.217  66.138  1.00  0.00     0.000 HD 
ENDROOT
BRANCH   5   7
HETATM    7  C   UNL     1     -11.189  16.310  65.157  1.00  0.00    -0.113 C  
BRANCH   7   8
HETATM    8  C   UNL     1     -11.080  14.820  64.773  1.00  0.00    -0.383 C  
HETATM    9  O   UNL     1     -12.294  14.165  65.172  1.00  0.00    -0.418 OA 
HETATM   10  H   UNL     1     -12.226  13.248  64.935  1.00  0.00     0.000 HD 
BRANCH   8  11
HETATM   11  C   UNL     1      -9.895  14.134  65.459  1.00  0.00    -0.230 C  
BRANCH  11  12
HETATM   12  O   UNL     1     -10.349  13.546  66.689  1.00  0.00    -0.264 OA 
BRANCH  12  13
HETATM   13  C   UNL     1      -9.921  14.208  67.815  1.00  0.00    -0.235 A  
HETATM   14  C   UNL     1      -8.594  14.623  67.992  1.00  0.00    -0.162 A  
HETATM   15  C   UNL     1      -8.196  15.237  69.176  1.00  0.00    -0.234 A  
HETATM   16  C   UNL     1      -9.135  15.477  70.175  1.00  0.00     0.498 A  
HETATM   17  C   UNL     1     -10.474  15.123  69.979  1.00  0.00    -0.207 A  
HETATM   18  C   UNL     1     -10.885  14.474  68.801  1.00  0.00    -0.256 A  
HETATM   19  C   UNL     1     -12.334  14.106  68.576  1.00  0.00    -0.031 C  
HETATM   20  C   UNL     1     -13.129  14.034  69.875  1.00  0.00     0.550 C  
HETATM   21  C   UNL     1     -12.923  15.288  70.705  1.00  0.00    -0.492 C  
HETATM   22  C   UNL     1     -11.461  15.468  71.035  1.00  0.00    -0.383 C  
HETATM   23  O   UNL     1     -11.093  15.942  72.105  1.00  0.00    -0.067 OA 
ENDBRANCH  12  13
ENDBRANCH  11  12
ENDBRANCH   8  11
ENDBRANCH   7   8
ENDBRANCH   5   7
TORSDOF 5
ENDMDL
MODEL      219
REMARK 921   NORMALIZED FREE ENERGY PREDICTED BY IDOCK:   -3.70 KCAL/MOL
REMARK 922        TOTAL FREE ENERGY PREDICTED BY IDOCK:   -5.52 KCAL/MOL
REMARK 923 INTER-LIGAND FREE ENERGY PREDICTED BY IDOCK:   -5.18 KCAL/MOL
REMARK 924 INTRA-LIGAND FREE ENERGY PREDICTED BY IDOCK:   -0.34 KCAL/MOL
REMARK 927      BINDING AFFINITY PREDICTED BY RF-SCORE:    0.00 PKD
ROOT
HETATM    1  C   UNL     1      -8.920   3.871  70.314  1.00  0.00    -0.163 C  
HETATM    2  C   UNL     1      -8.949   4.887  71.470  1.00  0.00    -0.135 C  
HETATM    3  C   UNL     1      -7.794   4.545  72.434  1.00  0.00    -0.090 C  
HETATM    4  C   UNL     1     -10.271   4.778  72.244  1.00  0.00    -0.252 C  
HETATM    5  N   UNL     1      -8.710   6.266  70.991  1.00  0.00    -0.135 NA 
HETATM    6  H   UNL     1      -7.773   6.343  70.596  1.00  0.00     0.000 HD 
ENDROOT
BRANCH   5   7
HETATM    7  C   UNL     1      -9.705   6.779  70.038  1.00  0.00    -0.163 C  
BRANCH   7   8
HETATM    8  C   UNL     1      -9.244   8.007  69.224  1.00  0.00    -0.152 C  
HETATM    9  O   UNL     1      -7.808   8.026  69.219  1.00  0.00    -0.109 OA 
HETATM   10  H   UNL     1      -7.525   8.782  68.718  1.00  0.00     0.000 HD 
BRANCH   8  11
HETATM   11  C   UNL     1      -9.758   9.320  69.822  1.00  0.00    -0.189 C  
BRANCH  11  12
HETATM   12  O   UNL     1     -11.033   9.627  69.236  1.00  0.00    -0.224 OA 
BRANCH  12  13
HETATM   13  C   UNL     1     -11.344  10.966  69.247  1.00  0.00    -0.277 A  
HETATM   14  C   UNL     1     -11.686  11.655  70.418  1.00  0.00    -0.292 A  
HETATM   15  C   UNL     1     -12.051  12.998  70.368  1.00  0.00    -0.391 A  
HETATM   16  C   UNL     1     -12.035  13.670  69.149  1.00  0.00    -0.394 A  
HETATM   17  C   UNL     1     -11.633  13.004  67.986  1.00  0.00    -0.383 A  
HETATM   18  C   UNL     1     -11.291  11.639  68.015  1.00  0.00    -0.366 A  
HETATM   19  C   UNL     1     -10.838  10.920  66.766  1.00  0.00    -0.283 C  
HETATM   20  C   UNL     1     -11.272  11.631  65.489  1.00  0.00    -0.267 C  
HETATM   21  C   UNL     1     -10.899  13.102  65.536  1.00  0.00    -0.299 C  
HETATM   22  C   UNL     1     -11.552  13.775  66.718  1.00  0.00    -0.370 C  
HETATM   23  O   UNL     1     -11.943  14.937  66.666  1.00  0.00    -0.247 OA 
ENDBRANCH  12  13
ENDBRANCH  11  12
ENDBRANCH   8  11
ENDBRANCH   7   8
ENDBRANCH   5   7
TORSDOF 5
ENDMDL
MODEL      220
REMARK 921   NORMALIZED FREE ENERGY PREDICTED BY IDOCK:   -3.70 KCAL/MOL
REMARK 922        TOTAL FREE ENERGY PREDICTED BY IDOCK:   -5.52 KCAL/MOL
REMARK 923 INTER-LIGAND FREE ENERGY PREDICTED BY IDOCK:   -5.09 KCAL/MOL
REMARK 924 INTRA-LIGAND FREE ENERGY PREDICTED BY IDOCK:   -0.43 KCAL/MOL
REMARK 927      BINDING AFFINITY PREDICTED BY RF-SCORE:    0.00 PKD
ROOT
HETATM    1  C   UNL     1      -8.364   9.948  67.240  1.00  0.00    -0.121 C  
HETATM    2  C   UNL     1      -9.850   9.746  67.588  1.00  0.00    -0.165 C  
HETATM    3  C   UNL     1      -9.928   9.151  69.010  1.00  0.00    -0.189 C  
HETATM    4  C   UNL     1     -10.495   8.749  66.614  1.00  0.00    -0.240 C  
HETATM    5  N   UNL     1     -10.583  11.030  67.623  1.00  0.00    -0.203 NA 
HETATM    6  H   UNL     1     -10.217  11.624  68.366  1.00  0.00     0.000 HD 
ENDROOT
BRANCH   5   7
HETATM    7  C   UNL     1     -10.611  11.768  66.351  1.00  0.00    -0.255 C  
BRANCH   7   8
HETATM    8  C   UNL     1     -11.706  12.851  66.260  1.00  0.00    -0.399 C  
HETATM    9  O   UNL     1     -12.615  12.481  65.211  1.00  0.00    -0.645 OA 
HETATM   10  H   UNL     1     -13.289  13.148  65.155  1.00  0.00     0.000 HD 
BRANCH   8  11
HETATM   11  C   UNL     1     -11.125  14.233  65.951  1.00  0.00    -0.310 C  
BRANCH  11  12
HETATM   12  O   UNL     1     -10.934  14.942  67.186  1.00  0.00    -0.307 OA 
BRANCH  12  13
HETATM   13  C   UNL     1     -10.238  16.119  67.052  1.00  0.00    -0.285 A  
HETATM   14  C   UNL     1     -10.758  17.235  66.382  1.00  0.00    -0.072 A  
HETATM   15  C   UNL     1      -9.990  18.386  66.221  1.00  0.00    -0.378 A  
HETATM   16  C   UNL     1      -8.711  18.440  66.767  1.00  0.00    -0.284 A  
HETATM   17  C   UNL     1      -8.210  17.353  67.491  1.00  0.00    -0.209 A  
HETATM   18  C   UNL     1      -8.962  16.173  67.636  1.00  0.00    -0.194 A  
HETATM   19  C   UNL     1      -8.433  15.003  68.434  1.00  0.00    -0.153 C  
HETATM   20  C   UNL     1      -6.917  15.037  68.591  1.00  0.00    -0.110 C  
HETATM   21  C   UNL     1      -6.455  16.394  69.089  1.00  0.00    -0.187 C  
HETATM   22  C   UNL     1      -6.873  17.480  68.127  1.00  0.00    -0.197 C  
HETATM   23  O   UNL     1      -6.172  18.466  67.921  1.00  0.00    -0.180 OA 
ENDBRANCH  12  13
ENDBRANCH  11  12
ENDBRANCH   8  11
ENDBRANCH   7   8
ENDBRANCH   5   7
TORSDOF 5
ENDMDL
MODEL      221
REMARK 921   NORMALIZED FREE ENERGY PREDICTED BY IDOCK:   -3.70 KCAL/MOL
REMARK 922        TOTAL FREE ENERGY PREDICTED BY IDOCK:   -5.51 KCAL/MOL
REMARK 923 INTER-LIGAND FREE ENERGY PREDICTED BY IDOCK:   -4.29 KCAL/MOL
REMARK 924 INTRA-LIGAND FREE ENERGY PREDICTED BY IDOCK:   -1.22 KCAL/MOL
REMARK 927      BINDING AFFINITY PREDICTED BY RF-SCORE:    0.00 PKD
ROOT
HETATM    1  C   UNL     1     -10.632   7.602  67.161  1.00  0.00    -0.410 C  
HETATM    2  C   UNL     1      -9.450   6.668  67.477  1.00  0.00    -0.126 C  
HETATM    3  C   UNL     1      -8.255   7.099  66.600  1.00  0.00    -0.112 C  
HETATM    4  C   UNL     1      -9.806   5.217  67.124  1.00  0.00    -0.191 C  
HETATM    5  N   UNL     1      -9.013   6.796  68.884  1.00  0.00    -0.131 NA 
HETATM    6  H   UNL     1      -8.660   7.737  69.059  1.00  0.00     0.000 HD 
ENDROOT
BRANCH   5   7
HETATM    7  C   UNL     1     -10.028   6.442  69.888  1.00  0.00    -0.168 C  
BRANCH   7   8
HETATM    8  C   UNL     1      -9.868   7.159  71.245  1.00  0.00    -0.177 C  
HETATM    9  O   UNL     1     -11.065   7.912  71.497  1.00  0.00    -0.235 OA 
HETATM   10  H   UNL     1     -10.966   8.354  72.332  1.00  0.00     0.000 HD 
BRANCH   8  11
HETATM   11  C   UNL     1      -8.669   8.111  71.256  1.00  0.00    -0.145 C  
BRANCH  11  12
HETATM   12  O   UNL     1      -9.134   9.446  70.998  1.00  0.00    -0.216 OA 
BRANCH  12  13
HETATM   13  C   UNL     1      -8.763   9.939  69.770  1.00  0.00    -0.212 A  
HETATM   14  C   UNL     1      -7.515   9.672  69.192  1.00  0.00    -0.079 A  
HETATM   15  C   UNL     1      -7.163  10.244  67.972  1.00  0.00    -0.085 A  
HETATM   16  C   UNL     1      -8.077  11.053  67.303  1.00  0.00    -0.126 A  
HETATM   17  C   UNL     1      -9.349  11.272  67.845  1.00  0.00    -0.161 A  
HETATM   18  C   UNL     1      -9.707  10.726  69.091  1.00  0.00    -0.181 A  
HETATM   19  C   UNL     1     -11.086  10.944  69.672  1.00  0.00    -0.328 C  
HETATM   20  C   UNL     1     -11.792  12.153  69.070  1.00  0.00    -0.361 C  
HETATM   21  C   UNL     1     -11.752  12.103  67.553  1.00  0.00    -0.385 C  
HETATM   22  C   UNL     1     -10.324  12.075  67.064  1.00  0.00    -0.211 C  
HETATM   23  O   UNL     1      -9.986  12.635  66.026  1.00  0.00    -0.252 OA 
ENDBRANCH  12  13
ENDBRANCH  11  12
ENDBRANCH   8  11
ENDBRANCH   7   8
ENDBRANCH   5   7
TORSDOF 5
ENDMDL
MODEL      222
REMARK 921   NORMALIZED FREE ENERGY PREDICTED BY IDOCK:   -3.68 KCAL/MOL
REMARK 922        TOTAL FREE ENERGY PREDICTED BY IDOCK:   -5.49 KCAL/MOL
REMARK 923 INTER-LIGAND FREE ENERGY PREDICTED BY IDOCK:   -5.10 KCAL/MOL
REMARK 924 INTRA-LIGAND FREE ENERGY PREDICTED BY IDOCK:   -0.39 KCAL/MOL
REMARK 927      BINDING AFFINITY PREDICTED BY RF-SCORE:    0.00 PKD
ROOT
HETATM    1  C   UNL     1     -10.362  17.898  67.321  1.00  0.00    -0.374 C  
HETATM    2  C   UNL     1      -9.530  19.163  67.599  1.00  0.00    -0.304 C  
HETATM    3  C   UNL     1     -10.462  20.216  68.233  1.00  0.00    -0.357 C  
HETATM    4  C   UNL     1      -8.978  19.738  66.286  1.00  0.00    -0.431 C  
HETATM    5  N   UNL     1      -8.452  18.904  68.578  1.00  0.00    -0.340 NA 
HETATM    6  H   UNL     1      -8.851  18.647  69.481  1.00  0.00     0.000 HD 
ENDROOT
BRANCH   5   7
HETATM    7  C   UNL     1      -7.456  17.905  68.162  1.00  0.00    -0.250 C  
BRANCH   7   8
HETATM    8  C   UNL     1      -7.610  16.525  68.835  1.00  0.00    -0.238 C  
HETATM    9  O   UNL     1      -6.621  16.419  69.871  1.00  0.00    -0.180 OA 
HETATM   10  H   UNL     1      -6.716  15.569  70.284  1.00  0.00     0.000 HD 
BRANCH   8  11
HETATM   11  C   UNL     1      -7.416  15.375  67.842  1.00  0.00    -0.140 C  
BRANCH  11  12
HETATM   12  O   UNL     1      -8.070  14.204  68.356  1.00  0.00    -0.132 OA 
BRANCH  12  13
HETATM   13  C   UNL     1      -8.991  13.656  67.496  1.00  0.00    -0.209 A  
HETATM   14  C   UNL     1     -10.257  14.219  67.282  1.00  0.00    -0.252 A  
HETATM   15  C   UNL     1     -11.178  13.592  66.446  1.00  0.00    -0.317 A  
HETATM   16  C   UNL     1     -10.821  12.420  65.786  1.00  0.00    -0.312 A  
HETATM   17  C   UNL     1      -9.537  11.887  65.946  1.00  0.00    -0.248 A  
HETATM   18  C   UNL     1      -8.606  12.491  66.812  1.00  0.00    -0.109 A  
HETATM   19  C   UNL     1      -7.212  11.931  66.973  1.00  0.00    -0.118 C  
HETATM   20  C   UNL     1      -7.114  10.470  66.552  1.00  0.00    -0.120 C  
HETATM   21  C   UNL     1      -7.716  10.263  65.174  1.00  0.00    -0.136 C  
HETATM   22  C   UNL     1      -9.167  10.680  65.164  1.00  0.00    -0.207 C  
HETATM   23  O   UNL     1     -10.004  10.092  64.486  1.00  0.00    -0.326 OA 
ENDBRANCH  12  13
ENDBRANCH  11  12
ENDBRANCH   8  11
ENDBRANCH   7   8
ENDBRANCH   5   7
TORSDOF 5
ENDMDL
MODEL      223
REMARK 921   NORMALIZED FREE ENERGY PREDICTED BY IDOCK:   -3.67 KCAL/MOL
REMARK 922        TOTAL FREE ENERGY PREDICTED BY IDOCK:   -5.47 KCAL/MOL
REMARK 923 INTER-LIGAND FREE ENERGY PREDICTED BY IDOCK:   -4.94 KCAL/MOL
REMARK 924 INTRA-LIGAND FREE ENERGY PREDICTED BY IDOCK:   -0.53 KCAL/MOL
REMARK 927      BINDING AFFINITY PREDICTED BY RF-SCORE:    0.00 PKD
ROOT
HETATM    1  C   UNL     1     -10.616  10.219  67.152  1.00  0.00    -0.320 C  
HETATM    2  C   UNL     1     -10.477  11.635  67.739  1.00  0.00    -0.187 C  
HETATM    3  C   UNL     1     -11.783  11.969  68.490  1.00  0.00    -0.387 C  
HETATM    4  C   UNL     1     -10.293  12.664  66.614  1.00  0.00    -0.249 C  
HETATM    5  N   UNL     1      -9.383  11.710  68.732  1.00  0.00    -0.382 NA 
HETATM    6  H   UNL     1      -9.592  11.112  69.531  1.00  0.00     0.000 HD 
ENDROOT
BRANCH   5   7
HETATM    7  C   UNL     1      -8.043  11.406  68.209  1.00  0.00    -0.143 C  
BRANCH   7   8
HETATM    8  C   UNL     1      -7.256  12.633  67.702  1.00  0.00    -0.142 C  
HETATM    9  O   UNL     1      -6.476  12.226  66.567  1.00  0.00    -0.444 OA 
HETATM   10  H   UNL     1      -5.991  12.981  66.255  1.00  0.00     0.000 HD 
BRANCH   8  11
HETATM   11  C   UNL     1      -6.320  13.199  68.773  1.00  0.00    -0.091 C  
BRANCH  11  12
HETATM   12  O   UNL     1      -6.935  14.357  69.360  1.00  0.00    -0.132 OA 
BRANCH  12  13
HETATM   13  C   UNL     1      -7.379  15.278  68.443  1.00  0.00    -0.114 A  
HETATM   14  C   UNL     1      -6.589  15.728  67.375  1.00  0.00    -0.215 A  
HETATM   15  C   UNL     1      -7.064  16.707  66.507  1.00  0.00    -0.212 A  
HETATM   16  C   UNL     1      -8.349  17.213  66.677  1.00  0.00    -0.286 A  
HETATM   17  C   UNL     1      -9.166  16.723  67.702  1.00  0.00    -0.223 A  
HETATM   18  C   UNL     1      -8.690  15.756  68.606  1.00  0.00    -0.195 A  
HETATM   19  C   UNL     1      -9.575  15.209  69.703  1.00  0.00    -0.126 C  
HETATM   20  C   UNL     1     -10.747  16.129  70.024  1.00  0.00    -0.318 C  
HETATM   21  C   UNL     1     -11.489  16.523  68.760  1.00  0.00    -0.143 C  
HETATM   22  C   UNL     1     -10.559  17.229  67.802  1.00  0.00    -0.367 C  
HETATM   23  O   UNL     1     -10.948  18.142  67.080  1.00  0.00    -0.263 OA 
ENDBRANCH  12  13
ENDBRANCH  11  12
ENDBRANCH   8  11
ENDBRANCH   7   8
ENDBRANCH   5   7
TORSDOF 5
ENDMDL
MODEL      224
REMARK 921   NORMALIZED FREE ENERGY PREDICTED BY IDOCK:   -3.66 KCAL/MOL
REMARK 922        TOTAL FREE ENERGY PREDICTED BY IDOCK:   -5.46 KCAL/MOL
REMARK 923 INTER-LIGAND FREE ENERGY PREDICTED BY IDOCK:   -4.99 KCAL/MOL
REMARK 924 INTRA-LIGAND FREE ENERGY PREDICTED BY IDOCK:   -0.47 KCAL/MOL
REMARK 927      BINDING AFFINITY PREDICTED BY RF-SCORE:    0.00 PKD
ROOT
HETATM    1  C   UNL     1     -10.440  14.911  65.680  1.00  0.00    -0.366 C  
HETATM    2  C   UNL     1     -11.332  13.890  64.952  1.00  0.00    -0.347 C  
HETATM    3  C   UNL     1     -12.377  14.673  64.130  1.00  0.00    -0.294 C  
HETATM    4  C   UNL     1     -12.078  13.012  65.968  1.00  0.00    -0.493 C  
HETATM    5  N   UNL     1     -10.557  13.075  63.991  1.00  0.00    -0.482 NA 
HETATM    6  H   UNL     1     -10.178  13.668  63.252  1.00  0.00     0.000 HD 
ENDROOT
BRANCH   5   7
HETATM    7  C   UNL     1      -9.488  12.258  64.583  1.00  0.00     0.241 C  
BRANCH   7   8
HETATM    8  C   UNL     1      -9.560  10.755  64.239  1.00  0.00    -0.283 C  
HETATM    9  O   UNL     1     -10.382  10.603  63.071  1.00  0.00    -0.660 OA 
HETATM   10  H   UNL     1     -10.427   9.678  62.859  1.00  0.00     0.000 HD 
BRANCH   8  11
HETATM   11  C   UNL     1     -10.160   9.931  65.381  1.00  0.00    -0.200 C  
BRANCH  11  12
HETATM   12  O   UNL     1      -9.127   9.113  65.953  1.00  0.00    -0.175 OA 
BRANCH  12  13
HETATM   13  C   UNL     1      -9.553   7.864  66.339  1.00  0.00    -0.181 A  
HETATM   14  C   UNL     1     -10.537   7.668  67.318  1.00  0.00    -0.388 A  
HETATM   15  C   UNL     1     -10.892   6.382  67.717  1.00  0.00    -0.418 A  
HETATM   16  C   UNL     1     -10.294   5.283  67.107  1.00  0.00    -0.268 A  
HETATM   17  C   UNL     1      -9.358   5.472  66.084  1.00  0.00    -0.169 A  
HETATM   18  C   UNL     1      -8.966   6.765  65.692  1.00  0.00     0.019 A  
HETATM   19  C   UNL     1      -7.970   6.974  64.575  1.00  0.00    -0.104 C  
HETATM   20  C   UNL     1      -7.112   5.741  64.315  1.00  0.00    -0.053 C  
HETATM   21  C   UNL     1      -7.978   4.504  64.158  1.00  0.00    -0.093 C  
HETATM   22  C   UNL     1      -8.801   4.275  65.403  1.00  0.00    -0.129 C  
HETATM   23  O   UNL     1      -9.062   3.146  65.807  1.00  0.00    -0.142 OA 
ENDBRANCH  12  13
ENDBRANCH  11  12
ENDBRANCH   8  11
ENDBRANCH   7   8
ENDBRANCH   5   7
TORSDOF 5
ENDMDL
MODEL      225
REMARK 921   NORMALIZED FREE ENERGY PREDICTED BY IDOCK:   -3.65 KCAL/MOL
REMARK 922        TOTAL FREE ENERGY PREDICTED BY IDOCK:   -5.45 KCAL/MOL
REMARK 923 INTER-LIGAND FREE ENERGY PREDICTED BY IDOCK:   -5.01 KCAL/MOL
REMARK 924 INTRA-LIGAND FREE ENERGY PREDICTED BY IDOCK:   -0.44 KCAL/MOL
REMARK 927      BINDING AFFINITY PREDICTED BY RF-SCORE:    0.00 PKD
ROOT
HETATM    1  C   UNL     1      -7.713   3.646  65.628  1.00  0.00    -0.085 C  
HETATM    2  C   UNL     1      -8.253   4.353  66.884  1.00  0.00    -0.102 C  
HETATM    3  C   UNL     1      -7.510   3.780  68.109  1.00  0.00    -0.062 C  
HETATM    4  C   UNL     1      -9.753   4.067  67.054  1.00  0.00    -0.214 C  
HETATM    5  N   UNL     1      -7.974   5.805  66.857  1.00  0.00    -0.102 NA 
HETATM    6  H   UNL     1      -6.967   5.970  66.875  1.00  0.00     0.000 HD 
ENDROOT
BRANCH   5   7
HETATM    7  C   UNL     1      -8.587   6.540  65.741  1.00  0.00    -0.144 C  
BRANCH   7   8
HETATM    8  C   UNL     1      -8.898   8.021  66.039  1.00  0.00    -0.162 C  
HETATM    9  O   UNL     1      -7.651   8.721  66.174  1.00  0.00    -0.091 OA 
HETATM   10  H   UNL     1      -7.843   9.633  66.357  1.00  0.00     0.000 HD 
BRANCH   8  11
HETATM   11  C   UNL     1      -9.708   8.192  67.327  1.00  0.00    -0.178 C  
BRANCH  11  12
HETATM   12  O   UNL     1     -10.844   9.028  67.053  1.00  0.00    -0.183 OA 
BRANCH  12  13
HETATM   13  C   UNL     1     -11.076   9.986  68.010  1.00  0.00    -0.201 A  
HETATM   14  C   UNL     1     -11.057   9.705  69.384  1.00  0.00    -0.170 A  
HETATM   15  C   UNL     1     -11.358  10.698  70.313  1.00  0.00    -0.401 A  
HETATM   16  C   UNL     1     -11.639  11.989  69.874  1.00  0.00    -0.315 A  
HETATM   17  C   UNL     1     -11.596  12.290  68.508  1.00  0.00    -0.359 A  
HETATM   18  C   UNL     1     -11.325  11.291  67.555  1.00  0.00    -0.360 A  
HETATM   19  C   UNL     1     -11.259  11.615  66.080  1.00  0.00    -0.314 C  
HETATM   20  C   UNL     1     -11.986  12.908  65.731  1.00  0.00    -0.496 C  
HETATM   21  C   UNL     1     -11.545  14.040  66.640  1.00  0.00    -0.400 C  
HETATM   22  C   UNL     1     -11.823  13.696  68.084  1.00  0.00    -0.372 C  
HETATM   23  O   UNL     1     -12.158  14.550  68.899  1.00  0.00    -0.301 OA 
ENDBRANCH  12  13
ENDBRANCH  11  12
ENDBRANCH   8  11
ENDBRANCH   7   8
ENDBRANCH   5   7
TORSDOF 5
ENDMDL
MODEL      226
REMARK 921   NORMALIZED FREE ENERGY PREDICTED BY IDOCK:   -3.64 KCAL/MOL
REMARK 922        TOTAL FREE ENERGY PREDICTED BY IDOCK:   -5.43 KCAL/MOL
REMARK 923 INTER-LIGAND FREE ENERGY PREDICTED BY IDOCK:   -4.17 KCAL/MOL
REMARK 924 INTRA-LIGAND FREE ENERGY PREDICTED BY IDOCK:   -1.26 KCAL/MOL
REMARK 927      BINDING AFFINITY PREDICTED BY RF-SCORE:    0.00 PKD
ROOT
HETATM    1  C   UNL     1      -7.511  10.076  62.936  1.00  0.00    -0.136 C  
HETATM    2  C   UNL     1      -7.930   9.956  64.412  1.00  0.00    -0.146 C  
HETATM    3  C   UNL     1      -6.665  10.114  65.280  1.00  0.00    -0.122 C  
HETATM    4  C   UNL     1      -8.531   8.569  64.685  1.00  0.00    -0.127 C  
HETATM    5  N   UNL     1      -8.856  11.040  64.807  1.00  0.00    -0.358 NA 
HETATM    6  H   UNL     1      -8.389  11.944  64.738  1.00  0.00     0.000 HD 
ENDROOT
BRANCH   5   7
HETATM    7  C   UNL     1     -10.130  11.072  64.074  1.00  0.00    -0.350 C  
BRANCH   7   8
HETATM    8  C   UNL     1     -11.277  11.797  64.809  1.00  0.00    -0.271 C  
HETATM    9  O   UNL     1     -11.263  13.176  64.409  1.00  0.00    -0.339 OA 
HETATM   10  H   UNL     1     -11.970  13.622  64.862  1.00  0.00     0.000 HD 
BRANCH   8  11
HETATM   11  C   UNL     1     -11.127  11.718  66.331  1.00  0.00    -0.307 C  
BRANCH  11  12
HETATM   12  O   UNL     1     -11.259  10.347  66.738  1.00  0.00    -0.102 OA 
BRANCH  12  13
HETATM   13  C   UNL     1     -10.291   9.931  67.620  1.00  0.00    -0.225 A  
HETATM   14  C   UNL     1      -9.460  10.825  68.310  1.00  0.00    -0.164 A  
HETATM   15  C   UNL     1      -8.453  10.352  69.148  1.00  0.00    -0.168 A  
HETATM   16  C   UNL     1      -8.301   8.981  69.334  1.00  0.00    -0.119 A  
HETATM   17  C   UNL     1      -9.168   8.086  68.698  1.00  0.00    -0.143 A  
HETATM   18  C   UNL     1     -10.170   8.546  67.824  1.00  0.00    -0.283 A  
HETATM   19  C   UNL     1     -11.121   7.585  67.150  1.00  0.00     0.045 C  
HETATM   20  C   UNL     1     -10.581   6.161  67.103  1.00  0.00    -0.374 C  
HETATM   21  C   UNL     1     -10.109   5.715  68.475  1.00  0.00    -0.236 C  
HETATM   22  C   UNL     1      -9.024   6.635  68.984  1.00  0.00    -0.130 C  
HETATM   23  O   UNL     1      -8.092   6.220  69.665  1.00  0.00    -0.115 OA 
ENDBRANCH  12  13
ENDBRANCH  11  12
ENDBRANCH   8  11
ENDBRANCH   7   8
ENDBRANCH   5   7
TORSDOF 5
ENDMDL
MODEL      227
REMARK 921   NORMALIZED FREE ENERGY PREDICTED BY IDOCK:   -3.63 KCAL/MOL
REMARK 922        TOTAL FREE ENERGY PREDICTED BY IDOCK:   -5.42 KCAL/MOL
REMARK 923 INTER-LIGAND FREE ENERGY PREDICTED BY IDOCK:   -4.88 KCAL/MOL
REMARK 924 INTRA-LIGAND FREE ENERGY PREDICTED BY IDOCK:   -0.55 KCAL/MOL
REMARK 927      BINDING AFFINITY PREDICTED BY RF-SCORE:    0.00 PKD
ROOT
HETATM    1  C   UNL     1     -10.657   4.012  64.900  1.00  0.00    -0.148 C  
HETATM    2  C   UNL     1      -9.446   4.193  63.968  1.00  0.00    -0.152 C  
HETATM    3  C   UNL     1      -9.946   4.090  62.512  1.00  0.00    -0.158 C  
HETATM    4  C   UNL     1      -8.419   3.075  64.204  1.00  0.00    -0.089 C  
HETATM    5  N   UNL     1      -8.838   5.533  64.116  1.00  0.00    -0.348 NA 
HETATM    6  H   UNL     1      -9.501   6.253  63.830  1.00  0.00     0.000 HD 
ENDROOT
BRANCH   5   7
HETATM    7  C   UNL     1      -8.309   5.835  65.454  1.00  0.00    -0.142 C  
BRANCH   7   8
HETATM    8  C   UNL     1      -8.106   7.338  65.742  1.00  0.00    -0.129 C  
HETATM    9  O   UNL     1      -6.983   7.476  66.627  1.00  0.00    -0.070 OA 
HETATM   10  H   UNL     1      -6.859   8.401  66.804  1.00  0.00     0.000 HD 
BRANCH   8  11
HETATM   11  C   UNL     1      -9.337   7.971  66.396  1.00  0.00    -0.200 C  
BRANCH  11  12
HETATM   12  O   UNL     1      -9.017   8.311  67.754  1.00  0.00    -0.136 OA 
BRANCH  12  13
HETATM   13  C   UNL     1      -9.860   7.751  68.683  1.00  0.00    -0.169 A  
HETATM   14  C   UNL     1      -9.931   6.369  68.907  1.00  0.00    -0.168 A  
HETATM   15  C   UNL     1     -10.845   5.845  69.818  1.00  0.00    -0.447 A  
HETATM   16  C   UNL     1     -11.665   6.706  70.541  1.00  0.00    -0.453 A  
HETATM   17  C   UNL     1     -11.555   8.091  70.369  1.00  0.00    -0.075 A  
HETATM   18  C   UNL     1     -10.658   8.633  69.430  1.00  0.00    -0.207 A  
HETATM   19  C   UNL     1     -10.522  10.128  69.254  1.00  0.00    -0.246 C  
HETATM   20  C   UNL     1     -11.735  10.893  69.769  1.00  0.00    -0.413 C  
HETATM   21  C   UNL     1     -12.090  10.459  71.179  1.00  0.00    -0.487 C  
HETATM   22  C   UNL     1     -12.390   8.980  71.216  1.00  0.00    -0.302 C  
HETATM   23  O   UNL     1     -13.244   8.512  71.964  1.00  0.00    -0.338 OA 
ENDBRANCH  12  13
ENDBRANCH  11  12
ENDBRANCH   8  11
ENDBRANCH   7   8
ENDBRANCH   5   7
TORSDOF 5
ENDMDL
MODEL      228
REMARK 921   NORMALIZED FREE ENERGY PREDICTED BY IDOCK:   -3.62 KCAL/MOL
REMARK 922        TOTAL FREE ENERGY PREDICTED BY IDOCK:   -5.41 KCAL/MOL
REMARK 923 INTER-LIGAND FREE ENERGY PREDICTED BY IDOCK:   -4.70 KCAL/MOL
REMARK 924 INTRA-LIGAND FREE ENERGY PREDICTED BY IDOCK:   -0.72 KCAL/MOL
REMARK 927      BINDING AFFINITY PREDICTED BY RF-SCORE:    0.00 PKD
ROOT
HETATM    1  C   UNL     1      -5.307  10.799  68.064  1.00  0.00    -0.036 C  
HETATM    2  C   UNL     1      -6.440  11.646  67.459  1.00  0.00    -0.087 C  
HETATM    3  C   UNL     1      -5.940  13.102  67.353  1.00  0.00    -0.009 C  
HETATM    4  C   UNL     1      -7.671  11.626  68.378  1.00  0.00    -0.130 C  
HETATM    5  N   UNL     1      -6.776  11.209  66.087  1.00  0.00    -0.333 NA 
HETATM    6  H   UNL     1      -5.979  11.354  65.467  1.00  0.00     0.000 HD 
ENDROOT
BRANCH   5   7
HETATM    7  C   UNL     1      -7.262   9.826  65.972  1.00  0.00    -0.101 C  
BRANCH   7   8
HETATM    8  C   UNL     1      -8.535   9.661  65.115  1.00  0.00    -0.150 C  
HETATM    9  O   UNL     1      -8.137   9.263  63.794  1.00  0.00    -0.137 OA 
HETATM   10  H   UNL     1      -8.921   9.161  63.267  1.00  0.00     0.000 HD 
BRANCH   8  11
HETATM   11  C   UNL     1      -9.340  10.960  65.023  1.00  0.00    -0.226 C  
BRANCH  11  12
HETATM   12  O   UNL     1     -10.702  10.688  65.391  1.00  0.00    -0.171 OA 
BRANCH  12  13
HETATM   13  C   UNL     1     -11.055  11.181  66.625  1.00  0.00    -0.189 A  
HETATM   14  C   UNL     1     -11.503  12.495  66.817  1.00  0.00    -0.422 A  
HETATM   15  C   UNL     1     -11.792  12.965  68.095  1.00  0.00    -0.380 A  
HETATM   16  C   UNL     1     -11.675  12.108  69.186  1.00  0.00    -0.384 A  
HETATM   17  C   UNL     1     -11.290  10.776  68.993  1.00  0.00    -0.349 A  
HETATM   18  C   UNL     1     -10.964  10.295  67.712  1.00  0.00    -0.360 A  
HETATM   19  C   UNL     1     -10.566   8.854  67.496  1.00  0.00    -0.307 C  
HETATM   20  C   UNL     1     -10.078   8.182  68.774  1.00  0.00    -0.211 C  
HETATM   21  C   UNL     1     -11.064   8.396  69.908  1.00  0.00    -0.109 C  
HETATM   22  C   UNL     1     -11.254   9.871  70.171  1.00  0.00    -0.289 C  
HETATM   23  O   UNL     1     -11.439  10.308  71.303  1.00  0.00    -0.318 OA 
ENDBRANCH  12  13
ENDBRANCH  11  12
ENDBRANCH   8  11
ENDBRANCH   7   8
ENDBRANCH   5   7
TORSDOF 5
ENDMDL
MODEL      229
REMARK 921   NORMALIZED FREE ENERGY PREDICTED BY IDOCK:   -3.61 KCAL/MOL
REMARK 922        TOTAL FREE ENERGY PREDICTED BY IDOCK:   -5.40 KCAL/MOL
REMARK 923 INTER-LIGAND FREE ENERGY PREDICTED BY IDOCK:   -4.83 KCAL/MOL
REMARK 924 INTRA-LIGAND FREE ENERGY PREDICTED BY IDOCK:   -0.57 KCAL/MOL
REMARK 927      BINDING AFFINITY PREDICTED BY RF-SCORE:    0.00 PKD
ROOT
HETATM    1  C   UNL     1     -11.019  15.262  64.623  1.00  0.00    -0.322 C  
HETATM    2  C   UNL     1     -11.081  13.804  65.113  1.00  0.00    -0.328 C  
HETATM    3  C   UNL     1     -11.330  12.900  63.888  1.00  0.00    -0.489 C  
HETATM    4  C   UNL     1     -12.249  13.619  66.093  1.00  0.00    -0.490 C  
HETATM    5  N   UNL     1      -9.797  13.372  65.707  1.00  0.00    -0.428 NA 
HETATM    6  H   UNL     1      -9.062  13.382  65.000  1.00  0.00     0.000 HD 
ENDROOT
BRANCH   5   7
HETATM    7  C   UNL     1      -9.369  14.131  66.892  1.00  0.00    -0.264 C  
BRANCH   7   8
HETATM    8  C   UNL     1      -9.004  13.263  68.114  1.00  0.00    -0.195 C  
HETATM    9  O   UNL     1      -7.633  12.856  67.980  1.00  0.00    -0.111 OA 
HETATM   10  H   UNL     1      -7.409  12.321  68.733  1.00  0.00     0.000 HD 
BRANCH   8  11
HETATM   11  C   UNL     1      -9.886  12.015  68.219  1.00  0.00    -0.204 C  
BRANCH  11  12
HETATM   12  O   UNL     1      -9.102  10.937  68.754  1.00  0.00    -0.169 OA 
BRANCH  12  13
HETATM   13  C   UNL     1      -9.120   9.799  67.984  1.00  0.00    -0.125 A  
HETATM   14  C   UNL     1      -8.943   9.821  66.594  1.00  0.00    -0.161 A  
HETATM   15  C   UNL     1      -9.030   8.646  65.851  1.00  0.00    -0.245 A  
HETATM   16  C   UNL     1      -9.253   7.436  66.500  1.00  0.00    -0.206 A  
HETATM   17  C   UNL     1      -9.368   7.399  67.895  1.00  0.00    -0.138 A  
HETATM   18  C   UNL     1      -9.314   8.581  68.656  1.00  0.00    -0.142 A  
HETATM   19  C   UNL     1      -9.418   8.544  70.164  1.00  0.00    -0.169 C  
HETATM   20  C   UNL     1     -10.070   7.265  70.676  1.00  0.00    -0.198 C  
HETATM   21  C   UNL     1      -9.414   6.041  70.064  1.00  0.00    -0.180 C  
HETATM   22  C   UNL     1      -9.526   6.079  68.559  1.00  0.00    -0.120 C  
HETATM   23  O   UNL     1      -9.674   5.058  67.895  1.00  0.00    -0.140 OA 
ENDBRANCH  12  13
ENDBRANCH  11  12
ENDBRANCH   8  11
ENDBRANCH   7   8
ENDBRANCH   5   7
TORSDOF 5
ENDMDL
MODEL      230
REMARK 921   NORMALIZED FREE ENERGY PREDICTED BY IDOCK:   -3.61 KCAL/MOL
REMARK 922        TOTAL FREE ENERGY PREDICTED BY IDOCK:   -5.40 KCAL/MOL
REMARK 923 INTER-LIGAND FREE ENERGY PREDICTED BY IDOCK:   -4.46 KCAL/MOL
REMARK 924 INTRA-LIGAND FREE ENERGY PREDICTED BY IDOCK:   -0.94 KCAL/MOL
REMARK 927      BINDING AFFINITY PREDICTED BY RF-SCORE:    0.00 PKD
ROOT
HETATM    1  C   UNL     1     -10.398  16.706  67.576  1.00  0.00    -0.294 C  
HETATM    2  C   UNL     1      -9.990  15.497  66.715  1.00  0.00    -0.249 C  
HETATM    3  C   UNL     1      -8.465  15.564  66.493  1.00  0.00    -0.283 C  
HETATM    4  C   UNL     1     -10.680  15.560  65.344  1.00  0.00    -0.422 C  
HETATM    5  N   UNL     1     -10.264  14.217  67.406  1.00  0.00    -0.247 NA 
HETATM    6  H   UNL     1      -9.696  14.145  68.249  1.00  0.00     0.000 HD 
ENDROOT
BRANCH   5   7
HETATM    7  C   UNL     1     -11.678  13.969  67.725  1.00  0.00    -0.368 C  
BRANCH   7   8
HETATM    8  C   UNL     1     -11.925  13.357  69.119  1.00  0.00    -0.317 C  
HETATM    9  O   UNL     1     -11.114  14.065  70.069  1.00  0.00    -0.467 OA 
HETATM   10  H   UNL     1     -11.266  13.687  70.927  1.00  0.00     0.000 HD 
BRANCH   8  11
HETATM   11  C   UNL     1     -11.565  11.869  69.167  1.00  0.00    -0.312 C  
BRANCH  11  12
HETATM   12  O   UNL     1     -10.229  11.700  68.668  1.00  0.00    -0.209 OA 
BRANCH  12  13
HETATM   13  C   UNL     1     -10.077  10.618  67.833  1.00  0.00    -0.168 A  
HETATM   14  C   UNL     1     -11.084   9.662  67.641  1.00  0.00    -0.061 A  
HETATM   15  C   UNL     1     -10.861   8.551  66.832  1.00  0.00     0.030 A  
HETATM   16  C   UNL     1      -9.641   8.413  66.176  1.00  0.00    -0.246 A  
HETATM   17  C   UNL     1      -8.655   9.396  66.313  1.00  0.00    -0.142 A  
HETATM   18  C   UNL     1      -8.854  10.508  67.152  1.00  0.00    -0.140 A  
HETATM   19  C   UNL     1      -7.800  11.582  67.288  1.00  0.00    -0.153 C  
HETATM   20  C   UNL     1      -6.413  11.100  66.879  1.00  0.00    -0.117 C  
HETATM   21  C   UNL     1      -6.454  10.432  65.516  1.00  0.00    -0.126 C  
HETATM   22  C   UNL     1      -7.398   9.254  65.534  1.00  0.00    -0.090 C  
HETATM   23  O   UNL     1      -7.178   8.239  64.880  1.00  0.00    -0.077 OA 
ENDBRANCH  12  13
ENDBRANCH  11  12
ENDBRANCH   8  11
ENDBRANCH   7   8
ENDBRANCH   5   7
TORSDOF 5
ENDMDL
MODEL      231
REMARK 921   NORMALIZED FREE ENERGY PREDICTED BY IDOCK:   -3.60 KCAL/MOL
REMARK 922        TOTAL FREE ENERGY PREDICTED BY IDOCK:   -5.39 KCAL/MOL
REMARK 923 INTER-LIGAND FREE ENERGY PREDICTED BY IDOCK:   -4.96 KCAL/MOL
REMARK 924 INTRA-LIGAND FREE ENERGY PREDICTED BY IDOCK:   -0.43 KCAL/MOL
REMARK 927      BINDING AFFINITY PREDICTED BY RF-SCORE:    0.00 PKD
ROOT
HETATM    1  C   UNL     1      -7.783  10.326  65.166  1.00  0.00    -0.136 C  
HETATM    2  C   UNL     1      -8.982   9.710  64.423  1.00  0.00    -0.234 C  
HETATM    3  C   UNL     1      -8.647   9.685  62.917  1.00  0.00    -0.202 C  
HETATM    4  C   UNL     1     -10.235  10.576  64.623  1.00  0.00    -0.364 C  
HETATM    5  N   UNL     1      -9.216   8.308  64.832  1.00  0.00    -0.176 NA 
HETATM    6  H   UNL     1      -8.419   7.728  64.571  1.00  0.00     0.000 HD 
ENDROOT
BRANCH   5   7
HETATM    7  C   UNL     1      -9.538   8.116  66.253  1.00  0.00    -0.178 C  
BRANCH   7   8
HETATM    8  C   UNL     1      -8.362   7.618  67.119  1.00  0.00    -0.121 C  
HETATM    9  O   UNL     1      -8.752   6.382  67.736  1.00  0.00    -0.116 OA 
HETATM   10  H   UNL     1      -8.027   6.076  68.269  1.00  0.00     0.000 HD 
BRANCH   8  11
HETATM   11  C   UNL     1      -7.984   8.624  68.210  1.00  0.00    -0.110 C  
BRANCH  11  12
HETATM   12  O   UNL     1      -8.583   8.209  69.448  1.00  0.00    -0.132 OA 
BRANCH  12  13
HETATM   13  C   UNL     1      -9.672   8.961  69.820  1.00  0.00    -0.175 A  
HETATM   14  C   UNL     1      -9.866  10.280  69.388  1.00  0.00    -0.247 A  
HETATM   15  C   UNL     1     -10.955  11.020  69.841  1.00  0.00    -0.218 A  
HETATM   16  C   UNL     1     -11.880  10.429  70.697  1.00  0.00    -0.445 A  
HETATM   17  C   UNL     1     -11.726   9.092  71.082  1.00  0.00    -0.380 A  
HETATM   18  C   UNL     1     -10.614   8.341  70.658  1.00  0.00    -0.235 A  
HETATM   19  C   UNL     1     -10.453   6.892  71.055  1.00  0.00    -0.235 C  
HETATM   20  C   UNL     1     -11.268   6.528  72.291  1.00  0.00    -0.308 C  
HETATM   21  C   UNL     1     -12.709   6.979  72.140  1.00  0.00    -0.123 C  
HETATM   22  C   UNL     1     -12.776   8.473  71.932  1.00  0.00    -0.360 C  
HETATM   23  O   UNL     1     -13.693   9.149  72.386  1.00  0.00    -0.464 OA 
ENDBRANCH  12  13
ENDBRANCH  11  12
ENDBRANCH   8  11
ENDBRANCH   7   8
ENDBRANCH   5   7
TORSDOF 5
ENDMDL
MODEL      232
REMARK 921   NORMALIZED FREE ENERGY PREDICTED BY IDOCK:   -3.60 KCAL/MOL
REMARK 922        TOTAL FREE ENERGY PREDICTED BY IDOCK:   -5.38 KCAL/MOL
REMARK 923 INTER-LIGAND FREE ENERGY PREDICTED BY IDOCK:   -5.00 KCAL/MOL
REMARK 924 INTRA-LIGAND FREE ENERGY PREDICTED BY IDOCK:   -0.38 KCAL/MOL
REMARK 927      BINDING AFFINITY PREDICTED BY RF-SCORE:    0.00 PKD
ROOT
HETATM    1  C   UNL     1      -7.283   8.843  67.309  1.00  0.00    -0.083 C  
HETATM    2  C   UNL     1      -8.815   8.826  67.450  1.00  0.00    -0.133 C  
HETATM    3  C   UNL     1      -9.154   8.508  68.922  1.00  0.00    -0.146 C  
HETATM    4  C   UNL     1      -9.420   7.724  66.569  1.00  0.00    -0.262 C  
HETATM    5  N   UNL     1      -9.407  10.149  67.153  1.00  0.00    -0.152 NA 
HETATM    6  H   UNL     1      -9.087  10.838  67.834  1.00  0.00     0.000 HD 
ENDROOT
BRANCH   5   7
HETATM    7  C   UNL     1      -9.178  10.643  65.787  1.00  0.00    -0.189 C  
BRANCH   7   8
HETATM    8  C   UNL     1     -10.402  11.320  65.135  1.00  0.00    -0.295 C  
HETATM    9  O   UNL     1     -10.606  10.728  63.843  1.00  0.00    -0.499 OA 
HETATM   10  H   UNL     1     -11.359  11.145  63.442  1.00  0.00     0.000 HD 
BRANCH   8  11
HETATM   11  C   UNL     1     -10.203  12.829  64.966  1.00  0.00    -0.272 C  
BRANCH  11  12
HETATM   12  O   UNL     1     -11.242  13.516  65.682  1.00  0.00    -0.293 OA 
BRANCH  12  13
HETATM   13  C   UNL     1     -10.820  14.103  66.851  1.00  0.00    -0.296 A  
HETATM   14  C   UNL     1     -10.705  13.395  68.056  1.00  0.00    -0.261 A  
HETATM   15  C   UNL     1     -10.330  14.049  69.227  1.00  0.00     0.018 A  
HETATM   16  C   UNL     1     -10.027  15.407  69.190  1.00  0.00    -0.241 A  
HETATM   17  C   UNL     1     -10.078  16.105  67.978  1.00  0.00    -0.242 A  
HETATM   18  C   UNL     1     -10.485  15.466  66.793  1.00  0.00    -0.299 A  
HETATM   19  C   UNL     1     -10.524  16.210  65.478  1.00  0.00    -0.407 C  
HETATM   20  C   UNL     1     -10.589  17.722  65.661  1.00  0.00    -0.123 C  
HETATM   21  C   UNL     1      -9.511  18.198  66.619  1.00  0.00    -0.303 C  
HETATM   22  C   UNL     1      -9.671  17.533  67.965  1.00  0.00    -0.287 C  
HETATM   23  O   UNL     1      -9.411  18.121  69.010  1.00  0.00    -0.233 OA 
ENDBRANCH  12  13
ENDBRANCH  11  12
ENDBRANCH   8  11
ENDBRANCH   7   8
ENDBRANCH   5   7
TORSDOF 5
ENDMDL
MODEL      233
REMARK 921   NORMALIZED FREE ENERGY PREDICTED BY IDOCK:   -3.59 KCAL/MOL
REMARK 922        TOTAL FREE ENERGY PREDICTED BY IDOCK:   -5.37 KCAL/MOL
REMARK 923 INTER-LIGAND FREE ENERGY PREDICTED BY IDOCK:   -4.04 KCAL/MOL
REMARK 924 INTRA-LIGAND FREE ENERGY PREDICTED BY IDOCK:   -1.33 KCAL/MOL
REMARK 927      BINDING AFFINITY PREDICTED BY RF-SCORE:    0.00 PKD
ROOT
HETATM    1  C   UNL     1      -7.777   9.745  65.498  1.00  0.00    -0.121 C  
HETATM    2  C   UNL     1      -9.246  10.074  65.815  1.00  0.00    -0.176 C  
HETATM    3  C   UNL     1      -9.981   8.748  66.101  1.00  0.00    -0.244 C  
HETATM    4  C   UNL     1      -9.916  10.744  64.606  1.00  0.00    -0.386 C  
HETATM    5  N   UNL     1      -9.370  10.901  67.036  1.00  0.00    -0.163 NA 
HETATM    6  H   UNL     1      -9.035  10.382  67.847  1.00  0.00     0.000 HD 
ENDROOT
BRANCH   5   7
HETATM    7  C   UNL     1      -8.714  12.215  66.970  1.00  0.00    -0.190 C  
BRANCH   7   8
HETATM    8  C   UNL     1      -7.924  12.604  68.237  1.00  0.00    -0.153 C  
HETATM    9  O   UNL     1      -7.067  13.708  67.907  1.00  0.00    -0.113 OA 
HETATM   10  H   UNL     1      -6.580  13.947  68.688  1.00  0.00     0.000 HD 
BRANCH   8  11
HETATM   11  C   UNL     1      -7.069  11.447  68.760  1.00  0.00    -0.102 C  
BRANCH  11  12
HETATM   12  O   UNL     1      -7.775  10.795  69.827  1.00  0.00    -0.087 OA 
BRANCH  12  13
HETATM   13  C   UNL     1      -8.051   9.470  69.587  1.00  0.00    -0.128 A  
HETATM   14  C   UNL     1      -7.122   8.596  69.005  1.00  0.00    -0.065 A  
HETATM   15  C   UNL     1      -7.470   7.277  68.727  1.00  0.00    -0.102 A  
HETATM   16  C   UNL     1      -8.738   6.813  69.067  1.00  0.00    -0.130 A  
HETATM   17  C   UNL     1      -9.648   7.664  69.706  1.00  0.00    -0.163 A  
HETATM   18  C   UNL     1      -9.322   9.007  69.966  1.00  0.00    -0.198 A  
HETATM   19  C   UNL     1     -10.294   9.924  70.672  1.00  0.00    -0.258 C  
HETATM   20  C   UNL     1     -11.733   9.428  70.592  1.00  0.00    -0.302 C  
HETATM   21  C   UNL     1     -11.827   7.972  71.012  1.00  0.00    -0.280 C  
HETATM   22  C   UNL     1     -10.961   7.110  70.125  1.00  0.00    -0.267 C  
HETATM   23  O   UNL     1     -11.289   5.970  69.813  1.00  0.00    -0.409 OA 
ENDBRANCH  12  13
ENDBRANCH  11  12
ENDBRANCH   8  11
ENDBRANCH   7   8
ENDBRANCH   5   7
TORSDOF 5
ENDMDL
MODEL      234
REMARK 921   NORMALIZED FREE ENERGY PREDICTED BY IDOCK:   -3.56 KCAL/MOL
REMARK 922        TOTAL FREE ENERGY PREDICTED BY IDOCK:   -5.34 KCAL/MOL
REMARK 923 INTER-LIGAND FREE ENERGY PREDICTED BY IDOCK:   -4.84 KCAL/MOL
REMARK 924 INTRA-LIGAND FREE ENERGY PREDICTED BY IDOCK:   -0.50 KCAL/MOL
REMARK 927      BINDING AFFINITY PREDICTED BY RF-SCORE:    0.00 PKD
ROOT
HETATM    1  C   UNL     1      -8.562  19.532  66.411  1.00  0.00    -0.384 C  
HETATM    2  C   UNL     1      -8.476  19.428  67.944  1.00  0.00    -0.313 C  
HETATM    3  C   UNL     1      -9.803  19.951  68.531  1.00  0.00    -0.463 C  
HETATM    4  C   UNL     1      -7.334  20.307  68.475  1.00  0.00    -0.120 C  
HETATM    5  N   UNL     1      -8.337  18.024  68.390  1.00  0.00    -0.293 NA 
HETATM    6  H   UNL     1      -9.168  17.491  68.136  1.00  0.00     0.000 HD 
ENDROOT
BRANCH   5   7
HETATM    7  C   UNL     1      -7.128  17.334  67.915  1.00  0.00    -0.167 C  
BRANCH   7   8
HETATM    8  C   UNL     1      -6.462  16.413  68.958  1.00  0.00    -0.171 C  
HETATM    9  O   UNL     1      -5.176  16.020  68.453  1.00  0.00    -0.094 OA 
HETATM   10  H   UNL     1      -4.767  15.452  69.095  1.00  0.00     0.000 HD 
BRANCH   8  11
HETATM   11  C   UNL     1      -7.294  15.157  69.233  1.00  0.00    -0.188 C  
BRANCH  11  12
HETATM   12  O   UNL     1      -7.465  14.437  68.002  1.00  0.00    -0.113 OA 
BRANCH  12  13
HETATM   13  C   UNL     1      -8.759  14.038  67.763  1.00  0.00    -0.185 A  
HETATM   14  C   UNL     1      -9.740  14.905  67.264  1.00  0.00    -0.228 A  
HETATM   15  C   UNL     1     -11.051  14.469  67.096  1.00  0.00    -0.325 A  
HETATM   16  C   UNL     1     -11.379  13.148  67.388  1.00  0.00    -0.344 A  
HETATM   17  C   UNL     1     -10.391  12.260  67.827  1.00  0.00    -0.216 A  
HETATM   18  C   UNL     1      -9.068  12.694  68.031  1.00  0.00    -0.207 A  
HETATM   19  C   UNL     1      -7.993  11.735  68.486  1.00  0.00    -0.145 C  
HETATM   20  C   UNL     1      -8.563  10.490  69.157  1.00  0.00    -0.157 C  
HETATM   21  C   UNL     1      -9.642   9.858  68.297  1.00  0.00    -0.151 C  
HETATM   22  C   UNL     1     -10.763  10.840  68.052  1.00  0.00    -0.228 C  
HETATM   23  O   UNL     1     -11.932  10.478  67.972  1.00  0.00    -0.350 OA 
ENDBRANCH  12  13
ENDBRANCH  11  12
ENDBRANCH   8  11
ENDBRANCH   7   8
ENDBRANCH   5   7
TORSDOF 5
ENDMDL
MODEL      235
REMARK 921   NORMALIZED FREE ENERGY PREDICTED BY IDOCK:   -3.56 KCAL/MOL
REMARK 922        TOTAL FREE ENERGY PREDICTED BY IDOCK:   -5.34 KCAL/MOL
REMARK 923 INTER-LIGAND FREE ENERGY PREDICTED BY IDOCK:   -4.75 KCAL/MOL
REMARK 924 INTRA-LIGAND FREE ENERGY PREDICTED BY IDOCK:   -0.58 KCAL/MOL
REMARK 927      BINDING AFFINITY PREDICTED BY RF-SCORE:    0.00 PKD
ROOT
HETATM    1  C   UNL     1      -9.117   7.557  72.822  1.00  0.00    -0.200 C  
HETATM    2  C   UNL     1     -10.338   6.627  72.946  1.00  0.00    -0.213 C  
HETATM    3  C   UNL     1     -10.383   6.093  74.393  1.00  0.00    -0.280 C  
HETATM    4  C   UNL     1     -10.196   5.429  71.996  1.00  0.00    -0.256 C  
HETATM    5  N   UNL     1     -11.605   7.356  72.721  1.00  0.00    -0.546 NA 
HETATM    6  H   UNL     1     -11.737   8.063  73.444  1.00  0.00     0.000 HD 
ENDROOT
BRANCH   5   7
HETATM    7  C   UNL     1     -11.751   7.961  71.389  1.00  0.00    -0.281 C  
BRANCH   7   8
HETATM    8  C   UNL     1     -12.304   9.401  71.393  1.00  0.00    -0.357 C  
HETATM    9  O   UNL     1     -13.712   9.341  71.119  1.00  0.00    -0.547 OA 
HETATM   10  H   UNL     1     -14.052  10.228  71.121  1.00  0.00     0.000 HD 
BRANCH   8  11
HETATM   11  C   UNL     1     -11.627  10.281  70.338  1.00  0.00    -0.328 C  
BRANCH  11  12
HETATM   12  O   UNL     1     -10.235   9.935  70.270  1.00  0.00    -0.267 OA 
BRANCH  12  13
HETATM   13  C   UNL     1      -9.842   9.437  69.051  1.00  0.00    -0.169 A  
HETATM   14  C   UNL     1     -10.684   9.424  67.931  1.00  0.00    -0.269 A  
HETATM   15  C   UNL     1     -10.260   8.854  66.733  1.00  0.00    -0.348 A  
HETATM   16  C   UNL     1      -8.974   8.330  66.638  1.00  0.00    -0.179 A  
HETATM   17  C   UNL     1      -8.106   8.398  67.734  1.00  0.00    -0.122 A  
HETATM   18  C   UNL     1      -8.531   8.943  68.960  1.00  0.00    -0.133 A  
HETATM   19  C   UNL     1      -7.592   9.035  70.140  1.00  0.00    -0.082 C  
HETATM   20  C   UNL     1      -6.416   8.070  70.032  1.00  0.00    -0.033 C  
HETATM   21  C   UNL     1      -5.737   8.194  68.681  1.00  0.00    -0.036 C  
HETATM   22  C   UNL     1      -6.716   7.901  67.569  1.00  0.00    -0.069 C  
HETATM   23  O   UNL     1      -6.371   7.335  66.537  1.00  0.00    -0.041 OA 
ENDBRANCH  12  13
ENDBRANCH  11  12
ENDBRANCH   8  11
ENDBRANCH   7   8
ENDBRANCH   5   7
TORSDOF 5
ENDMDL
MODEL      236
REMARK 921   NORMALIZED FREE ENERGY PREDICTED BY IDOCK:   -3.56 KCAL/MOL
REMARK 922        TOTAL FREE ENERGY PREDICTED BY IDOCK:   -5.34 KCAL/MOL
REMARK 923 INTER-LIGAND FREE ENERGY PREDICTED BY IDOCK:   -4.94 KCAL/MOL
REMARK 924 INTRA-LIGAND FREE ENERGY PREDICTED BY IDOCK:   -0.40 KCAL/MOL
REMARK 927      BINDING AFFINITY PREDICTED BY RF-SCORE:    0.00 PKD
ROOT
HETATM    1  C   UNL     1      -8.251   4.525  72.777  1.00  0.00    -0.099 C  
HETATM    2  C   UNL     1      -7.463   4.605  71.457  1.00  0.00    -0.073 C  
HETATM    3  C   UNL     1      -7.030   3.174  71.075  1.00  0.00    -0.033 C  
HETATM    4  C   UNL     1      -6.199   5.458  71.640  1.00  0.00    -0.034 C  
HETATM    5  N   UNL     1      -8.304   5.106  70.348  1.00  0.00    -0.103 NA 
HETATM    6  H   UNL     1      -9.066   4.453  70.162  1.00  0.00     0.000 HD 
ENDROOT
BRANCH   5   7
HETATM    7  C   UNL     1      -8.835   6.465  70.530  1.00  0.00    -0.144 C  
BRANCH   7   8
HETATM    8  C   UNL     1     -10.375   6.559  70.534  1.00  0.00    -0.201 C  
HETATM    9  O   UNL     1     -10.902   5.287  70.124  1.00  0.00    -0.240 OA 
HETATM   10  H   UNL     1     -11.850   5.346  70.127  1.00  0.00     0.000 HD 
BRANCH   8  11
HETATM   11  C   UNL     1     -10.889   7.642  69.582  1.00  0.00    -0.191 C  
BRANCH  11  12
HETATM   12  O   UNL     1     -10.276   8.894  69.930  1.00  0.00    -0.189 OA 
BRANCH  12  13
HETATM   13  C   UNL     1     -11.152   9.822  70.439  1.00  0.00    -0.307 A  
HETATM   14  C   UNL     1     -12.057   9.526  71.468  1.00  0.00    -0.468 A  
HETATM   15  C   UNL     1     -12.966  10.485  71.908  1.00  0.00    -0.553 A  
HETATM   16  C   UNL     1     -12.946  11.759  71.349  1.00  0.00    -0.408 A  
HETATM   17  C   UNL     1     -12.003  12.080  70.366  1.00  0.00    -0.379 A  
HETATM   18  C   UNL     1     -11.098  11.113  69.889  1.00  0.00    -0.234 A  
HETATM   19  C   UNL     1     -10.065  11.460  68.842  1.00  0.00    -0.166 C  
HETATM   20  C   UNL     1     -10.433  12.706  68.045  1.00  0.00    -0.232 C  
HETATM   21  C   UNL     1     -10.794  13.853  68.971  1.00  0.00    -0.253 C  
HETATM   22  C   UNL     1     -11.960  13.473  69.852  1.00  0.00    -0.348 C  
HETATM   23  O   UNL     1     -12.809  14.292  70.190  1.00  0.00    -0.281 OA 
ENDBRANCH  12  13
ENDBRANCH  11  12
ENDBRANCH   8  11
ENDBRANCH   7   8
ENDBRANCH   5   7
TORSDOF 5
ENDMDL
MODEL      237
REMARK 921   NORMALIZED FREE ENERGY PREDICTED BY IDOCK:   -3.56 KCAL/MOL
REMARK 922        TOTAL FREE ENERGY PREDICTED BY IDOCK:   -5.33 KCAL/MOL
REMARK 923 INTER-LIGAND FREE ENERGY PREDICTED BY IDOCK:   -5.23 KCAL/MOL
REMARK 924 INTRA-LIGAND FREE ENERGY PREDICTED BY IDOCK:   -0.10 KCAL/MOL
REMARK 927      BINDING AFFINITY PREDICTED BY RF-SCORE:    0.00 PKD
ROOT
HETATM    1  C   UNL     1      -7.381   7.489  65.906  1.00  0.00    -0.074 C  
HETATM    2  C   UNL     1      -8.784   8.063  66.172  1.00  0.00    -0.154 C  
HETATM    3  C   UNL     1      -9.806   6.920  65.995  1.00  0.00     0.245 C  
HETATM    4  C   UNL     1      -9.113   9.163  65.152  1.00  0.00    -0.234 C  
HETATM    5  N   UNL     1      -8.923   8.548  67.562  1.00  0.00    -0.134 NA 
HETATM    6  H   UNL     1      -8.827   7.771  68.216  1.00  0.00     0.000 HD 
ENDROOT
BRANCH   5   7
HETATM    7  C   UNL     1      -8.013   9.640  67.937  1.00  0.00    -0.098 C  
BRANCH   7   8
HETATM    8  C   UNL     1      -8.616  10.676  68.909  1.00  0.00    -0.158 C  
HETATM    9  O   UNL     1      -7.569  11.140  69.775  1.00  0.00    -0.361 OA 
HETATM   10  H   UNL     1      -7.942  11.777  70.373  1.00  0.00     0.000 HD 
BRANCH   8  11
HETATM   11  C   UNL     1      -9.741  10.079  69.760  1.00  0.00    -0.226 C  
BRANCH  11  12
HETATM   12  O   UNL     1     -11.002  10.401  69.153  1.00  0.00    -0.214 OA 
BRANCH  12  13
HETATM   13  C   UNL     1     -11.198  11.746  68.952  1.00  0.00    -0.253 A  
HETATM   14  C   UNL     1     -10.688  12.428  67.838  1.00  0.00    -0.245 A  
HETATM   15  C   UNL     1     -10.862  13.804  67.710  1.00  0.00    -0.262 A  
HETATM   16  C   UNL     1     -11.585  14.498  68.675  1.00  0.00    -0.346 A  
HETATM   17  C   UNL     1     -12.151  13.813  69.756  1.00  0.00    -0.400 A  
HETATM   18  C   UNL     1     -11.957  12.429  69.916  1.00  0.00    -0.369 A  
HETATM   19  C   UNL     1     -12.582  11.681  71.071  1.00  0.00    -0.431 C  
HETATM   20  C   UNL     1     -12.957  12.598  72.230  1.00  0.00    -0.246 C  
HETATM   21  C   UNL     1     -13.768  13.783  71.741  1.00  0.00    -0.435 C  
HETATM   22  C   UNL     1     -12.983  14.576  70.723  1.00  0.00    -0.343 C  
HETATM   23  O   UNL     1     -13.073  15.797  70.645  1.00  0.00    -0.497 OA 
ENDBRANCH  12  13
ENDBRANCH  11  12
ENDBRANCH   8  11
ENDBRANCH   7   8
ENDBRANCH   5   7
TORSDOF 5
ENDMDL
MODEL      238
REMARK 921   NORMALIZED FREE ENERGY PREDICTED BY IDOCK:   -3.55 KCAL/MOL
REMARK 922        TOTAL FREE ENERGY PREDICTED BY IDOCK:   -5.32 KCAL/MOL
REMARK 923 INTER-LIGAND FREE ENERGY PREDICTED BY IDOCK:   -4.94 KCAL/MOL
REMARK 924 INTRA-LIGAND FREE ENERGY PREDICTED BY IDOCK:   -0.38 KCAL/MOL
REMARK 927      BINDING AFFINITY PREDICTED BY RF-SCORE:    0.00 PKD
ROOT
HETATM    1  C   UNL     1      -9.847   3.908  65.202  1.00  0.00    -0.184 C  
HETATM    2  C   UNL     1      -8.689   4.830  64.779  1.00  0.00    -0.153 C  
HETATM    3  C   UNL     1      -8.619   4.828  63.237  1.00  0.00    -0.127 C  
HETATM    4  C   UNL     1      -7.355   4.295  65.321  1.00  0.00    -0.072 C  
HETATM    5  N   UNL     1      -8.925   6.230  65.193  1.00  0.00    -0.362 NA 
HETATM    6  H   UNL     1      -9.746   6.603  64.718  1.00  0.00     0.000 HD 
ENDROOT
BRANCH   5   7
HETATM    7  C   UNL     1      -9.039   6.441  66.644  1.00  0.00    -0.146 C  
BRANCH   7   8
HETATM    8  C   UNL     1      -9.731   7.760  67.049  1.00  0.00    -0.197 C  
HETATM    9  O   UNL     1     -11.152   7.550  67.008  1.00  0.00    -0.506 OA 
HETATM   10  H   UNL     1     -11.577   8.362  67.257  1.00  0.00     0.000 HD 
BRANCH   8  11
HETATM   11  C   UNL     1      -9.369   8.913  66.110  1.00  0.00    -0.239 C  
BRANCH  11  12
HETATM   12  O   UNL     1     -10.167  10.058  66.453  1.00  0.00    -0.236 OA 
BRANCH  12  13
HETATM   13  C   UNL     1      -9.432  11.175  66.768  1.00  0.00    -0.184 A  
HETATM   14  C   UNL     1      -8.055  11.129  67.026  1.00  0.00    -0.148 A  
HETATM   15  C   UNL     1      -7.366  12.280  67.401  1.00  0.00    -0.151 A  
HETATM   16  C   UNL     1      -8.044  13.492  67.479  1.00  0.00    -0.190 A  
HETATM   17  C   UNL     1      -9.406  13.557  67.161  1.00  0.00    -0.240 A  
HETATM   18  C   UNL     1     -10.122  12.398  66.811  1.00  0.00    -0.226 A  
HETATM   19  C   UNL     1     -11.588  12.465  66.449  1.00  0.00    -0.442 C  
HETATM   20  C   UNL     1     -12.267  13.722  66.981  1.00  0.00    -0.381 C  
HETATM   21  C   UNL     1     -11.473  14.962  66.612  1.00  0.00    -0.297 C  
HETATM   22  C   UNL     1     -10.076  14.882  67.179  1.00  0.00    -0.240 C  
HETATM   23  O   UNL     1      -9.483  15.879  67.579  1.00  0.00    -0.217 OA 
ENDBRANCH  12  13
ENDBRANCH  11  12
ENDBRANCH   8  11
ENDBRANCH   7   8
ENDBRANCH   5   7
TORSDOF 5
ENDMDL
MODEL      239
REMARK 921   NORMALIZED FREE ENERGY PREDICTED BY IDOCK:   -3.55 KCAL/MOL
REMARK 922        TOTAL FREE ENERGY PREDICTED BY IDOCK:   -5.32 KCAL/MOL
REMARK 923 INTER-LIGAND FREE ENERGY PREDICTED BY IDOCK:   -4.67 KCAL/MOL
REMARK 924 INTRA-LIGAND FREE ENERGY PREDICTED BY IDOCK:   -0.65 KCAL/MOL
REMARK 927      BINDING AFFINITY PREDICTED BY RF-SCORE:    0.00 PKD
ROOT
HETATM    1  C   UNL     1      -8.838   8.855  67.060  1.00  0.00    -0.138 C  
HETATM    2  C   UNL     1      -8.560   8.531  68.539  1.00  0.00    -0.138 C  
HETATM    3  C   UNL     1      -7.073   8.830  68.820  1.00  0.00    -0.063 C  
HETATM    4  C   UNL     1      -8.812   7.041  68.815  1.00  0.00    -0.129 C  
HETATM    5  N   UNL     1      -9.347   9.395  69.446  1.00  0.00    -0.161 NA 
HETATM    6  H   UNL     1      -9.068  10.369  69.333  1.00  0.00     0.000 HD 
ENDROOT
BRANCH   5   7
HETATM    7  C   UNL     1     -10.807   9.268  69.319  1.00  0.00    -0.152 C  
BRANCH   7   8
HETATM    8  C   UNL     1     -11.601  10.516  69.758  1.00  0.00    -0.294 C  
HETATM    9  O   UNL     1     -12.921  10.096  70.137  1.00  0.00    -0.580 OA 
HETATM   10  H   UNL     1     -13.410  10.865  70.407  1.00  0.00     0.000 HD 
BRANCH   8  11
HETATM   11  C   UNL     1     -11.711  11.553  68.636  1.00  0.00    -0.326 C  
BRANCH  11  12
HETATM   12  O   UNL     1     -11.181  12.802  69.107  1.00  0.00    -0.256 OA 
BRANCH  12  13
HETATM   13  C   UNL     1     -10.084  13.243  68.406  1.00  0.00    -0.237 A  
HETATM   14  C   UNL     1      -8.968  12.432  68.158  1.00  0.00    -0.196 A  
HETATM   15  C   UNL     1      -7.856  12.944  67.494  1.00  0.00    -0.177 A  
HETATM   16  C   UNL     1      -7.871  14.259  67.038  1.00  0.00     0.047 A  
HETATM   17  C   UNL     1      -9.008  15.053  67.227  1.00  0.00    -0.212 A  
HETATM   18  C   UNL     1     -10.127  14.561  67.923  1.00  0.00    -0.227 A  
HETATM   19  C   UNL     1     -11.364  15.409  68.112  1.00  0.00    -0.353 C  
HETATM   20  C   UNL     1     -11.084  16.899  67.955  1.00  0.00    -0.190 C  
HETATM   21  C   UNL     1     -10.328  17.174  66.668  1.00  0.00    -0.310 C  
HETATM   22  C   UNL     1      -9.017  16.425  66.656  1.00  0.00    -0.258 C  
HETATM   23  O   UNL     1      -8.009  16.894  66.136  1.00  0.00    -0.320 OA 
ENDBRANCH  12  13
ENDBRANCH  11  12
ENDBRANCH   8  11
ENDBRANCH   7   8
ENDBRANCH   5   7
TORSDOF 5
ENDMDL
MODEL      240
REMARK 921   NORMALIZED FREE ENERGY PREDICTED BY IDOCK:   -3.55 KCAL/MOL
REMARK 922        TOTAL FREE ENERGY PREDICTED BY IDOCK:   -5.31 KCAL/MOL
REMARK 923 INTER-LIGAND FREE ENERGY PREDICTED BY IDOCK:   -4.91 KCAL/MOL
REMARK 924 INTRA-LIGAND FREE ENERGY PREDICTED BY IDOCK:   -0.41 KCAL/MOL
REMARK 927      BINDING AFFINITY PREDICTED BY RF-SCORE:    0.00 PKD
ROOT
HETATM    1  C   UNL     1      -6.911   4.616  65.501  1.00  0.00    -0.061 C  
HETATM    2  C   UNL     1      -8.269   5.288  65.237  1.00  0.00    -0.130 C  
HETATM    3  C   UNL     1      -9.335   4.178  65.122  1.00  0.00    -0.164 C  
HETATM    4  C   UNL     1      -8.234   6.060  63.909  1.00  0.00    -0.032 C  
HETATM    5  N   UNL     1      -8.678   6.156  66.362  1.00  0.00    -0.133 NA 
HETATM    6  H   UNL     1      -8.820   5.598  67.204  1.00  0.00     0.000 HD 
ENDROOT
BRANCH   5   7
HETATM    7  C   UNL     1      -7.772   7.279  66.647  1.00  0.00    -0.101 C  
BRANCH   7   8
HETATM    8  C   UNL     1      -8.308   8.662  66.222  1.00  0.00    -0.122 C  
HETATM    9  O   UNL     1      -7.443   9.666  66.775  1.00  0.00    -0.093 OA 
HETATM   10  H   UNL     1      -7.774  10.518  66.513  1.00  0.00     0.000 HD 
BRANCH   8  11
HETATM   11  C   UNL     1      -9.736   8.905  66.719  1.00  0.00    -0.219 C  
BRANCH  11  12
HETATM   12  O   UNL     1      -9.768  10.141  67.450  1.00  0.00    -0.154 OA 
BRANCH  12  13
HETATM   13  C   UNL     1     -10.420  10.059  68.657  1.00  0.00    -0.204 A  
HETATM   14  C   UNL     1     -10.457   8.883  69.420  1.00  0.00    -0.228 A  
HETATM   15  C   UNL     1     -11.182   8.833  70.608  1.00  0.00    -0.294 A  
HETATM   16  C   UNL     1     -11.839   9.974  71.061  1.00  0.00    -0.476 A  
HETATM   17  C   UNL     1     -11.753  11.168  70.336  1.00  0.00    -0.415 A  
HETATM   18  C   UNL     1     -11.051  11.225  69.119  1.00  0.00    -0.312 A  
HETATM   19  C   UNL     1     -10.939  12.517  68.342  1.00  0.00    -0.277 C  
HETATM   20  C   UNL     1     -12.024  13.521  68.714  1.00  0.00    -0.374 C  
HETATM   21  C   UNL     1     -12.102  13.701  70.219  1.00  0.00    -0.427 C  
HETATM   22  C   UNL     1     -12.402  12.383  70.892  1.00  0.00    -0.262 C  
HETATM   23  O   UNL     1     -13.098  12.317  71.900  1.00  0.00    -0.432 OA 
ENDBRANCH  12  13
ENDBRANCH  11  12
ENDBRANCH   8  11
ENDBRANCH   7   8
ENDBRANCH   5   7
TORSDOF 5
ENDMDL
MODEL      241
REMARK 921   NORMALIZED FREE ENERGY PREDICTED BY IDOCK:   -3.55 KCAL/MOL
REMARK 922        TOTAL FREE ENERGY PREDICTED BY IDOCK:   -5.31 KCAL/MOL
REMARK 923 INTER-LIGAND FREE ENERGY PREDICTED BY IDOCK:   -4.79 KCAL/MOL
REMARK 924 INTRA-LIGAND FREE ENERGY PREDICTED BY IDOCK:   -0.52 KCAL/MOL
REMARK 927      BINDING AFFINITY PREDICTED BY RF-SCORE:    0.00 PKD
ROOT
HETATM    1  C   UNL     1      -9.992   4.622  71.003  1.00  0.00    -0.270 C  
HETATM    2  C   UNL     1      -9.329   5.986  70.739  1.00  0.00    -0.154 C  
HETATM    3  C   UNL     1      -7.817   5.840  71.011  1.00  0.00    -0.106 C  
HETATM    4  C   UNL     1      -9.890   7.047  71.697  1.00  0.00    -0.169 C  
HETATM    5  N   UNL     1      -9.470   6.397  69.325  1.00  0.00    -0.136 NA 
HETATM    6  H   UNL     1      -8.978   5.742  68.718  1.00  0.00     0.000 HD 
ENDROOT
BRANCH   5   7
HETATM    7  C   UNL     1     -10.854   6.576  68.861  1.00  0.00    -0.301 C  
BRANCH   7   8
HETATM    8  C   UNL     1     -10.986   7.146  67.433  1.00  0.00    -0.226 C  
HETATM    9  O   UNL     1     -11.178   6.048  66.529  1.00  0.00    -0.741 OA 
HETATM   10  H   UNL     1     -11.258   6.399  65.650  1.00  0.00     0.000 HD 
BRANCH   8  11
HETATM   11  C   UNL     1      -9.740   7.930  67.009  1.00  0.00    -0.206 C  
BRANCH  11  12
HETATM   12  O   UNL     1     -10.133   9.261  66.642  1.00  0.00    -0.242 OA 
BRANCH  12  13
HETATM   13  C   UNL     1      -9.491  10.248  67.351  1.00  0.00    -0.153 A  
HETATM   14  C   UNL     1      -8.404   9.988  68.198  1.00  0.00    -0.113 A  
HETATM   15  C   UNL     1      -7.825  11.014  68.941  1.00  0.00    -0.138 A  
HETATM   16  C   UNL     1      -8.303  12.314  68.808  1.00  0.00     0.097 A  
HETATM   17  C   UNL     1      -9.346  12.591  67.916  1.00  0.00    -0.200 A  
HETATM   18  C   UNL     1      -9.962  11.561  67.182  1.00  0.00    -0.222 A  
HETATM   19  C   UNL     1     -11.075  11.857  66.204  1.00  0.00    -0.374 C  
HETATM   20  C   UNL     1     -11.757  13.193  66.477  1.00  0.00    -0.433 C  
HETATM   21  C   UNL     1     -10.732  14.304  66.615  1.00  0.00    -0.290 C  
HETATM   22  C   UNL     1      -9.775  14.002  67.743  1.00  0.00    -0.228 C  
HETATM   23  O   UNL     1      -9.311  14.890  68.451  1.00  0.00    -0.185 OA 
ENDBRANCH  12  13
ENDBRANCH  11  12
ENDBRANCH   8  11
ENDBRANCH   7   8
ENDBRANCH   5   7
TORSDOF 5
ENDMDL
MODEL      242
REMARK 921   NORMALIZED FREE ENERGY PREDICTED BY IDOCK:   -3.54 KCAL/MOL
REMARK 922        TOTAL FREE ENERGY PREDICTED BY IDOCK:   -5.30 KCAL/MOL
REMARK 923 INTER-LIGAND FREE ENERGY PREDICTED BY IDOCK:   -4.65 KCAL/MOL
REMARK 924 INTRA-LIGAND FREE ENERGY PREDICTED BY IDOCK:   -0.65 KCAL/MOL
REMARK 927      BINDING AFFINITY PREDICTED BY RF-SCORE:    0.00 PKD
ROOT
HETATM    1  C   UNL     1      -6.548   7.778  64.989  1.00  0.00    -0.047 C  
HETATM    2  C   UNL     1      -6.529   6.810  66.185  1.00  0.00    -0.050 C  
HETATM    3  C   UNL     1      -5.605   7.407  67.266  1.00  0.00    -0.030 C  
HETATM    4  C   UNL     1      -5.957   5.449  65.761  1.00  0.00    -0.025 C  
HETATM    5  N   UNL     1      -7.868   6.672  66.798  1.00  0.00    -0.106 NA 
HETATM    6  H   UNL     1      -8.170   7.565  67.187  1.00  0.00     0.000 HD 
ENDROOT
BRANCH   5   7
HETATM    7  C   UNL     1      -8.909   6.127  65.913  1.00  0.00    -0.143 C  
BRANCH   7   8
HETATM    8  C   UNL     1     -10.181   5.642  66.638  1.00  0.00    -0.229 C  
HETATM    9  O   UNL     1     -10.936   4.833  65.723  1.00  0.00    -0.723 OA 
HETATM   10  H   UNL     1     -11.720   4.535  66.170  1.00  0.00     0.000 HD 
BRANCH   8  11
HETATM   11  C   UNL     1     -11.054   6.807  67.112  1.00  0.00    -0.333 C  
BRANCH  11  12
HETATM   12  O   UNL     1     -11.273   6.677  68.526  1.00  0.00    -0.235 OA 
BRANCH  12  13
HETATM   13  C   UNL     1     -10.543   7.559  69.287  1.00  0.00    -0.210 A  
HETATM   14  C   UNL     1     -10.025   8.755  68.773  1.00  0.00    -0.197 A  
HETATM   15  C   UNL     1      -9.241   9.587  69.568  1.00  0.00    -0.198 A  
HETATM   16  C   UNL     1      -9.006   9.245  70.897  1.00  0.00    -0.273 A  
HETATM   17  C   UNL     1      -9.574   8.084  71.434  1.00  0.00    -0.195 A  
HETATM   18  C   UNL     1     -10.342   7.218  70.635  1.00  0.00    -0.213 A  
HETATM   19  C   UNL     1     -10.973   5.973  71.214  1.00  0.00    -0.340 C  
HETATM   20  C   UNL     1     -10.298   5.520  72.504  1.00  0.00    -0.246 C  
HETATM   21  C   UNL     1     -10.173   6.672  73.483  1.00  0.00    -0.300 C  
HETATM   22  C   UNL     1      -9.367   7.795  72.877  1.00  0.00    -0.219 C  
HETATM   23  O   UNL     1      -8.617   8.491  73.554  1.00  0.00    -0.341 OA 
ENDBRANCH  12  13
ENDBRANCH  11  12
ENDBRANCH   8  11
ENDBRANCH   7   8
ENDBRANCH   5   7
TORSDOF 5
ENDMDL
MODEL      243
REMARK 921   NORMALIZED FREE ENERGY PREDICTED BY IDOCK:   -3.51 KCAL/MOL
REMARK 922        TOTAL FREE ENERGY PREDICTED BY IDOCK:   -5.27 KCAL/MOL
REMARK 923 INTER-LIGAND FREE ENERGY PREDICTED BY IDOCK:   -4.97 KCAL/MOL
REMARK 924 INTRA-LIGAND FREE ENERGY PREDICTED BY IDOCK:   -0.30 KCAL/MOL
REMARK 927      BINDING AFFINITY PREDICTED BY RF-SCORE:    0.00 PKD
ROOT
HETATM    1  C   UNL     1      -7.209   5.494  66.684  1.00  0.00    -0.074 C  
HETATM    2  C   UNL     1      -8.687   5.901  66.553  1.00  0.00    -0.126 C  
HETATM    3  C   UNL     1      -9.374   4.897  65.603  1.00  0.00    -0.167 C  
HETATM    4  C   UNL     1      -8.802   7.303  65.936  1.00  0.00    -0.136 C  
HETATM    5  N   UNL     1      -9.395   5.815  67.849  1.00  0.00    -0.105 NA 
HETATM    6  H   UNL     1      -9.416   4.848  68.174  1.00  0.00     0.000 HD 
ENDROOT
BRANCH   5   7
HETATM    7  C   UNL     1      -8.874   6.694  68.906  1.00  0.00    -0.131 C  
BRANCH   7   8
HETATM    8  C   UNL     1      -9.912   7.667  69.504  1.00  0.00    -0.182 C  
HETATM    9  O   UNL     1     -11.217   7.245  69.078  1.00  0.00    -0.450 OA 
HETATM   10  H   UNL     1     -11.856   7.844  69.446  1.00  0.00     0.000 HD 
BRANCH   8  11
HETATM   11  C   UNL     1      -9.681   9.109  69.045  1.00  0.00    -0.166 C  
BRANCH  11  12
HETATM   12  O   UNL     1     -10.790   9.520  68.231  1.00  0.00    -0.213 OA 
BRANCH  12  13
HETATM   13  C   UNL     1     -11.042  10.871  68.270  1.00  0.00    -0.266 A  
HETATM   14  C   UNL     1     -10.673  11.741  67.235  1.00  0.00    -0.279 A  
HETATM   15  C   UNL     1     -10.896  13.111  67.349  1.00  0.00    -0.269 A  
HETATM   16  C   UNL     1     -11.528  13.613  68.482  1.00  0.00    -0.347 A  
HETATM   17  C   UNL     1     -11.957  12.742  69.491  1.00  0.00    -0.338 A  
HETATM   18  C   UNL     1     -11.710  11.359  69.405  1.00  0.00    -0.406 A  
HETATM   19  C   UNL     1     -12.187  10.413  70.482  1.00  0.00    -0.412 C  
HETATM   20  C   UNL     1     -12.460  11.118  71.805  1.00  0.00    -0.157 C  
HETATM   21  C   UNL     1     -13.349  12.331  71.599  1.00  0.00    -0.252 C  
HETATM   22  C   UNL     1     -12.699  13.306  70.647  1.00  0.00    -0.156 C  
HETATM   23  O   UNL     1     -12.829  14.519  70.777  1.00  0.00    -0.342 OA 
ENDBRANCH  12  13
ENDBRANCH  11  12
ENDBRANCH   8  11
ENDBRANCH   7   8
ENDBRANCH   5   7
TORSDOF 5
ENDMDL
MODEL      244
REMARK 921   NORMALIZED FREE ENERGY PREDICTED BY IDOCK:   -3.51 KCAL/MOL
REMARK 922        TOTAL FREE ENERGY PREDICTED BY IDOCK:   -5.27 KCAL/MOL
REMARK 923 INTER-LIGAND FREE ENERGY PREDICTED BY IDOCK:   -4.14 KCAL/MOL
REMARK 924 INTRA-LIGAND FREE ENERGY PREDICTED BY IDOCK:   -1.13 KCAL/MOL
REMARK 927      BINDING AFFINITY PREDICTED BY RF-SCORE:    0.00 PKD
ROOT
HETATM    1  C   UNL     1     -10.429   7.263  67.495  1.00  0.00    -0.337 C  
HETATM    2  C   UNL     1      -9.659   6.039  66.969  1.00  0.00    -0.133 C  
HETATM    3  C   UNL     1      -8.750   6.509  65.813  1.00  0.00    -0.129 C  
HETATM    4  C   UNL     1     -10.636   4.991  66.416  1.00  0.00    -0.317 C  
HETATM    5  N   UNL     1      -8.770   5.465  68.003  1.00  0.00    -0.106 NA 
HETATM    6  H   UNL     1      -8.050   6.139  68.261  1.00  0.00     0.000 HD 
ENDROOT
BRANCH   5   7
HETATM    7  C   UNL     1      -9.452   4.969  69.208  1.00  0.00    -0.137 C  
BRANCH   7   8
HETATM    8  C   UNL     1      -8.509   4.522  70.343  1.00  0.00    -0.078 C  
HETATM    9  O   UNL     1      -9.307   4.240  71.503  1.00  0.00    -0.126 OA 
HETATM   10  H   UNL     1      -8.725   3.965  72.203  1.00  0.00     0.000 HD 
BRANCH   8  11
HETATM   11  C   UNL     1      -7.481   5.601  70.696  1.00  0.00    -0.085 C  
BRANCH  11  12
HETATM   12  O   UNL     1      -8.142   6.653  71.416  1.00  0.00    -0.109 OA 
BRANCH  12  13
HETATM   13  C   UNL     1      -8.327   7.801  70.684  1.00  0.00    -0.124 A  
HETATM   14  C   UNL     1      -7.359   8.301  69.801  1.00  0.00    -0.065 A  
HETATM   15  C   UNL     1      -7.568   9.500  69.126  1.00  0.00    -0.075 A  
HETATM   16  C   UNL     1      -8.768  10.186  69.298  1.00  0.00    -0.186 A  
HETATM   17  C   UNL     1      -9.764   9.659  70.128  1.00  0.00    -0.301 A  
HETATM   18  C   UNL     1      -9.554   8.465  70.841  1.00  0.00    -0.212 A  
HETATM   19  C   UNL     1     -10.634   7.882  71.724  1.00  0.00    -0.276 C  
HETATM   20  C   UNL     1     -11.673   8.917  72.140  1.00  0.00    -0.411 C  
HETATM   21  C   UNL     1     -12.193   9.677  70.934  1.00  0.00    -0.368 C  
HETATM   22  C   UNL     1     -11.060  10.378  70.224  1.00  0.00    -0.307 C  
HETATM   23  O   UNL     1     -11.213  11.470  69.685  1.00  0.00    -0.251 OA 
ENDBRANCH  12  13
ENDBRANCH  11  12
ENDBRANCH   8  11
ENDBRANCH   7   8
ENDBRANCH   5   7
TORSDOF 5
ENDMDL
MODEL      245
REMARK 921   NORMALIZED FREE ENERGY PREDICTED BY IDOCK:   -3.49 KCAL/MOL
REMARK 922        TOTAL FREE ENERGY PREDICTED BY IDOCK:   -5.25 KCAL/MOL
REMARK 923 INTER-LIGAND FREE ENERGY PREDICTED BY IDOCK:   -4.46 KCAL/MOL
REMARK 924 INTRA-LIGAND FREE ENERGY PREDICTED BY IDOCK:   -0.79 KCAL/MOL
REMARK 927      BINDING AFFINITY PREDICTED BY RF-SCORE:    0.00 PKD
ROOT
HETATM    1  C   UNL     1      -9.418   4.559  65.115  1.00  0.00    -0.166 C  
HETATM    2  C   UNL     1      -8.453   5.161  64.078  1.00  0.00    -0.123 C  
HETATM    3  C   UNL     1      -8.902   4.688  62.679  1.00  0.00    -0.127 C  
HETATM    4  C   UNL     1      -7.024   4.653  64.321  1.00  0.00    -0.049 C  
HETATM    5  N   UNL     1      -8.514   6.639  64.068  1.00  0.00    -0.330 NA 
HETATM    6  H   UNL     1      -9.440   6.950  63.778  1.00  0.00     0.000 HD 
ENDROOT
BRANCH   5   7
HETATM    7  C   UNL     1      -8.133   7.289  65.331  1.00  0.00    -0.133 C  
BRANCH   7   8
HETATM    8  C   UNL     1      -7.342   8.603  65.165  1.00  0.00    -0.088 C  
HETATM    9  O   UNL     1      -6.710   8.905  66.419  1.00  0.00    -0.072 OA 
HETATM   10  H   UNL     1      -6.223   9.715  66.316  1.00  0.00     0.000 HD 
BRANCH   8  11
HETATM   11  C   UNL     1      -8.246   9.773  64.768  1.00  0.00    -0.148 C  
BRANCH  11  12
HETATM   12  O   UNL     1      -9.600   9.454  65.125  1.00  0.00    -0.256 OA 
BRANCH  12  13
HETATM   13  C   UNL     1     -10.246  10.454  65.813  1.00  0.00    -0.235 A  
HETATM   14  C   UNL     1     -10.529  11.704  65.245  1.00  0.00    -0.323 A  
HETATM   15  C   UNL     1     -11.132  12.705  66.003  1.00  0.00    -0.321 A  
HETATM   16  C   UNL     1     -11.494  12.446  67.321  1.00  0.00    -0.421 A  
HETATM   17  C   UNL     1     -11.272  11.179  67.874  1.00  0.00    -0.365 A  
HETATM   18  C   UNL     1     -10.636  10.168  67.132  1.00  0.00    -0.308 A  
HETATM   19  C   UNL     1     -10.411   8.793  67.717  1.00  0.00    -0.292 C  
HETATM   20  C   UNL     1     -10.457   8.789  69.241  1.00  0.00    -0.228 C  
HETATM   21  C   UNL     1     -11.706   9.488  69.746  1.00  0.00     0.127 C  
HETATM   22  C   UNL     1     -11.745  10.917  69.258  1.00  0.00    -0.324 C  
HETATM   23  O   UNL     1     -12.209  11.822  69.944  1.00  0.00    -0.277 OA 
ENDBRANCH  12  13
ENDBRANCH  11  12
ENDBRANCH   8  11
ENDBRANCH   7   8
ENDBRANCH   5   7
TORSDOF 5
ENDMDL
MODEL      246
REMARK 921   NORMALIZED FREE ENERGY PREDICTED BY IDOCK:   -3.46 KCAL/MOL
REMARK 922        TOTAL FREE ENERGY PREDICTED BY IDOCK:   -5.20 KCAL/MOL
REMARK 923 INTER-LIGAND FREE ENERGY PREDICTED BY IDOCK:   -4.84 KCAL/MOL
REMARK 924 INTRA-LIGAND FREE ENERGY PREDICTED BY IDOCK:   -0.36 KCAL/MOL
REMARK 927      BINDING AFFINITY PREDICTED BY RF-SCORE:    0.00 PKD
ROOT
HETATM    1  C   UNL     1      -9.039   4.892  68.510  1.00  0.00    -0.143 C  
HETATM    2  C   UNL     1      -8.064   4.139  67.588  1.00  0.00    -0.094 C  
HETATM    3  C   UNL     1      -8.541   2.675  67.484  1.00  0.00    -0.121 C  
HETATM    4  C   UNL     1      -6.650   4.143  68.189  1.00  0.00    -0.042 C  
HETATM    5  N   UNL     1      -8.075   4.689  66.215  1.00  0.00    -0.103 NA 
HETATM    6  H   UNL     1      -8.993   4.558  65.791  1.00  0.00     0.000 HD 
ENDROOT
BRANCH   5   7
HETATM    7  C   UNL     1      -7.662   6.096  66.102  1.00  0.00    -0.099 C  
BRANCH   7   8
HETATM    8  C   UNL     1      -8.282   6.855  64.910  1.00  0.00    -0.074 C  
HETATM    9  O   UNL     1      -7.726   6.319  63.700  1.00  0.00    -0.097 OA 
HETATM   10  H   UNL     1      -8.107   6.786  62.966  1.00  0.00     0.000 HD 
BRANCH   8  11
HETATM   11  C   UNL     1      -7.991   8.357  64.970  1.00  0.00    -0.139 C  
BRANCH  11  12
HETATM   12  O   UNL     1      -9.025   9.000  65.732  1.00  0.00    -0.171 OA 
BRANCH  12  13
HETATM   13  C   UNL     1      -9.588  10.085  65.104  1.00  0.00    -0.291 A  
HETATM   14  C   UNL     1      -9.499  10.291  63.720  1.00  0.00    -0.352 A  
HETATM   15  C   UNL     1     -10.035  11.438  63.140  1.00  0.00    -0.402 A  
HETATM   16  C   UNL     1     -10.701  12.365  63.936  1.00  0.00    -0.465 A  
HETATM   17  C   UNL     1     -10.849  12.134  65.308  1.00  0.00    -0.336 A  
HETATM   18  C   UNL     1     -10.286  10.996  65.915  1.00  0.00    -0.309 A  
HETATM   19  C   UNL     1     -10.459  10.732  67.392  1.00  0.00    -0.268 C  
HETATM   20  C   UNL     1     -10.813  11.990  68.176  1.00  0.00    -0.257 C  
HETATM   21  C   UNL     1     -11.976  12.720  67.530  1.00  0.00    -0.342 C  
HETATM   22  C   UNL     1     -11.635  13.106  66.111  1.00  0.00    -0.355 C  
HETATM   23  O   UNL     1     -12.042  14.149  65.609  1.00  0.00    -0.380 OA 
ENDBRANCH  12  13
ENDBRANCH  11  12
ENDBRANCH   8  11
ENDBRANCH   7   8
ENDBRANCH   5   7
TORSDOF 5
ENDMDL
MODEL      247
REMARK 921   NORMALIZED FREE ENERGY PREDICTED BY IDOCK:   -3.46 KCAL/MOL
REMARK 922        TOTAL FREE ENERGY PREDICTED BY IDOCK:   -5.20 KCAL/MOL
REMARK 923 INTER-LIGAND FREE ENERGY PREDICTED BY IDOCK:   -4.31 KCAL/MOL
REMARK 924 INTRA-LIGAND FREE ENERGY PREDICTED BY IDOCK:   -0.90 KCAL/MOL
REMARK 927      BINDING AFFINITY PREDICTED BY RF-SCORE:    0.00 PKD
ROOT
HETATM    1  C   UNL     1     -10.195  13.644  67.935  1.00  0.00    -0.250 C  
HETATM    2  C   UNL     1     -10.223  12.118  68.130  1.00  0.00    -0.203 C  
HETATM    3  C   UNL     1     -11.338  11.788  69.145  1.00  0.00    -0.340 C  
HETATM    4  C   UNL     1      -8.886  11.630  68.709  1.00  0.00    -0.017 C  
HETATM    5  N   UNL     1     -10.565  11.412  66.877  1.00  0.00    -0.240 NA 
HETATM    6  H   UNL     1     -11.510  11.657  66.582  1.00  0.00     0.000 HD 
ENDROOT
BRANCH   5   7
HETATM    7  C   UNL     1      -9.621  11.614  65.768  1.00  0.00    -0.232 C  
BRANCH   7   8
HETATM    8  C   UNL     1      -9.126  10.314  65.099  1.00  0.00    -0.197 C  
HETATM    9  O   UNL     1     -10.149   9.855  64.202  1.00  0.00    -0.450 OA 
HETATM   10  H   UNL     1      -9.844   9.054  63.791  1.00  0.00     0.000 HD 
BRANCH   8  11
HETATM   11  C   UNL     1      -8.831   9.215  66.124  1.00  0.00    -0.158 C  
BRANCH  11  12
HETATM   12  O   UNL     1     -10.029   8.454  66.344  1.00  0.00    -0.263 OA 
BRANCH  12  13
HETATM   13  C   UNL     1     -10.037   7.756  67.528  1.00  0.00    -0.209 A  
HETATM   14  C   UNL     1     -10.340   8.354  68.759  1.00  0.00    -0.225 A  
HETATM   15  C   UNL     1     -10.276   7.618  69.939  1.00  0.00    -0.215 A  
HETATM   16  C   UNL     1      -9.949   6.266  69.889  1.00  0.00    -0.206 A  
HETATM   17  C   UNL     1      -9.708   5.647  68.657  1.00  0.00    -0.175 A  
HETATM   18  C   UNL     1      -9.738   6.385  67.459  1.00  0.00    -0.137 A  
HETATM   19  C   UNL     1      -9.497   5.719  66.125  1.00  0.00    -0.144 C  
HETATM   20  C   UNL     1      -8.753   4.395  66.256  1.00  0.00    -0.113 C  
HETATM   21  C   UNL     1      -9.414   3.503  67.291  1.00  0.00    -0.228 C  
HETATM   22  C   UNL     1      -9.440   4.186  68.637  1.00  0.00    -0.156 C  
HETATM   23  O   UNL     1      -9.314   3.558  69.683  1.00  0.00    -0.146 OA 
ENDBRANCH  12  13
ENDBRANCH  11  12
ENDBRANCH   8  11
ENDBRANCH   7   8
ENDBRANCH   5   7
TORSDOF 5
ENDMDL
MODEL      248
REMARK 921   NORMALIZED FREE ENERGY PREDICTED BY IDOCK:   -3.46 KCAL/MOL
REMARK 922        TOTAL FREE ENERGY PREDICTED BY IDOCK:   -5.20 KCAL/MOL
REMARK 923 INTER-LIGAND FREE ENERGY PREDICTED BY IDOCK:   -4.70 KCAL/MOL
REMARK 924 INTRA-LIGAND FREE ENERGY PREDICTED BY IDOCK:   -0.50 KCAL/MOL
REMARK 927      BINDING AFFINITY PREDICTED BY RF-SCORE:    0.00 PKD
ROOT
HETATM    1  C   UNL     1     -10.977  16.745  68.074  1.00  0.00    -0.296 C  
HETATM    2  C   UNL     1     -10.809  15.603  69.092  1.00  0.00    -0.246 C  
HETATM    3  C   UNL     1     -11.465  16.046  70.416  1.00  0.00    -0.392 C  
HETATM    4  C   UNL     1      -9.320  15.339  69.357  1.00  0.00    -0.228 C  
HETATM    5  N   UNL     1     -11.512  14.376  68.658  1.00  0.00    -0.271 NA 
HETATM    6  H   UNL     1     -12.517  14.544  68.613  1.00  0.00     0.000 HD 
ENDROOT
BRANCH   5   7
HETATM    7  C   UNL     1     -11.039  13.799  67.391  1.00  0.00    -0.296 C  
BRANCH   7   8
HETATM    8  C   UNL     1     -11.016  12.257  67.355  1.00  0.00    -0.253 C  
HETATM    9  O   UNL     1     -12.358  11.785  67.553  1.00  0.00    -0.290 OA 
HETATM   10  H   UNL     1     -12.343  10.835  67.531  1.00  0.00     0.000 HD 
BRANCH   8  11
HETATM   11  C   UNL     1     -10.114  11.669  68.444  1.00  0.00    -0.206 C  
BRANCH  11  12
HETATM   12  O   UNL     1      -9.761  10.325  68.077  1.00  0.00    -0.147 OA 
BRANCH  12  13
HETATM   13  C   UNL     1     -10.152   9.376  68.991  1.00  0.00    -0.194 A  
HETATM   14  C   UNL     1     -11.023   9.659  70.052  1.00  0.00    -0.297 A  
HETATM   15  C   UNL     1     -11.342   8.678  70.987  1.00  0.00    -0.322 A  
HETATM   16  C   UNL     1     -10.824   7.394  70.840  1.00  0.00    -0.255 A  
HETATM   17  C   UNL     1     -10.005   7.089  69.747  1.00  0.00    -0.179 A  
HETATM   18  C   UNL     1      -9.649   8.078  68.812  1.00  0.00    -0.149 A  
HETATM   19  C   UNL     1      -8.781   7.748  67.620  1.00  0.00    -0.126 C  
HETATM   20  C   UNL     1      -7.967   6.474  67.820  1.00  0.00    -0.115 C  
HETATM   21  C   UNL     1      -8.854   5.333  68.282  1.00  0.00    -0.108 C  
HETATM   22  C   UNL     1      -9.537   5.689  69.582  1.00  0.00    -0.151 C  
HETATM   23  O   UNL     1      -9.761   4.847  70.445  1.00  0.00    -0.178 OA 
ENDBRANCH  12  13
ENDBRANCH  11  12
ENDBRANCH   8  11
ENDBRANCH   7   8
ENDBRANCH   5   7
TORSDOF 5
ENDMDL
MODEL      249
REMARK 921   NORMALIZED FREE ENERGY PREDICTED BY IDOCK:   -3.42 KCAL/MOL
REMARK 922        TOTAL FREE ENERGY PREDICTED BY IDOCK:   -5.15 KCAL/MOL
REMARK 923 INTER-LIGAND FREE ENERGY PREDICTED BY IDOCK:   -4.84 KCAL/MOL
REMARK 924 INTRA-LIGAND FREE ENERGY PREDICTED BY IDOCK:   -0.31 KCAL/MOL
REMARK 927      BINDING AFFINITY PREDICTED BY RF-SCORE:    0.00 PKD
ROOT
HETATM    1  C   UNL     1      -8.229   5.528  68.404  1.00  0.00    -0.099 C  
HETATM    2  C   UNL     1      -8.398   5.292  66.893  1.00  0.00    -0.107 C  
HETATM    3  C   UNL     1      -9.487   4.216  66.698  1.00  0.00    -0.206 C  
HETATM    4  C   UNL     1      -7.089   4.767  66.285  1.00  0.00    -0.075 C  
HETATM    5  N   UNL     1      -8.873   6.510  66.200  1.00  0.00    -0.150 NA 
HETATM    6  H   UNL     1      -9.803   6.764  66.532  1.00  0.00     0.000 HD 
ENDROOT
BRANCH   5   7
HETATM    7  C   UNL     1      -7.971   7.668  66.283  1.00  0.00    -0.105 C  
BRANCH   7   8
HETATM    8  C   UNL     1      -8.648   8.979  66.735  1.00  0.00    -0.123 C  
HETATM    9  O   UNL     1      -8.497   9.092  68.159  1.00  0.00    -0.123 OA 
HETATM   10  H   UNL     1      -8.914   9.899  68.437  1.00  0.00     0.000 HD 
BRANCH   8  11
HETATM   11  C   UNL     1     -10.140   9.006  66.389  1.00  0.00    -0.281 C  
BRANCH  11  12
HETATM   12  O   UNL     1     -10.787   9.995  67.206  1.00  0.00    -0.270 OA 
BRANCH  12  13
HETATM   13  C   UNL     1     -10.727  11.268  66.693  1.00  0.00    -0.272 A  
HETATM   14  C   UNL     1     -10.306  11.540  65.384  1.00  0.00    -0.322 A  
HETATM   15  C   UNL     1     -10.206  12.853  64.931  1.00  0.00    -0.296 A  
HETATM   16  C   UNL     1     -10.567  13.900  65.772  1.00  0.00    -0.300 A  
HETATM   17  C   UNL     1     -11.049  13.633  67.059  1.00  0.00    -0.313 A  
HETATM   18  C   UNL     1     -11.126  12.314  67.542  1.00  0.00    -0.326 A  
HETATM   19  C   UNL     1     -11.664  12.018  68.923  1.00  0.00    -0.383 C  
HETATM   20  C   UNL     1     -11.608  13.230  69.847  1.00  0.00    -0.260 C  
HETATM   21  C   UNL     1     -12.227  14.446  69.181  1.00  0.00    -0.255 C  
HETATM   22  C   UNL     1     -11.500  14.772  67.899  1.00  0.00    -0.342 C  
HETATM   23  O   UNL     1     -11.342  15.929  67.522  1.00  0.00    -0.235 OA 
ENDBRANCH  12  13
ENDBRANCH  11  12
ENDBRANCH   8  11
ENDBRANCH   7   8
ENDBRANCH   5   7
TORSDOF 5
ENDMDL
MODEL      250
REMARK 921   NORMALIZED FREE ENERGY PREDICTED BY IDOCK:   -3.41 KCAL/MOL
REMARK 922        TOTAL FREE ENERGY PREDICTED BY IDOCK:   -5.14 KCAL/MOL
REMARK 923 INTER-LIGAND FREE ENERGY PREDICTED BY IDOCK:   -4.67 KCAL/MOL
REMARK 924 INTRA-LIGAND FREE ENERGY PREDICTED BY IDOCK:   -0.47 KCAL/MOL
REMARK 927      BINDING AFFINITY PREDICTED BY RF-SCORE:    0.00 PKD
ROOT
HETATM    1  C   UNL     1     -10.905  16.891  67.765  1.00  0.00    -0.281 C  
HETATM    2  C   UNL     1      -9.463  16.870  67.229  1.00  0.00    -0.242 C  
HETATM    3  C   UNL     1      -9.144  18.270  66.666  1.00  0.00    -0.294 C  
HETATM    4  C   UNL     1      -9.333  15.851  66.087  1.00  0.00    -0.385 C  
HETATM    5  N   UNL     1      -8.483  16.610  68.306  1.00  0.00    -0.196 NA 
HETATM    6  H   UNL     1      -8.499  17.369  68.987  1.00  0.00     0.000 HD 
ENDROOT
BRANCH   5   7
HETATM    7  C   UNL     1      -8.630  15.315  68.987  1.00  0.00    -0.226 C  
BRANCH   7   8
HETATM    8  C   UNL     1      -7.419  14.371  68.844  1.00  0.00    -0.132 C  
HETATM    9  O   UNL     1      -6.285  15.156  68.445  1.00  0.00    -0.095 OA 
HETATM   10  H   UNL     1      -5.539  14.573  68.356  1.00  0.00     0.000 HD 
BRANCH   8  11
HETATM   11  C   UNL     1      -7.661  13.277  67.800  1.00  0.00    -0.159 C  
BRANCH  11  12
HETATM   12  O   UNL     1      -8.421  12.219  68.406  1.00  0.00    -0.170 OA 
BRANCH  12  13
HETATM   13  C   UNL     1      -8.886  11.284  67.512  1.00  0.00    -0.140 A  
HETATM   14  C   UNL     1      -8.785  11.446  66.124  1.00  0.00    -0.153 A  
HETATM   15  C   UNL     1      -9.326  10.498  65.259  1.00  0.00    -0.258 A  
HETATM   16  C   UNL     1      -9.934   9.360  65.780  1.00  0.00    -0.278 A  
HETATM   17  C   UNL     1      -9.981   9.161  67.165  1.00  0.00    -0.280 A  
HETATM   18  C   UNL     1      -9.467  10.125  68.052  1.00  0.00    -0.156 A  
HETATM   19  C   UNL     1      -9.499   9.906  69.547  1.00  0.00    -0.239 C  
HETATM   20  C   UNL     1     -10.538   8.873  69.967  1.00  0.00    -0.234 C  
HETATM   21  C   UNL     1     -10.397   7.601  69.151  1.00  0.00    -0.217 C  
HETATM   22  C   UNL     1     -10.566   7.896  67.680  1.00  0.00    -0.206 C  
HETATM   23  O   UNL     1     -11.105   7.099  66.919  1.00  0.00    -0.327 OA 
ENDBRANCH  12  13
ENDBRANCH  11  12
ENDBRANCH   8  11
ENDBRANCH   7   8
ENDBRANCH   5   7
TORSDOF 5
ENDMDL
MODEL      251
REMARK 921   NORMALIZED FREE ENERGY PREDICTED BY IDOCK:   -3.40 KCAL/MOL
REMARK 922        TOTAL FREE ENERGY PREDICTED BY IDOCK:   -5.13 KCAL/MOL
REMARK 923 INTER-LIGAND FREE ENERGY PREDICTED BY IDOCK:   -4.06 KCAL/MOL
REMARK 924 INTRA-LIGAND FREE ENERGY PREDICTED BY IDOCK:   -1.06 KCAL/MOL
REMARK 927      BINDING AFFINITY PREDICTED BY RF-SCORE:    0.00 PKD
ROOT
HETATM    1  C   UNL     1      -6.766  11.074  69.883  1.00  0.00    -0.125 C  
HETATM    2  C   UNL     1      -6.740   9.564  70.182  1.00  0.00    -0.078 C  
HETATM    3  C   UNL     1      -5.393   9.237  70.860  1.00  0.00    -0.033 C  
HETATM    4  C   UNL     1      -6.829   8.760  68.876  1.00  0.00    -0.061 C  
HETATM    5  N   UNL     1      -7.802   9.177  71.135  1.00  0.00    -0.292 NA 
HETATM    6  H   UNL     1      -7.646   9.626  72.037  1.00  0.00     0.000 HD 
ENDROOT
BRANCH   5   7
HETATM    7  C   UNL     1      -9.176   9.427  70.676  1.00  0.00    -0.242 C  
BRANCH   7   8
HETATM    8  C   UNL     1     -10.199   8.347  71.087  1.00  0.00    -0.202 C  
HETATM    9  O   UNL     1      -9.789   7.800  72.350  1.00  0.00    -0.177 OA 
HETATM   10  H   UNL     1     -10.418   7.135  72.602  1.00  0.00     0.000 HD 
BRANCH   8  11
HETATM   11  C   UNL     1     -10.287   7.216  70.059  1.00  0.00    -0.208 C  
BRANCH  11  12
HETATM   12  O   UNL     1     -10.910   7.720  68.867  1.00  0.00    -0.132 OA 
BRANCH  12  13
HETATM   13  C   UNL     1     -10.134   7.604  67.739  1.00  0.00    -0.186 A  
HETATM   14  C   UNL     1      -9.450   6.426  67.407  1.00  0.00    -0.123 A  
HETATM   15  C   UNL     1      -8.628   6.378  66.284  1.00  0.00    -0.140 A  
HETATM   16  C   UNL     1      -8.518   7.497  65.463  1.00  0.00    -0.129 A  
HETATM   17  C   UNL     1      -9.247   8.655  65.754  1.00  0.00    -0.245 A  
HETATM   18  C   UNL     1     -10.058   8.730  66.902  1.00  0.00    -0.348 A  
HETATM   19  C   UNL     1     -10.862   9.971  67.211  1.00  0.00    -0.284 C  
HETATM   20  C   UNL     1     -10.327  11.209  66.500  1.00  0.00    -0.290 C  
HETATM   21  C   UNL     1     -10.133  10.941  65.019  1.00  0.00    -0.362 C  
HETATM   22  C   UNL     1      -9.166   9.800  64.812  1.00  0.00    -0.261 C  
HETATM   23  O   UNL     1      -8.386   9.778  63.865  1.00  0.00    -0.147 OA 
ENDBRANCH  12  13
ENDBRANCH  11  12
ENDBRANCH   8  11
ENDBRANCH   7   8
ENDBRANCH   5   7
TORSDOF 5
ENDMDL
MODEL      252
REMARK 921   NORMALIZED FREE ENERGY PREDICTED BY IDOCK:   -3.40 KCAL/MOL
REMARK 922        TOTAL FREE ENERGY PREDICTED BY IDOCK:   -5.12 KCAL/MOL
REMARK 923 INTER-LIGAND FREE ENERGY PREDICTED BY IDOCK:   -4.31 KCAL/MOL
REMARK 924 INTRA-LIGAND FREE ENERGY PREDICTED BY IDOCK:   -0.81 KCAL/MOL
REMARK 927      BINDING AFFINITY PREDICTED BY RF-SCORE:    0.00 PKD
ROOT
HETATM    1  C   UNL     1      -9.321   6.288  74.315  1.00  0.00    -0.185 C  
HETATM    2  C   UNL     1      -9.086   6.524  72.812  1.00  0.00    -0.136 C  
HETATM    3  C   UNL     1      -8.258   5.341  72.269  1.00  0.00    -0.118 C  
HETATM    4  C   UNL     1      -8.283   7.814  72.593  1.00  0.00    -0.171 C  
HETATM    5  N   UNL     1     -10.357   6.537  72.056  1.00  0.00    -0.198 NA 
HETATM    6  H   UNL     1     -10.809   5.624  72.112  1.00  0.00     0.000 HD 
ENDROOT
BRANCH   5   7
HETATM    7  C   UNL     1     -11.303   7.595  72.440  1.00  0.00    -0.329 C  
BRANCH   7   8
HETATM    8  C   UNL     1     -12.148   8.157  71.278  1.00  0.00    -0.288 C  
HETATM    9  O   UNL     1     -12.433   7.081  70.371  1.00  0.00    -0.622 OA 
HETATM   10  H   UNL     1     -12.952   7.428  69.655  1.00  0.00     0.000 HD 
BRANCH   8  11
HETATM   11  C   UNL     1     -11.416   9.268  70.519  1.00  0.00    -0.248 C  
BRANCH  11  12
HETATM   12  O   UNL     1     -10.363   8.680  69.738  1.00  0.00    -0.202 OA 
BRANCH  12  13
HETATM   13  C   UNL     1      -9.957   9.453  68.677  1.00  0.00    -0.173 A  
HETATM   14  C   UNL     1      -9.990  10.855  68.704  1.00  0.00    -0.196 A  
HETATM   15  C   UNL     1      -9.624  11.592  67.581  1.00  0.00    -0.184 A  
HETATM   16  C   UNL     1      -9.181  10.932  66.439  1.00  0.00    -0.193 A  
HETATM   17  C   UNL     1      -9.085   9.536  66.428  1.00  0.00    -0.195 A  
HETATM   18  C   UNL     1      -9.481   8.775  67.543  1.00  0.00    -0.173 A  
HETATM   19  C   UNL     1      -9.361   7.269  67.543  1.00  0.00    -0.144 C  
HETATM   20  C   UNL     1      -9.282   6.686  66.137  1.00  0.00    -0.120 C  
HETATM   21  C   UNL     1      -8.222   7.398  65.316  1.00  0.00    -0.128 C  
HETATM   22  C   UNL     1      -8.533   8.873  65.219  1.00  0.00    -0.169 C  
HETATM   23  O   UNL     1      -8.280   9.521  64.208  1.00  0.00    -0.136 OA 
ENDBRANCH  12  13
ENDBRANCH  11  12
ENDBRANCH   8  11
ENDBRANCH   7   8
ENDBRANCH   5   7
TORSDOF 5
ENDMDL
MODEL      253
REMARK 921   NORMALIZED FREE ENERGY PREDICTED BY IDOCK:   -3.39 KCAL/MOL
REMARK 922        TOTAL FREE ENERGY PREDICTED BY IDOCK:   -5.11 KCAL/MOL
REMARK 923 INTER-LIGAND FREE ENERGY PREDICTED BY IDOCK:   -4.11 KCAL/MOL
REMARK 924 INTRA-LIGAND FREE ENERGY PREDICTED BY IDOCK:   -1.00 KCAL/MOL
REMARK 927      BINDING AFFINITY PREDICTED BY RF-SCORE:    0.00 PKD
ROOT
HETATM    1  C   UNL     1      -8.805  12.410  68.199  1.00  0.00    -0.191 C  
HETATM    2  C   UNL     1      -9.498  11.053  68.417  1.00  0.00    -0.182 C  
HETATM    3  C   UNL     1     -10.951  11.327  68.856  1.00  0.00    -0.274 C  
HETATM    4  C   UNL     1      -8.797  10.270  69.536  1.00  0.00    -0.166 C  
HETATM    5  N   UNL     1      -9.571  10.269  67.165  1.00  0.00    -0.165 NA 
HETATM    6  H   UNL     1     -10.150  10.754  66.480  1.00  0.00     0.000 HD 
ENDROOT
BRANCH   5   7
HETATM    7  C   UNL     1      -8.273   9.917  66.571  1.00  0.00    -0.121 C  
BRANCH   7   8
HETATM    8  C   UNL     1      -8.363   9.149  65.236  1.00  0.00    -0.146 C  
HETATM    9  O   UNL     1      -9.595   9.512  64.593  1.00  0.00    -0.435 OA 
HETATM   10  H   UNL     1      -9.651   9.038  63.771  1.00  0.00     0.000 HD 
BRANCH   8  11
HETATM   11  C   UNL     1      -8.336   7.631  65.441  1.00  0.00    -0.128 C  
BRANCH  11  12
HETATM   12  O   UNL     1      -9.331   7.278  66.415  1.00  0.00    -0.176 OA 
BRANCH  12  13
HETATM   13  C   UNL     1      -8.995   6.194  67.189  1.00  0.00    -0.111 A  
HETATM   14  C   UNL     1      -8.002   5.276  66.818  1.00  0.00    -0.104 A  
HETATM   15  C   UNL     1      -7.739   4.160  67.608  1.00  0.00    -0.079 A  
HETATM   16  C   UNL     1      -8.439   3.979  68.797  1.00  0.00    -0.100 A  
HETATM   17  C   UNL     1      -9.386   4.925  69.205  1.00  0.00    -0.185 A  
HETATM   18  C   UNL     1      -9.685   6.041  68.403  1.00  0.00    -0.142 A  
HETATM   19  C   UNL     1     -10.693   7.076  68.848  1.00  0.00    -0.227 C  
HETATM   20  C   UNL     1     -11.652   6.543  69.907  1.00  0.00    -0.433 C  
HETATM   21  C   UNL     1     -10.892   5.881  71.041  1.00  0.00    -0.339 C  
HETATM   22  C   UNL     1     -10.055   4.738  70.519  1.00  0.00    -0.220 C  
HETATM   23  O   UNL     1      -9.872   3.718  71.175  1.00  0.00    -0.181 OA 
ENDBRANCH  12  13
ENDBRANCH  11  12
ENDBRANCH   8  11
ENDBRANCH   7   8
ENDBRANCH   5   7
TORSDOF 5
ENDMDL
MODEL      254
REMARK 921   NORMALIZED FREE ENERGY PREDICTED BY IDOCK:   -3.38 KCAL/MOL
REMARK 922        TOTAL FREE ENERGY PREDICTED BY IDOCK:   -5.11 KCAL/MOL
REMARK 923 INTER-LIGAND FREE ENERGY PREDICTED BY IDOCK:   -4.69 KCAL/MOL
REMARK 924 INTRA-LIGAND FREE ENERGY PREDICTED BY IDOCK:   -0.42 KCAL/MOL
REMARK 927      BINDING AFFINITY PREDICTED BY RF-SCORE:    0.00 PKD
ROOT
HETATM    1  C   UNL     1     -12.942  13.762  65.764  1.00  0.00    -0.310 C  
HETATM    2  C   UNL     1     -11.448  13.609  65.425  1.00  0.00    -0.311 C  
HETATM    3  C   UNL     1     -10.912  14.993  65.004  1.00  0.00    -0.436 C  
HETATM    4  C   UNL     1     -11.265  12.643  64.245  1.00  0.00    -0.410 C  
HETATM    5  N   UNL     1     -10.660  13.187  66.603  1.00  0.00    -0.277 NA 
HETATM    6  H   UNL     1     -10.695  13.907  67.325  1.00  0.00     0.000 HD 
ENDROOT
BRANCH   5   7
HETATM    7  C   UNL     1     -11.034  11.883  67.171  1.00  0.00    -0.269 C  
BRANCH   7   8
HETATM    8  C   UNL     1     -11.703  11.953  68.559  1.00  0.00    -0.330 C  
HETATM    9  O   UNL     1     -11.762  13.332  68.958  1.00  0.00    -0.281 OA 
HETATM   10  H   UNL     1     -12.174  13.374  69.813  1.00  0.00     0.000 HD 
BRANCH   8  11
HETATM   11  C   UNL     1     -10.925  11.162  69.614  1.00  0.00    -0.192 C  
BRANCH  11  12
HETATM   12  O   UNL     1     -10.953   9.770  69.263  1.00  0.00    -0.228 OA 
BRANCH  12  13
HETATM   13  C   UNL     1      -9.795   9.094  69.565  1.00  0.00    -0.178 A  
HETATM   14  C   UNL     1      -8.675   9.723  70.126  1.00  0.00    -0.215 A  
HETATM   15  C   UNL     1      -7.504   9.008  70.358  1.00  0.00    -0.089 A  
HETATM   16  C   UNL     1      -7.460   7.647  70.068  1.00  0.00    -0.082 A  
HETATM   17  C   UNL     1      -8.595   7.000  69.567  1.00  0.00    -0.134 A  
HETATM   18  C   UNL     1      -9.776   7.715  69.298  1.00  0.00    -0.164 A  
HETATM   19  C   UNL     1     -11.010   7.018  68.775  1.00  0.00    -0.150 C  
HETATM   20  C   UNL     1     -10.694   5.678  68.121  1.00  0.00    -0.231 C  
HETATM   21  C   UNL     1      -9.830   4.823  69.029  1.00  0.00    -0.239 C  
HETATM   22  C   UNL     1      -8.535   5.532  69.345  1.00  0.00    -0.105 C  
HETATM   23  O   UNL     1      -7.480   4.920  69.483  1.00  0.00    -0.055 OA 
ENDBRANCH  12  13
ENDBRANCH  11  12
ENDBRANCH   8  11
ENDBRANCH   7   8
ENDBRANCH   5   7
TORSDOF 5
ENDMDL
MODEL      255
REMARK 921   NORMALIZED FREE ENERGY PREDICTED BY IDOCK:   -3.37 KCAL/MOL
REMARK 922        TOTAL FREE ENERGY PREDICTED BY IDOCK:   -5.09 KCAL/MOL
REMARK 923 INTER-LIGAND FREE ENERGY PREDICTED BY IDOCK:   -5.10 KCAL/MOL
REMARK 924 INTRA-LIGAND FREE ENERGY PREDICTED BY IDOCK:    0.01 KCAL/MOL
REMARK 927      BINDING AFFINITY PREDICTED BY RF-SCORE:    0.00 PKD
ROOT
HETATM    1  C   UNL     1     -12.139  15.039  64.124  1.00  0.00    -0.244 C  
HETATM    2  C   UNL     1     -11.577  13.703  64.640  1.00  0.00    -0.371 C  
HETATM    3  C   UNL     1     -11.707  12.662  63.508  1.00  0.00    -0.604 C  
HETATM    4  C   UNL     1     -12.394  13.209  65.843  1.00  0.00    -0.462 C  
HETATM    5  N   UNL     1     -10.137  13.803  64.963  1.00  0.00    -0.574 NA 
HETATM    6  H   UNL     1      -9.601  14.006  64.119  1.00  0.00     0.000 HD 
ENDROOT
BRANCH   5   7
HETATM    7  C   UNL     1      -9.799  14.767  66.021  1.00  0.00    -0.324 C  
BRANCH   7   8
HETATM    8  C   UNL     1      -8.971  14.182  67.184  1.00  0.00    -0.225 C  
HETATM    9  O   UNL     1      -7.580  14.377  66.886  1.00  0.00    -0.293 OA 
HETATM   10  H   UNL     1      -7.071  14.016  67.603  1.00  0.00     0.000 HD 
BRANCH   8  11
HETATM   11  C   UNL     1      -9.234  12.686  67.382  1.00  0.00    -0.191 C  
BRANCH  11  12
HETATM   12  O   UNL     1      -8.027  12.062  67.847  1.00  0.00    -0.128 OA 
BRANCH  12  13
HETATM   13  C   UNL     1      -7.596  11.022  67.058  1.00  0.00    -0.127 A  
HETATM   14  C   UNL     1      -6.402  11.072  66.325  1.00  0.00    -0.119 A  
HETATM   15  C   UNL     1      -6.039  10.016  65.492  1.00  0.00    -0.089 A  
HETATM   16  C   UNL     1      -6.848   8.886  65.422  1.00  0.00    -0.072 A  
HETATM   17  C   UNL     1      -8.008   8.804  66.200  1.00  0.00    -0.103 A  
HETATM   18  C   UNL     1      -8.405   9.875  67.022  1.00  0.00    -0.121 A  
HETATM   19  C   UNL     1      -9.647   9.784  67.878  1.00  0.00    -0.158 C  
HETATM   20  C   UNL     1     -10.621   8.719  67.389  1.00  0.00    -0.304 C  
HETATM   21  C   UNL     1      -9.911   7.395  67.172  1.00  0.00    -0.281 C  
HETATM   22  C   UNL     1      -8.803   7.550  66.158  1.00  0.00    -0.159 C  
HETATM   23  O   UNL     1      -8.519   6.653  65.370  1.00  0.00    -0.150 OA 
ENDBRANCH  12  13
ENDBRANCH  11  12
ENDBRANCH   8  11
ENDBRANCH   7   8
ENDBRANCH   5   7
TORSDOF 5
ENDMDL
MODEL      256
REMARK 921   NORMALIZED FREE ENERGY PREDICTED BY IDOCK:   -3.32 KCAL/MOL
REMARK 922        TOTAL FREE ENERGY PREDICTED BY IDOCK:   -5.03 KCAL/MOL
REMARK 923 INTER-LIGAND FREE ENERGY PREDICTED BY IDOCK:   -4.63 KCAL/MOL
REMARK 924 INTRA-LIGAND FREE ENERGY PREDICTED BY IDOCK:   -0.40 KCAL/MOL
REMARK 927      BINDING AFFINITY PREDICTED BY RF-SCORE:    0.00 PKD
ROOT
HETATM    1  C   UNL     1      -9.211   6.415  74.064  1.00  0.00    -0.165 C  
HETATM    2  C   UNL     1      -8.976   6.712  72.572  1.00  0.00    -0.131 C  
HETATM    3  C   UNL     1      -8.175   5.536  71.974  1.00  0.00    -0.115 C  
HETATM    4  C   UNL     1      -8.144   7.992  72.407  1.00  0.00    -0.175 C  
HETATM    5  N   UNL     1     -10.248   6.786  71.821  1.00  0.00    -0.191 NA 
HETATM    6  H   UNL     1     -10.720   5.882  71.839  1.00  0.00     0.000 HD 
ENDROOT
BRANCH   5   7
HETATM    7  C   UNL     1     -11.169   7.847  72.256  1.00  0.00    -0.331 C  
BRANCH   7   8
HETATM    8  C   UNL     1     -11.839   8.629  71.106  1.00  0.00    -0.287 C  
HETATM    9  O   UNL     1     -11.981   7.742  69.986  1.00  0.00    -0.381 OA 
HETATM   10  H   UNL     1     -12.393   8.224  69.278  1.00  0.00     0.000 HD 
BRANCH   8  11
HETATM   11  C   UNL     1     -11.011   9.844  70.678  1.00  0.00    -0.337 C  
BRANCH  11  12
HETATM   12  O   UNL     1     -11.415  10.236  69.356  1.00  0.00    -0.234 OA 
BRANCH  12  13
HETATM   13  C   UNL     1     -11.141  11.549  69.056  1.00  0.00    -0.245 A  
HETATM   14  C   UNL     1     -11.954  12.609  69.479  1.00  0.00    -0.332 A  
HETATM   15  C   UNL     1     -11.667  13.917  69.098  1.00  0.00    -0.382 A  
HETATM   16  C   UNL     1     -10.539  14.176  68.325  1.00  0.00    -0.254 A  
HETATM   17  C   UNL     1      -9.688  13.130  67.952  1.00  0.00    -0.221 A  
HETATM   18  C   UNL     1      -9.981  11.799  68.303  1.00  0.00    -0.200 A  
HETATM   19  C   UNL     1      -9.056  10.668  67.920  1.00  0.00    -0.145 C  
HETATM   20  C   UNL     1      -8.139  11.028  66.756  1.00  0.00    -0.151 C  
HETATM   21  C   UNL     1      -7.440  12.351  67.008  1.00  0.00    -0.037 C  
HETATM   22  C   UNL     1      -8.452  13.456  67.196  1.00  0.00    -0.170 C  
HETATM   23  O   UNL     1      -8.242  14.599  66.801  1.00  0.00    -0.146 OA 
ENDBRANCH  12  13
ENDBRANCH  11  12
ENDBRANCH   8  11
ENDBRANCH   7   8
ENDBRANCH   5   7
TORSDOF 5
ENDMDL
MODEL      257
REMARK 921   NORMALIZED FREE ENERGY PREDICTED BY IDOCK:   -3.32 KCAL/MOL
REMARK 922        TOTAL FREE ENERGY PREDICTED BY IDOCK:   -5.02 KCAL/MOL
REMARK 923 INTER-LIGAND FREE ENERGY PREDICTED BY IDOCK:   -4.41 KCAL/MOL
REMARK 924 INTRA-LIGAND FREE ENERGY PREDICTED BY IDOCK:   -0.61 KCAL/MOL
REMARK 927      BINDING AFFINITY PREDICTED BY RF-SCORE:    0.00 PKD
ROOT
HETATM    1  C   UNL     1      -5.681   6.508  66.829  1.00  0.00    -0.014 C  
HETATM    2  C   UNL     1      -7.168   6.544  67.224  1.00  0.00    -0.078 C  
HETATM    3  C   UNL     1      -7.303   5.916  68.627  1.00  0.00    -0.085 C  
HETATM    4  C   UNL     1      -8.002   5.708  66.242  1.00  0.00    -0.102 C  
HETATM    5  N   UNL     1      -7.673   7.930  67.327  1.00  0.00    -0.103 NA 
HETATM    6  H   UNL     1      -7.189   8.426  68.076  1.00  0.00     0.000 HD 
ENDROOT
BRANCH   5   7
HETATM    7  C   UNL     1      -7.614   8.711  66.083  1.00  0.00    -0.093 C  
BRANCH   7   8
HETATM    8  C   UNL     1      -8.983   9.189  65.557  1.00  0.00    -0.205 C  
HETATM    9  O   UNL     1      -9.031   8.942  64.143  1.00  0.00    -0.426 OA 
HETATM   10  H   UNL     1      -9.875   9.237  63.820  1.00  0.00     0.000 HD 
BRANCH   8  11
HETATM   11  C   UNL     1      -9.208  10.683  65.810  1.00  0.00    -0.189 C  
BRANCH  11  12
HETATM   12  O   UNL     1      -8.760  11.000  67.137  1.00  0.00    -0.132 OA 
BRANCH  12  13
HETATM   13  C   UNL     1      -9.779  11.178  68.043  1.00  0.00    -0.176 A  
HETATM   14  C   UNL     1     -10.394  10.110  68.710  1.00  0.00    -0.211 A  
HETATM   15  C   UNL     1     -11.463  10.337  69.574  1.00  0.00    -0.273 A  
HETATM   16  C   UNL     1     -11.895  11.639  69.807  1.00  0.00    -0.428 A  
HETATM   17  C   UNL     1     -11.243  12.715  69.192  1.00  0.00    -0.300 A  
HETATM   18  C   UNL     1     -10.182  12.500  68.293  1.00  0.00    -0.235 A  
HETATM   19  C   UNL     1      -9.463  13.658  67.642  1.00  0.00    -0.221 C  
HETATM   20  C   UNL     1     -10.289  14.940  67.648  1.00  0.00    -0.242 C  
HETATM   21  C   UNL     1     -10.820  15.235  69.038  1.00  0.00    -0.244 C  
HETATM   22  C   UNL     1     -11.681  14.095  69.527  1.00  0.00    -0.312 C  
HETATM   23  O   UNL     1     -12.667  14.285  70.231  1.00  0.00    -0.345 OA 
ENDBRANCH  12  13
ENDBRANCH  11  12
ENDBRANCH   8  11
ENDBRANCH   7   8
ENDBRANCH   5   7
TORSDOF 5
ENDMDL
MODEL      258
REMARK 921   NORMALIZED FREE ENERGY PREDICTED BY IDOCK:   -3.31 KCAL/MOL
REMARK 922        TOTAL FREE ENERGY PREDICTED BY IDOCK:   -5.01 KCAL/MOL
REMARK 923 INTER-LIGAND FREE ENERGY PREDICTED BY IDOCK:   -4.56 KCAL/MOL
REMARK 924 INTRA-LIGAND FREE ENERGY PREDICTED BY IDOCK:   -0.45 KCAL/MOL
REMARK 927      BINDING AFFINITY PREDICTED BY RF-SCORE:    0.00 PKD
ROOT
HETATM    1  C   UNL     1      -9.451   9.539  71.178  1.00  0.00    -0.032 C  
HETATM    2  C   UNL     1      -9.496   8.014  70.975  1.00  0.00    -0.157 C  
HETATM    3  C   UNL     1     -10.276   7.399  72.156  1.00  0.00    -0.226 C  
HETATM    4  C   UNL     1      -8.074   7.432  70.983  1.00  0.00    -0.101 C  
HETATM    5  N   UNL     1     -10.228   7.648  69.743  1.00  0.00    -0.204 NA 
HETATM    6  H   UNL     1     -11.205   7.933  69.817  1.00  0.00     0.000 HD 
ENDROOT
BRANCH   5   7
HETATM    7  C   UNL     1      -9.645   8.158  68.494  1.00  0.00    -0.148 C  
BRANCH   7   8
HETATM    8  C   UNL     1     -10.626   8.221  67.304  1.00  0.00    -0.265 C  
HETATM    9  O   UNL     1     -10.150   7.330  66.284  1.00  0.00    -0.457 OA 
HETATM   10  H   UNL     1     -10.755   7.369  65.552  1.00  0.00     0.000 HD 
BRANCH   8  11
HETATM   11  C   UNL     1     -10.735   9.633  66.721  1.00  0.00    -0.078 C  
BRANCH  11  12
HETATM   12  O   UNL     1     -10.986  10.558  67.792  1.00  0.00    -0.271 OA 
BRANCH  12  13
HETATM   13  C   UNL     1     -10.949  11.877  67.409  1.00  0.00    -0.263 A  
HETATM   14  C   UNL     1     -12.099  12.595  67.050  1.00  0.00    -0.202 A  
HETATM   15  C   UNL     1     -12.002  13.913  66.611  1.00  0.00    -0.474 A  
HETATM   16  C   UNL     1     -10.758  14.535  66.570  1.00  0.00    -0.312 A  
HETATM   17  C   UNL     1      -9.614  13.844  66.988  1.00  0.00    -0.254 A  
HETATM   18  C   UNL     1      -9.691  12.502  67.404  1.00  0.00    -0.194 A  
HETATM   19  C   UNL     1      -8.463  11.759  67.874  1.00  0.00    -0.154 C  
HETATM   20  C   UNL     1      -7.168  12.394  67.381  1.00  0.00    -0.148 C  
HETATM   21  C   UNL     1      -7.149  13.882  67.675  1.00  0.00    -0.190 C  
HETATM   22  C   UNL     1      -8.316  14.567  67.006  1.00  0.00    -0.167 C  
HETATM   23  O   UNL     1      -8.225  15.703  66.552  1.00  0.00    -0.264 OA 
ENDBRANCH  12  13
ENDBRANCH  11  12
ENDBRANCH   8  11
ENDBRANCH   7   8
ENDBRANCH   5   7
TORSDOF 5
ENDMDL
MODEL      259
REMARK 921   NORMALIZED FREE ENERGY PREDICTED BY IDOCK:   -3.31 KCAL/MOL
REMARK 922        TOTAL FREE ENERGY PREDICTED BY IDOCK:   -5.01 KCAL/MOL
REMARK 923 INTER-LIGAND FREE ENERGY PREDICTED BY IDOCK:   -4.98 KCAL/MOL
REMARK 924 INTRA-LIGAND FREE ENERGY PREDICTED BY IDOCK:   -0.03 KCAL/MOL
REMARK 927      BINDING AFFINITY PREDICTED BY RF-SCORE:    0.00 PKD
ROOT
HETATM    1  C   UNL     1      -7.923   9.280  71.068  1.00  0.00    -0.115 C  
HETATM    2  C   UNL     1      -6.797   9.163  70.026  1.00  0.00    -0.049 C  
HETATM    3  C   UNL     1      -5.756   8.158  70.562  1.00  0.00    -0.029 C  
HETATM    4  C   UNL     1      -6.103  10.519  69.835  1.00  0.00    -0.079 C  
HETATM    5  N   UNL     1      -7.294   8.618  68.743  1.00  0.00    -0.082 NA 
HETATM    6  H   UNL     1      -7.633   7.665  68.874  1.00  0.00     0.000 HD 
ENDROOT
BRANCH   5   7
HETATM    7  C   UNL     1      -8.318   9.433  68.073  1.00  0.00    -0.119 C  
BRANCH   7   8
HETATM    8  C   UNL     1      -8.268   9.390  66.532  1.00  0.00    -0.115 C  
HETATM    9  O   UNL     1      -6.935   9.030  66.138  1.00  0.00    -0.082 OA 
HETATM   10  H   UNL     1      -6.904   9.004  65.189  1.00  0.00     0.000 HD 
BRANCH   8  11
HETATM   11  C   UNL     1      -8.625  10.741  65.906  1.00  0.00    -0.179 C  
BRANCH  11  12
HETATM   12  O   UNL     1      -9.175  11.592  66.924  1.00  0.00    -0.168 OA 
BRANCH  12  13
HETATM   13  C   UNL     1      -9.306  12.906  66.543  1.00  0.00    -0.222 A  
HETATM   14  C   UNL     1      -8.424  13.909  66.967  1.00  0.00    -0.153 A  
HETATM   15  C   UNL     1      -8.633  15.236  66.601  1.00  0.00    -0.305 A  
HETATM   16  C   UNL     1      -9.704  15.561  65.774  1.00  0.00    -0.383 A  
HETATM   17  C   UNL     1     -10.551  14.555  65.295  1.00  0.00    -0.400 A  
HETATM   18  C   UNL     1     -10.371  13.214  65.681  1.00  0.00    -0.291 A  
HETATM   19  C   UNL     1     -11.272  12.122  65.152  1.00  0.00    -0.378 C  
HETATM   20  C   UNL     1     -12.602  12.656  64.635  1.00  0.00    -0.517 C  
HETATM   21  C   UNL     1     -12.384  13.809  63.671  1.00  0.00    -0.256 C  
HETATM   22  C   UNL     1     -11.635  14.930  64.351  1.00  0.00    -0.288 C  
HETATM   23  O   UNL     1     -11.859  16.108  64.090  1.00  0.00    -0.769 OA 
ENDBRANCH  12  13
ENDBRANCH  11  12
ENDBRANCH   8  11
ENDBRANCH   7   8
ENDBRANCH   5   7
TORSDOF 5
ENDMDL
MODEL      260
REMARK 921   NORMALIZED FREE ENERGY PREDICTED BY IDOCK:   -3.31 KCAL/MOL
REMARK 922        TOTAL FREE ENERGY PREDICTED BY IDOCK:   -5.01 KCAL/MOL
REMARK 923 INTER-LIGAND FREE ENERGY PREDICTED BY IDOCK:   -4.69 KCAL/MOL
REMARK 924 INTRA-LIGAND FREE ENERGY PREDICTED BY IDOCK:   -0.31 KCAL/MOL
REMARK 927      BINDING AFFINITY PREDICTED BY RF-SCORE:    0.00 PKD
ROOT
HETATM    1  C   UNL     1     -10.080  18.270  65.970  1.00  0.00    -0.278 C  
HETATM    2  C   UNL     1     -10.004  18.210  67.506  1.00  0.00    -0.332 C  
HETATM    3  C   UNL     1     -10.688  19.475  68.065  1.00  0.00    -0.346 C  
HETATM    4  C   UNL     1      -8.540  18.210  67.968  1.00  0.00    -0.272 C  
HETATM    5  N   UNL     1     -10.747  17.050  68.045  1.00  0.00    -0.369 NA 
HETATM    6  H   UNL     1     -11.741  17.140  67.834  1.00  0.00     0.000 HD 
ENDROOT
BRANCH   5   7
HETATM    7  C   UNL     1     -10.254  15.735  67.611  1.00  0.00    -0.266 C  
BRANCH   7   8
HETATM    8  C   UNL     1      -9.893  14.772  68.761  1.00  0.00    -0.227 C  
HETATM    9  O   UNL     1      -9.450  15.556  69.879  1.00  0.00    -0.335 OA 
HETATM   10  H   UNL     1      -9.227  14.963  70.587  1.00  0.00     0.000 HD 
BRANCH   8  11
HETATM   11  C   UNL     1      -8.782  13.795  68.366  1.00  0.00    -0.162 C  
BRANCH  11  12
HETATM   12  O   UNL     1      -9.351  12.742  67.572  1.00  0.00    -0.178 OA 
BRANCH  12  13
HETATM   13  C   UNL     1      -8.795  11.506  67.802  1.00  0.00    -0.153 A  
HETATM   14  C   UNL     1      -7.613  11.079  67.181  1.00  0.00    -0.117 A  
HETATM   15  C   UNL     1      -7.122   9.795  67.401  1.00  0.00    -0.085 A  
HETATM   16  C   UNL     1      -7.790   8.944  68.277  1.00  0.00    -0.101 A  
HETATM   17  C   UNL     1      -8.935   9.387  68.949  1.00  0.00    -0.136 A  
HETATM   18  C   UNL     1      -9.461  10.670  68.713  1.00  0.00    -0.186 A  
HETATM   19  C   UNL     1     -10.687  11.159  69.450  1.00  0.00    -0.220 C  
HETATM   20  C   UNL     1     -11.524  10.019  70.018  1.00  0.00    -0.310 C  
HETATM   21  C   UNL     1     -10.660   9.057  70.811  1.00  0.00    -0.300 C  
HETATM   22  C   UNL     1      -9.574   8.478  69.936  1.00  0.00    -0.171 C  
HETATM   23  O   UNL     1      -9.180   7.324  70.072  1.00  0.00    -0.149 OA 
ENDBRANCH  12  13
ENDBRANCH  11  12
ENDBRANCH   8  11
ENDBRANCH   7   8
ENDBRANCH   5   7
TORSDOF 5
ENDMDL
MODEL      261
REMARK 921   NORMALIZED FREE ENERGY PREDICTED BY IDOCK:   -3.31 KCAL/MOL
REMARK 922        TOTAL FREE ENERGY PREDICTED BY IDOCK:   -5.00 KCAL/MOL
REMARK 923 INTER-LIGAND FREE ENERGY PREDICTED BY IDOCK:   -4.08 KCAL/MOL
REMARK 924 INTRA-LIGAND FREE ENERGY PREDICTED BY IDOCK:   -0.92 KCAL/MOL
REMARK 927      BINDING AFFINITY PREDICTED BY RF-SCORE:    0.00 PKD
ROOT
HETATM    1  C   UNL     1      -9.356  10.086  69.823  1.00  0.00    -0.233 C  
HETATM    2  C   UNL     1      -8.138  10.386  68.932  1.00  0.00    -0.129 C  
HETATM    3  C   UNL     1      -6.957  10.762  69.852  1.00  0.00    -0.127 C  
HETATM    4  C   UNL     1      -8.430  11.580  68.012  1.00  0.00    -0.148 C  
HETATM    5  N   UNL     1      -7.716   9.195  68.164  1.00  0.00    -0.091 NA 
HETATM    6  H   UNL     1      -7.405   8.459  68.798  1.00  0.00     0.000 HD 
ENDROOT
BRANCH   5   7
HETATM    7  C   UNL     1      -8.721   8.665  67.230  1.00  0.00    -0.129 C  
BRANCH   7   8
HETATM    8  C   UNL     1      -8.504   7.195  66.817  1.00  0.00    -0.121 C  
HETATM    9  O   UNL     1      -9.037   7.018  65.495  1.00  0.00    -0.376 OA 
HETATM   10  H   UNL     1      -8.903   6.112  65.241  1.00  0.00     0.000 HD 
BRANCH   8  11
HETATM   11  C   UNL     1      -9.202   6.220  67.769  1.00  0.00    -0.115 C  
BRANCH  11  12
HETATM   12  O   UNL     1      -8.766   6.491  69.111  1.00  0.00    -0.128 OA 
BRANCH  12  13
HETATM   13  C   UNL     1      -9.768   6.422  70.048  1.00  0.00    -0.165 A  
HETATM   14  C   UNL     1     -11.008   7.055  69.881  1.00  0.00    -0.296 A  
HETATM   15  C   UNL     1     -11.969   7.004  70.887  1.00  0.00    -0.409 A  
HETATM   16  C   UNL     1     -11.711   6.284  72.050  1.00  0.00    -0.374 A  
HETATM   17  C   UNL     1     -10.501   5.597  72.196  1.00  0.00    -0.265 A  
HETATM   18  C   UNL     1      -9.507   5.664  71.202  1.00  0.00    -0.191 A  
HETATM   19  C   UNL     1      -8.206   4.909  71.346  1.00  0.00    -0.112 C  
HETATM   20  C   UNL     1      -7.898   4.541  72.793  1.00  0.00    -0.088 C  
HETATM   21  C   UNL     1      -9.091   3.864  73.444  1.00  0.00    -0.108 C  
HETATM   22  C   UNL     1     -10.295   4.774  73.415  1.00  0.00    -0.190 C  
HETATM   23  O   UNL     1     -11.114   4.791  74.329  1.00  0.00    -0.289 OA 
ENDBRANCH  12  13
ENDBRANCH  11  12
ENDBRANCH   8  11
ENDBRANCH   7   8
ENDBRANCH   5   7
TORSDOF 5
ENDMDL
MODEL      262
REMARK 921   NORMALIZED FREE ENERGY PREDICTED BY IDOCK:   -3.29 KCAL/MOL
REMARK 922        TOTAL FREE ENERGY PREDICTED BY IDOCK:   -4.98 KCAL/MOL
REMARK 923 INTER-LIGAND FREE ENERGY PREDICTED BY IDOCK:   -4.46 KCAL/MOL
REMARK 924 INTRA-LIGAND FREE ENERGY PREDICTED BY IDOCK:   -0.52 KCAL/MOL
REMARK 927      BINDING AFFINITY PREDICTED BY RF-SCORE:    0.00 PKD
ROOT
HETATM    1  C   UNL     1     -11.273  16.120  67.823  1.00  0.00    -0.199 C  
HETATM    2  C   UNL     1     -10.790  15.083  68.853  1.00  0.00    -0.243 C  
HETATM    3  C   UNL     1     -11.515  15.363  70.186  1.00  0.00    -0.338 C  
HETATM    4  C   UNL     1      -9.279  15.227  69.088  1.00  0.00    -0.234 C  
HETATM    5  N   UNL     1     -11.151  13.705  68.453  1.00  0.00    -0.252 NA 
HETATM    6  H   UNL     1     -12.166  13.601  68.429  1.00  0.00     0.000 HD 
ENDROOT
BRANCH   5   7
HETATM    7  C   UNL     1     -10.566  13.249  67.184  1.00  0.00    -0.258 C  
BRANCH   7   8
HETATM    8  C   UNL     1     -10.394  11.720  67.068  1.00  0.00    -0.214 C  
HETATM    9  O   UNL     1      -9.678  11.261  68.224  1.00  0.00    -0.183 OA 
HETATM   10  H   UNL     1      -9.572  10.319  68.152  1.00  0.00     0.000 HD 
BRANCH   8  11
HETATM   11  C   UNL     1      -9.618  11.321  65.809  1.00  0.00    -0.227 C  
BRANCH  11  12
HETATM   12  O   UNL     1     -10.092  10.043  65.358  1.00  0.00    -0.310 OA 
BRANCH  12  13
HETATM   13  C   UNL     1      -9.131   9.061  65.352  1.00  0.00    -0.193 A  
HETATM   14  C   UNL     1      -7.995   9.116  64.532  1.00  0.00    -0.127 A  
HETATM   15  C   UNL     1      -7.080   8.067  64.519  1.00  0.00    -0.077 A  
HETATM   16  C   UNL     1      -7.274   6.975  65.359  1.00  0.00    -0.073 A  
HETATM   17  C   UNL     1      -8.372   6.943  66.227  1.00  0.00    -0.126 A  
HETATM   18  C   UNL     1      -9.322   7.980  66.229  1.00  0.00    -0.246 A  
HETATM   19  C   UNL     1     -10.499   7.959  67.177  1.00  0.00    -0.414 C  
HETATM   20  C   UNL     1     -10.808   6.561  67.699  1.00  0.00    -0.419 C  
HETATM   21  C   UNL     1      -9.555   5.898  68.242  1.00  0.00    -0.134 C  
HETATM   22  C   UNL     1      -8.502   5.798  67.164  1.00  0.00    -0.107 C  
HETATM   23  O   UNL     1      -7.733   4.843  67.098  1.00  0.00    -0.090 OA 
ENDBRANCH  12  13
ENDBRANCH  11  12
ENDBRANCH   8  11
ENDBRANCH   7   8
ENDBRANCH   5   7
TORSDOF 5
ENDMDL
MODEL      263
REMARK 921   NORMALIZED FREE ENERGY PREDICTED BY IDOCK:   -3.29 KCAL/MOL
REMARK 922        TOTAL FREE ENERGY PREDICTED BY IDOCK:   -4.98 KCAL/MOL
REMARK 923 INTER-LIGAND FREE ENERGY PREDICTED BY IDOCK:   -4.35 KCAL/MOL
REMARK 924 INTRA-LIGAND FREE ENERGY PREDICTED BY IDOCK:   -0.63 KCAL/MOL
REMARK 927      BINDING AFFINITY PREDICTED BY RF-SCORE:    0.00 PKD
ROOT
HETATM    1  C   UNL     1     -10.514   8.569  70.514  1.00  0.00    -0.230 C  
HETATM    2  C   UNL     1      -9.965   7.200  70.075  1.00  0.00    -0.179 C  
HETATM    3  C   UNL     1     -10.850   6.107  70.711  1.00  0.00    -0.350 C  
HETATM    4  C   UNL     1      -8.528   7.012  70.585  1.00  0.00    -0.139 C  
HETATM    5  N   UNL     1     -10.053   7.019  68.610  1.00  0.00    -0.160 NA 
HETATM    6  H   UNL     1     -11.029   7.020  68.313  1.00  0.00     0.000 HD 
ENDROOT
BRANCH   5   7
HETATM    7  C   UNL     1      -9.281   7.986  67.814  1.00  0.00    -0.134 C  
BRANCH   7   8
HETATM    8  C   UNL     1     -10.000   8.495  66.547  1.00  0.00    -0.280 C  
HETATM    9  O   UNL     1      -9.407   7.853  65.407  1.00  0.00    -0.381 OA 
HETATM   10  H   UNL     1      -9.850   8.167  64.628  1.00  0.00     0.000 HD 
BRANCH   8  11
HETATM   11  C   UNL     1      -9.876  10.012  66.385  1.00  0.00    -0.224 C  
BRANCH  11  12
HETATM   12  O   UNL     1     -10.293  10.644  67.606  1.00  0.00    -0.188 OA 
BRANCH  12  13
HETATM   13  C   UNL     1      -9.547  11.747  67.946  1.00  0.00    -0.187 A  
HETATM   14  C   UNL     1      -8.166  11.687  68.178  1.00  0.00    -0.151 A  
HETATM   15  C   UNL     1      -7.465  12.821  68.579  1.00  0.00    -0.120 A  
HETATM   16  C   UNL     1      -8.136  14.033  68.709  1.00  0.00    -0.065 A  
HETATM   17  C   UNL     1      -9.502  14.114  68.418  1.00  0.00    -0.214 A  
HETATM   18  C   UNL     1     -10.230  12.971  68.042  1.00  0.00    -0.233 A  
HETATM   19  C   UNL     1     -11.702  13.056  67.708  1.00  0.00    -0.405 C  
HETATM   20  C   UNL     1     -12.365  14.298  68.293  1.00  0.00    -0.024 C  
HETATM   21  C   UNL     1     -11.572  15.546  67.953  1.00  0.00    -0.231 C  
HETATM   22  C   UNL     1     -10.166  15.441  68.492  1.00  0.00    -0.219 C  
HETATM   23  O   UNL     1      -9.561  16.422  68.915  1.00  0.00    -0.233 OA 
ENDBRANCH  12  13
ENDBRANCH  11  12
ENDBRANCH   8  11
ENDBRANCH   7   8
ENDBRANCH   5   7
TORSDOF 5
ENDMDL
MODEL      264
REMARK 921   NORMALIZED FREE ENERGY PREDICTED BY IDOCK:   -3.29 KCAL/MOL
REMARK 922        TOTAL FREE ENERGY PREDICTED BY IDOCK:   -4.98 KCAL/MOL
REMARK 923 INTER-LIGAND FREE ENERGY PREDICTED BY IDOCK:   -4.18 KCAL/MOL
REMARK 924 INTRA-LIGAND FREE ENERGY PREDICTED BY IDOCK:   -0.80 KCAL/MOL
REMARK 927      BINDING AFFINITY PREDICTED BY RF-SCORE:    0.00 PKD
ROOT
HETATM    1  C   UNL     1      -7.028   5.858  65.739  1.00  0.00    -0.065 C  
HETATM    2  C   UNL     1      -8.287   5.839  64.855  1.00  0.00    -0.127 C  
HETATM    3  C   UNL     1      -9.322   4.907  65.521  1.00  0.00    -0.163 C  
HETATM    4  C   UNL     1      -7.956   5.274  63.465  1.00  0.00    -0.097 C  
HETATM    5  N   UNL     1      -8.914   7.176  64.765  1.00  0.00    -0.054 NA 
HETATM    6  H   UNL     1      -9.241   7.473  65.684  1.00  0.00     0.000 HD 
ENDROOT
BRANCH   5   7
HETATM    7  C   UNL     1      -8.072   8.222  64.166  1.00  0.00    -0.136 C  
BRANCH   7   8
HETATM    8  C   UNL     1      -8.621   9.656  64.317  1.00  0.00    -0.191 C  
HETATM    9  O   UNL     1      -7.878  10.515  63.438  1.00  0.00    -0.278 OA 
HETATM   10  H   UNL     1      -8.217  11.397  63.532  1.00  0.00     0.000 HD 
BRANCH   8  11
HETATM   11  C   UNL     1      -8.488  10.175  65.752  1.00  0.00    -0.147 C  
BRANCH  11  12
HETATM   12  O   UNL     1      -9.150   9.260  66.639  1.00  0.00    -0.135 OA 
BRANCH  12  13
HETATM   13  C   UNL     1      -9.878   9.872  67.631  1.00  0.00    -0.163 A  
HETATM   14  C   UNL     1     -10.299  11.207  67.549  1.00  0.00    -0.228 A  
HETATM   15  C   UNL     1     -10.982  11.800  68.607  1.00  0.00    -0.269 A  
HETATM   16  C   UNL     1     -11.285  11.047  69.738  1.00  0.00    -0.339 A  
HETATM   17  C   UNL     1     -10.923   9.696  69.800  1.00  0.00    -0.266 A  
HETATM   18  C   UNL     1     -10.205   9.092  68.752  1.00  0.00    -0.226 A  
HETATM   19  C   UNL     1      -9.829   7.629  68.805  1.00  0.00    -0.165 C  
HETATM   20  C   UNL     1      -9.839   7.072  70.224  1.00  0.00    -0.180 C  
HETATM   21  C   UNL     1     -11.139   7.410  70.929  1.00  0.00    -0.283 C  
HETATM   22  C   UNL     1     -11.334   8.906  70.989  1.00  0.00    -0.291 C  
HETATM   23  O   UNL     1     -11.872   9.450  71.948  1.00  0.00    -0.373 OA 
ENDBRANCH  12  13
ENDBRANCH  11  12
ENDBRANCH   8  11
ENDBRANCH   7   8
ENDBRANCH   5   7
TORSDOF 5
ENDMDL
MODEL      265
REMARK 921   NORMALIZED FREE ENERGY PREDICTED BY IDOCK:   -3.28 KCAL/MOL
REMARK 922        TOTAL FREE ENERGY PREDICTED BY IDOCK:   -4.97 KCAL/MOL
REMARK 923 INTER-LIGAND FREE ENERGY PREDICTED BY IDOCK:   -4.23 KCAL/MOL
REMARK 924 INTRA-LIGAND FREE ENERGY PREDICTED BY IDOCK:   -0.73 KCAL/MOL
REMARK 927      BINDING AFFINITY PREDICTED BY RF-SCORE:    0.00 PKD
ROOT
HETATM    1  C   UNL     1      -9.320   6.288  74.315  1.00  0.00    -0.185 C  
HETATM    2  C   UNL     1      -9.076   6.523  72.813  1.00  0.00    -0.136 C  
HETATM    3  C   UNL     1      -8.248   5.339  72.274  1.00  0.00    -0.118 C  
HETATM    4  C   UNL     1      -8.269   7.812  72.599  1.00  0.00    -0.171 C  
HETATM    5  N   UNL     1     -10.343   6.540  72.050  1.00  0.00    -0.198 NA 
HETATM    6  H   UNL     1     -10.798   5.628  72.103  1.00  0.00     0.000 HD 
ENDROOT
BRANCH   5   7
HETATM    7  C   UNL     1     -11.289   7.600  72.430  1.00  0.00    -0.329 C  
BRANCH   7   8
HETATM    8  C   UNL     1     -12.122   8.167  71.262  1.00  0.00    -0.288 C  
HETATM    9  O   UNL     1     -12.403   7.094  70.350  1.00  0.00    -0.589 OA 
HETATM   10  H   UNL     1     -12.917   7.444  69.631  1.00  0.00     0.000 HD 
BRANCH   8  11
HETATM   11  C   UNL     1     -11.382   9.278  70.512  1.00  0.00    -0.258 C  
BRANCH  11  12
HETATM   12  O   UNL     1     -10.325   8.689  69.738  1.00  0.00    -0.202 OA 
BRANCH  12  13
HETATM   13  C   UNL     1      -9.907   9.464  68.683  1.00  0.00    -0.163 A  
HETATM   14  C   UNL     1     -10.686   9.667  67.535  1.00  0.00    -0.321 A  
HETATM   15  C   UNL     1     -10.192  10.413  66.468  1.00  0.00    -0.289 A  
HETATM   16  C   UNL     1      -8.932  10.996  66.560  1.00  0.00    -0.181 A  
HETATM   17  C   UNL     1      -8.176  10.850  67.729  1.00  0.00    -0.116 A  
HETATM   18  C   UNL     1      -8.647  10.074  68.803  1.00  0.00    -0.131 A  
HETATM   19  C   UNL     1      -7.843   9.929  70.074  1.00  0.00    -0.192 C  
HETATM   20  C   UNL     1      -6.364  10.241  69.872  1.00  0.00    -0.082 C  
HETATM   21  C   UNL     1      -6.184  11.573  69.166  1.00  0.00    -0.071 C  
HETATM   22  C   UNL     1      -6.870  11.553  67.821  1.00  0.00    -0.077 C  
HETATM   23  O   UNL     1      -6.409  12.148  66.852  1.00  0.00    -0.135 OA 
ENDBRANCH  12  13
ENDBRANCH  11  12
ENDBRANCH   8  11
ENDBRANCH   7   8
ENDBRANCH   5   7
TORSDOF 5
ENDMDL
MODEL      266
REMARK 921   NORMALIZED FREE ENERGY PREDICTED BY IDOCK:   -3.21 KCAL/MOL
REMARK 922        TOTAL FREE ENERGY PREDICTED BY IDOCK:   -4.88 KCAL/MOL
REMARK 923 INTER-LIGAND FREE ENERGY PREDICTED BY IDOCK:   -4.36 KCAL/MOL
REMARK 924 INTRA-LIGAND FREE ENERGY PREDICTED BY IDOCK:   -0.52 KCAL/MOL
REMARK 927      BINDING AFFINITY PREDICTED BY RF-SCORE:    0.00 PKD
ROOT
HETATM    1  C   UNL     1     -12.095  13.897  64.206  1.00  0.00    -0.477 C  
HETATM    2  C   UNL     1     -11.187  14.653  65.192  1.00  0.00    -0.374 C  
HETATM    3  C   UNL     1     -11.198  16.146  64.799  1.00  0.00    -0.313 C  
HETATM    4  C   UNL     1      -9.743  14.140  65.090  1.00  0.00     0.021 C  
HETATM    5  N   UNL     1     -11.698  14.573  66.578  1.00  0.00    -0.380 NA 
HETATM    6  H   UNL     1     -12.604  15.036  66.645  1.00  0.00     0.000 HD 
ENDROOT
BRANCH   5   7
HETATM    7  C   UNL     1     -11.781  13.216  67.136  1.00  0.00    -0.377 C  
BRANCH   7   8
HETATM    8  C   UNL     1     -11.281  13.087  68.590  1.00  0.00    -0.277 C  
HETATM    9  O   UNL     1      -9.849  13.188  68.582  1.00  0.00    -0.359 OA 
HETATM   10  H   UNL     1      -9.541  13.109  69.478  1.00  0.00     0.000 HD 
BRANCH   8  11
HETATM   11  C   UNL     1     -11.682  11.750  69.221  1.00  0.00    -0.335 C  
BRANCH  11  12
HETATM   12  O   UNL     1     -10.492  11.037  69.591  1.00  0.00    -0.161 OA 
BRANCH  12  13
HETATM   13  C   UNL     1     -10.182   9.995  68.750  1.00  0.00    -0.186 A  
HETATM   14  C   UNL     1     -11.092   9.476  67.818  1.00  0.00    -0.034 A  
HETATM   15  C   UNL     1     -10.751   8.380  67.030  1.00  0.00    -0.204 A  
HETATM   16  C   UNL     1      -9.480   7.823  67.140  1.00  0.00    -0.198 A  
HETATM   17  C   UNL     1      -8.545   8.376  68.022  1.00  0.00    -0.135 A  
HETATM   18  C   UNL     1      -8.886   9.463  68.848  1.00  0.00    -0.136 A  
HETATM   19  C   UNL     1      -7.874  10.076  69.789  1.00  0.00    -0.185 C  
HETATM   20  C   UNL     1      -6.721   9.131  70.107  1.00  0.00    -0.050 C  
HETATM   21  C   UNL     1      -6.125   8.557  68.835  1.00  0.00    -0.044 C  
HETATM   22  C   UNL     1      -7.175   7.804  68.054  1.00  0.00    -0.087 C  
HETATM   23  O   UNL     1      -6.902   6.795  67.411  1.00  0.00    -0.067 OA 
ENDBRANCH  12  13
ENDBRANCH  11  12
ENDBRANCH   8  11
ENDBRANCH   7   8
ENDBRANCH   5   7
TORSDOF 5
ENDMDL
MODEL      267
REMARK 921   NORMALIZED FREE ENERGY PREDICTED BY IDOCK:   -3.19 KCAL/MOL
REMARK 922        TOTAL FREE ENERGY PREDICTED BY IDOCK:   -4.85 KCAL/MOL
REMARK 923 INTER-LIGAND FREE ENERGY PREDICTED BY IDOCK:   -4.42 KCAL/MOL
REMARK 924 INTRA-LIGAND FREE ENERGY PREDICTED BY IDOCK:   -0.43 KCAL/MOL
REMARK 927      BINDING AFFINITY PREDICTED BY RF-SCORE:    0.00 PKD
ROOT
HETATM    1  C   UNL     1      -8.658   6.880  68.414  1.00  0.00    -0.125 C  
HETATM    2  C   UNL     1      -9.637   7.006  67.234  1.00  0.00    -0.141 C  
HETATM    3  C   UNL     1     -10.969   6.346  67.649  1.00  0.00    -0.441 C  
HETATM    4  C   UNL     1      -9.093   6.260  66.007  1.00  0.00    -0.126 C  
HETATM    5  N   UNL     1      -9.941   8.420  66.924  1.00  0.00    -0.244 NA 
HETATM    6  H   UNL     1     -10.419   8.858  67.711  1.00  0.00     0.000 HD 
ENDROOT
BRANCH   5   7
HETATM    7  C   UNL     1      -8.784   9.233  66.518  1.00  0.00    -0.132 C  
BRANCH   7   8
HETATM    8  C   UNL     1      -8.976  10.754  66.689  1.00  0.00    -0.153 C  
HETATM    9  O   UNL     1      -7.685  11.379  66.614  1.00  0.00    -0.152 OA 
HETATM   10  H   UNL     1      -7.803  12.315  66.719  1.00  0.00     0.000 HD 
BRANCH   8  11
HETATM   11  C   UNL     1      -9.623  11.106  68.031  1.00  0.00    -0.176 C  
BRANCH  11  12
HETATM   12  O   UNL     1      -9.036  12.321  68.524  1.00  0.00    -0.166 OA 
BRANCH  12  13
HETATM   13  C   UNL     1      -9.705  13.459  68.141  1.00  0.00    -0.226 A  
HETATM   14  C   UNL     1     -11.098  13.505  67.987  1.00  0.00    -0.283 A  
HETATM   15  C   UNL     1     -11.723  14.665  67.539  1.00  0.00    -0.403 A  
HETATM   16  C   UNL     1     -10.961  15.802  67.282  1.00  0.00    -0.259 A  
HETATM   17  C   UNL     1      -9.578  15.782  67.495  1.00  0.00    -0.224 A  
HETATM   18  C   UNL     1      -8.928  14.608  67.917  1.00  0.00    -0.174 A  
HETATM   19  C   UNL     1      -7.437  14.587  68.167  1.00  0.00    -0.126 C  
HETATM   20  C   UNL     1      -6.707  15.720  67.456  1.00  0.00    -0.220 C  
HETATM   21  C   UNL     1      -7.371  17.055  67.743  1.00  0.00    -0.172 C  
HETATM   22  C   UNL     1      -8.810  17.037  67.287  1.00  0.00    -0.211 C  
HETATM   23  O   UNL     1      -9.354  18.035  66.824  1.00  0.00    -0.268 OA 
ENDBRANCH  12  13
ENDBRANCH  11  12
ENDBRANCH   8  11
ENDBRANCH   7   8
ENDBRANCH   5   7
TORSDOF 5
ENDMDL
MODEL      268
REMARK 921   NORMALIZED FREE ENERGY PREDICTED BY IDOCK:   -3.19 KCAL/MOL
REMARK 922        TOTAL FREE ENERGY PREDICTED BY IDOCK:   -4.85 KCAL/MOL
REMARK 923 INTER-LIGAND FREE ENERGY PREDICTED BY IDOCK:   -4.46 KCAL/MOL
REMARK 924 INTRA-LIGAND FREE ENERGY PREDICTED BY IDOCK:   -0.39 KCAL/MOL
REMARK 927      BINDING AFFINITY PREDICTED BY RF-SCORE:    0.00 PKD
ROOT
HETATM    1  C   UNL     1      -6.842   8.994  64.009  1.00  0.00    -0.088 C  
HETATM    2  C   UNL     1      -6.935   7.812  64.990  1.00  0.00    -0.059 C  
HETATM    3  C   UNL     1      -5.498   7.358  65.325  1.00  0.00    -0.033 C  
HETATM    4  C   UNL     1      -7.672   6.633  64.338  1.00  0.00    -0.113 C  
HETATM    5  N   UNL     1      -7.564   8.210  66.268  1.00  0.00    -0.088 NA 
HETATM    6  H   UNL     1      -6.987   8.903  66.744  1.00  0.00     0.000 HD 
ENDROOT
BRANCH   5   7
HETATM    7  C   UNL     1      -8.949   8.694  66.159  1.00  0.00    -0.180 C  
BRANCH   7   8
HETATM    8  C   UNL     1      -9.579   9.146  67.493  1.00  0.00    -0.150 C  
HETATM    9  O   UNL     1     -11.007   9.072  67.361  1.00  0.00    -0.444 OA 
HETATM   10  H   UNL     1     -11.395   9.350  68.182  1.00  0.00     0.000 HD 
BRANCH   8  11
HETATM   11  C   UNL     1      -9.186  10.580  67.859  1.00  0.00    -0.140 C  
BRANCH  11  12
HETATM   12  O   UNL     1      -9.257  11.395  66.678  1.00  0.00    -0.172 OA 
BRANCH  12  13
HETATM   13  C   UNL     1     -10.115  12.463  66.787  1.00  0.00    -0.214 A  
HETATM   14  C   UNL     1     -11.502  12.340  66.625  1.00  0.00    -0.431 A  
HETATM   15  C   UNL     1     -12.324  13.462  66.686  1.00  0.00    -0.324 A  
HETATM   16  C   UNL     1     -11.766  14.710  66.952  1.00  0.00    -0.366 A  
HETATM   17  C   UNL     1     -10.390  14.829  67.178  1.00  0.00    -0.255 A  
HETATM   18  C   UNL     1      -9.543  13.709  67.089  1.00  0.00    -0.241 A  
HETATM   19  C   UNL     1      -8.060  13.830  67.351  1.00  0.00    -0.188 C  
HETATM   20  C   UNL     1      -7.551  15.259  67.203  1.00  0.00    -0.224 C  
HETATM   21  C   UNL     1      -8.408  16.223  68.002  1.00  0.00    -0.165 C  
HETATM   22  C   UNL     1      -9.844  16.163  67.538  1.00  0.00    -0.237 C  
HETATM   23  O   UNL     1     -10.560  17.159  67.520  1.00  0.00    -0.347 OA 
ENDBRANCH  12  13
ENDBRANCH  11  12
ENDBRANCH   8  11
ENDBRANCH   7   8
ENDBRANCH   5   7
TORSDOF 5
ENDMDL
MODEL      269
REMARK 921   NORMALIZED FREE ENERGY PREDICTED BY IDOCK:   -3.16 KCAL/MOL
REMARK 922        TOTAL FREE ENERGY PREDICTED BY IDOCK:   -4.81 KCAL/MOL
REMARK 923 INTER-LIGAND FREE ENERGY PREDICTED BY IDOCK:   -4.41 KCAL/MOL
REMARK 924 INTRA-LIGAND FREE ENERGY PREDICTED BY IDOCK:   -0.40 KCAL/MOL
REMARK 927      BINDING AFFINITY PREDICTED BY RF-SCORE:    0.00 PKD
ROOT
HETATM    1  C   UNL     1     -10.758  13.981  64.492  1.00  0.00    -0.355 C  
HETATM    2  C   UNL     1     -11.574  12.676  64.504  1.00  0.00    -0.345 C  
HETATM    3  C   UNL     1     -12.286  12.547  63.141  1.00  0.00    -0.341 C  
HETATM    4  C   UNL     1     -12.646  12.727  65.603  1.00  0.00    -0.188 C  
HETATM    5  N   UNL     1     -10.705  11.488  64.645  1.00  0.00    -0.309 NA 
HETATM    6  H   UNL     1     -10.088  11.406  63.837  1.00  0.00     0.000 HD 
ENDROOT
BRANCH   5   7
HETATM    7  C   UNL     1      -9.920  11.431  65.888  1.00  0.00    -0.234 C  
BRANCH   7   8
HETATM    8  C   UNL     1      -9.079  10.149  66.060  1.00  0.00    -0.154 C  
HETATM    9  O   UNL     1      -9.939   9.019  65.850  1.00  0.00    -0.413 OA 
HETATM   10  H   UNL     1      -9.421   8.229  65.956  1.00  0.00     0.000 HD 
BRANCH   8  11
HETATM   11  C   UNL     1      -8.458  10.051  67.456  1.00  0.00    -0.118 C  
BRANCH  11  12
HETATM   12  O   UNL     1      -8.235   8.667  67.767  1.00  0.00    -0.116 OA 
BRANCH  12  13
HETATM   13  C   UNL     1      -8.844   8.251  68.928  1.00  0.00    -0.140 A  
HETATM   14  C   UNL     1      -9.245   9.141  69.934  1.00  0.00    -0.194 A  
HETATM   15  C   UNL     1      -9.803   8.665  71.117  1.00  0.00    -0.285 A  
HETATM   16  C   UNL     1     -10.002   7.297  71.283  1.00  0.00    -0.191 A  
HETATM   17  C   UNL     1      -9.662   6.409  70.257  1.00  0.00    -0.186 A  
HETATM   18  C   UNL     1      -9.068   6.872  69.068  1.00  0.00    -0.138 A  
HETATM   19  C   UNL     1      -8.717   5.919  67.948  1.00  0.00    -0.104 C  
HETATM   20  C   UNL     1      -8.590   4.476  68.424  1.00  0.00    -0.104 C  
HETATM   21  C   UNL     1      -9.804   4.066  69.237  1.00  0.00    -0.089 C  
HETATM   22  C   UNL     1      -9.962   4.966  70.439  1.00  0.00    -0.246 C  
HETATM   23  O   UNL     1     -10.387   4.545  71.510  1.00  0.00    -0.163 OA 
ENDBRANCH  12  13
ENDBRANCH  11  12
ENDBRANCH   8  11
ENDBRANCH   7   8
ENDBRANCH   5   7
TORSDOF 5
ENDMDL
MODEL      270
REMARK 921   NORMALIZED FREE ENERGY PREDICTED BY IDOCK:   -3.14 KCAL/MOL
REMARK 922        TOTAL FREE ENERGY PREDICTED BY IDOCK:   -4.80 KCAL/MOL
REMARK 923 INTER-LIGAND FREE ENERGY PREDICTED BY IDOCK:   -4.17 KCAL/MOL
REMARK 924 INTRA-LIGAND FREE ENERGY PREDICTED BY IDOCK:   -0.63 KCAL/MOL
REMARK 927      BINDING AFFINITY PREDICTED BY RF-SCORE:    0.00 PKD
ROOT
HETATM    1  C   UNL     1      -8.008  12.063  68.427  1.00  0.00    -0.152 C  
HETATM    2  C   UNL     1      -7.415  10.658  68.633  1.00  0.00    -0.098 C  
HETATM    3  C   UNL     1      -6.150  10.799  69.505  1.00  0.00    -0.057 C  
HETATM    4  C   UNL     1      -7.004  10.049  67.284  1.00  0.00    -0.083 C  
HETATM    5  N   UNL     1      -8.344   9.775  69.371  1.00  0.00    -0.138 NA 
HETATM    6  H   UNL     1      -8.500  10.136  70.312  1.00  0.00     0.000 HD 
ENDROOT
BRANCH   5   7
HETATM    7  C   UNL     1      -9.631   9.526  68.705  1.00  0.00    -0.157 C  
BRANCH   7   8
HETATM    8  C   UNL     1     -10.856   9.543  69.644  1.00  0.00    -0.235 C  
HETATM    9  O   UNL     1     -10.729  10.672  70.523  1.00  0.00    -0.419 OA 
HETATM   10  H   UNL     1     -11.483  10.682  71.101  1.00  0.00     0.000 HD 
BRANCH   8  11
HETATM   11  C   UNL     1     -10.955   8.266  70.484  1.00  0.00    -0.242 C  
BRANCH  11  12
HETATM   12  O   UNL     1     -11.333   7.177  69.627  1.00  0.00    -0.180 OA 
BRANCH  12  13
HETATM   13  C   UNL     1     -10.679   6.000  69.900  1.00  0.00    -0.325 A  
HETATM   14  C   UNL     1     -10.474   5.531  71.205  1.00  0.00    -0.306 A  
HETATM   15  C   UNL     1      -9.753   4.362  71.433  1.00  0.00    -0.248 A  
HETATM   16  C   UNL     1      -9.268   3.632  70.351  1.00  0.00    -0.216 A  
HETATM   17  C   UNL     1      -9.523   4.061  69.044  1.00  0.00    -0.243 A  
HETATM   18  C   UNL     1     -10.223   5.256  68.799  1.00  0.00    -0.231 A  
HETATM   19  C   UNL     1     -10.518   5.713  67.389  1.00  0.00    -0.306 C  
HETATM   20  C   UNL     1      -9.591   5.078  66.360  1.00  0.00    -0.171 C  
HETATM   21  C   UNL     1      -9.543   3.571  66.532  1.00  0.00    -0.122 C  
HETATM   22  C   UNL     1      -9.058   3.213  67.916  1.00  0.00    -0.177 C  
HETATM   23  O   UNL     1      -8.362   2.224  68.121  1.00  0.00    -0.061 OA 
ENDBRANCH  12  13
ENDBRANCH  11  12
ENDBRANCH   8  11
ENDBRANCH   7   8
ENDBRANCH   5   7
TORSDOF 5
ENDMDL
MODEL      271
REMARK 921   NORMALIZED FREE ENERGY PREDICTED BY IDOCK:   -3.13 KCAL/MOL
REMARK 922        TOTAL FREE ENERGY PREDICTED BY IDOCK:   -4.77 KCAL/MOL
REMARK 923 INTER-LIGAND FREE ENERGY PREDICTED BY IDOCK:   -4.13 KCAL/MOL
REMARK 924 INTRA-LIGAND FREE ENERGY PREDICTED BY IDOCK:   -0.64 KCAL/MOL
REMARK 927      BINDING AFFINITY PREDICTED BY RF-SCORE:    0.00 PKD
ROOT
HETATM    1  C   UNL     1     -10.121   3.811  63.953  1.00  0.00    -0.208 C  
HETATM    2  C   UNL     1      -8.851   4.536  64.433  1.00  0.00    -0.152 C  
HETATM    3  C   UNL     1      -8.318   5.387  63.261  1.00  0.00    -0.104 C  
HETATM    4  C   UNL     1      -7.768   3.517  64.818  1.00  0.00    -0.078 C  
HETATM    5  N   UNL     1      -9.141   5.471  65.542  1.00  0.00    -0.277 NA 
HETATM    6  H   UNL     1      -9.763   6.213  65.222  1.00  0.00     0.000 HD 
ENDROOT
BRANCH   5   7
HETATM    7  C   UNL     1      -9.679   4.848  66.760  1.00  0.00    -0.181 C  
BRANCH   7   8
HETATM    8  C   UNL     1     -10.578   5.770  67.611  1.00  0.00    -0.239 C  
HETATM    9  O   UNL     1     -11.654   6.235  66.782  1.00  0.00    -0.629 OA 
HETATM   10  H   UNL     1     -12.206   6.803  67.306  1.00  0.00     0.000 HD 
BRANCH   8  11
HETATM   11  C   UNL     1      -9.810   6.978  68.157  1.00  0.00    -0.139 C  
BRANCH  11  12
HETATM   12  O   UNL     1     -10.042   8.102  67.293  1.00  0.00    -0.192 OA 
BRANCH  12  13
HETATM   13  C   UNL     1      -9.402   9.252  67.690  1.00  0.00    -0.128 A  
HETATM   14  C   UNL     1      -8.538   9.296  68.793  1.00  0.00    -0.131 A  
HETATM   15  C   UNL     1      -7.961  10.499  69.192  1.00  0.00    -0.145 A  
HETATM   16  C   UNL     1      -8.212  11.657  68.463  1.00  0.00    -0.144 A  
HETATM   17  C   UNL     1      -9.023  11.607  67.323  1.00  0.00    -0.169 A  
HETATM   18  C   UNL     1      -9.639  10.406  66.926  1.00  0.00    -0.207 A  
HETATM   19  C   UNL     1     -10.500  10.343  65.686  1.00  0.00    -0.185 C  
HETATM   20  C   UNL     1     -11.018  11.712  65.260  1.00  0.00    -0.327 C  
HETATM   21  C   UNL     1      -9.885  12.719  65.185  1.00  0.00    -0.097 C  
HETATM   22  C   UNL     1      -9.203  12.848  66.526  1.00  0.00    -0.182 C  
HETATM   23  O   UNL     1      -8.752  13.918  66.921  1.00  0.00    -0.219 OA 
ENDBRANCH  12  13
ENDBRANCH  11  12
ENDBRANCH   8  11
ENDBRANCH   7   8
ENDBRANCH   5   7
TORSDOF 5
ENDMDL
MODEL      272
REMARK 921   NORMALIZED FREE ENERGY PREDICTED BY IDOCK:   -3.12 KCAL/MOL
REMARK 922        TOTAL FREE ENERGY PREDICTED BY IDOCK:   -4.76 KCAL/MOL
REMARK 923 INTER-LIGAND FREE ENERGY PREDICTED BY IDOCK:   -4.24 KCAL/MOL
REMARK 924 INTRA-LIGAND FREE ENERGY PREDICTED BY IDOCK:   -0.53 KCAL/MOL
REMARK 927      BINDING AFFINITY PREDICTED BY RF-SCORE:    0.00 PKD
ROOT
HETATM    1  C   UNL     1     -10.447  15.869  67.168  1.00  0.00    -0.313 C  
HETATM    2  C   UNL     1     -10.727  14.550  66.425  1.00  0.00    -0.309 C  
HETATM    3  C   UNL     1     -10.674  14.837  64.910  1.00  0.00    -0.438 C  
HETATM    4  C   UNL     1     -12.131  14.032  66.768  1.00  0.00    -0.480 C  
HETATM    5  N   UNL     1      -9.687  13.535  66.702  1.00  0.00    -0.272 NA 
HETATM    6  H   UNL     1      -8.784  13.851  66.348  1.00  0.00     0.000 HD 
ENDROOT
BRANCH   5   7
HETATM    7  C   UNL     1      -9.566  13.133  68.112  1.00  0.00    -0.227 C  
BRANCH   7   8
HETATM    8  C   UNL     1      -9.922  11.658  68.393  1.00  0.00    -0.201 C  
HETATM    9  O   UNL     1     -10.870  11.625  69.471  1.00  0.00    -0.427 OA 
HETATM   10  H   UNL     1     -11.089  10.717  69.645  1.00  0.00     0.000 HD 
BRANCH   8  11
HETATM   11  C   UNL     1      -8.692  10.834  68.785  1.00  0.00    -0.163 C  
BRANCH  11  12
HETATM   12  O   UNL     1      -7.990  10.453  67.591  1.00  0.00    -0.105 OA 
BRANCH  12  13
HETATM   13  C   UNL     1      -8.245   9.167  67.179  1.00  0.00    -0.113 A  
HETATM   14  C   UNL     1      -8.758   8.184  68.037  1.00  0.00    -0.128 A  
HETATM   15  C   UNL     1      -8.942   6.879  67.588  1.00  0.00    -0.116 A  
HETATM   16  C   UNL     1      -8.654   6.560  66.265  1.00  0.00    -0.141 A  
HETATM   17  C   UNL     1      -8.202   7.552  65.386  1.00  0.00    -0.136 A  
HETATM   18  C   UNL     1      -7.981   8.867  65.833  1.00  0.00    -0.107 A  
HETATM   19  C   UNL     1      -7.512   9.946  64.884  1.00  0.00    -0.135 C  
HETATM   20  C   UNL     1      -6.848   9.379  63.634  1.00  0.00    -0.095 C  
HETATM   21  C   UNL     1      -7.722   8.318  62.992  1.00  0.00    -0.134 C  
HETATM   22  C   UNL     1      -7.982   7.191  63.962  1.00  0.00    -0.078 C  
HETATM   23  O   UNL     1      -8.077   6.025  63.589  1.00  0.00    -0.117 OA 
ENDBRANCH  12  13
ENDBRANCH  11  12
ENDBRANCH   8  11
ENDBRANCH   7   8
ENDBRANCH   5   7
TORSDOF 5
ENDMDL
MODEL      273
REMARK 921   NORMALIZED FREE ENERGY PREDICTED BY IDOCK:   -3.12 KCAL/MOL
REMARK 922        TOTAL FREE ENERGY PREDICTED BY IDOCK:   -4.76 KCAL/MOL
REMARK 923 INTER-LIGAND FREE ENERGY PREDICTED BY IDOCK:   -4.38 KCAL/MOL
REMARK 924 INTRA-LIGAND FREE ENERGY PREDICTED BY IDOCK:   -0.38 KCAL/MOL
REMARK 927      BINDING AFFINITY PREDICTED BY RF-SCORE:    0.00 PKD
ROOT
HETATM    1  C   UNL     1      -9.999   4.795  68.941  1.00  0.00    -0.197 C  
HETATM    2  C   UNL     1      -8.559   4.693  68.407  1.00  0.00    -0.097 C  
HETATM    3  C   UNL     1      -8.322   3.238  67.952  1.00  0.00    -0.096 C  
HETATM    4  C   UNL     1      -7.553   5.019  69.521  1.00  0.00    -0.057 C  
HETATM    5  N   UNL     1      -8.355   5.550  67.219  1.00  0.00    -0.104 NA 
HETATM    6  H   UNL     1      -8.944   5.231  66.450  1.00  0.00     0.000 HD 
ENDROOT
BRANCH   5   7
HETATM    7  C   UNL     1      -8.552   6.989  67.444  1.00  0.00    -0.121 C  
BRANCH   7   8
HETATM    8  C   UNL     1      -9.313   7.719  66.317  1.00  0.00    -0.151 C  
HETATM    9  O   UNL     1      -9.182   6.944  65.115  1.00  0.00    -0.201 OA 
HETATM   10  H   UNL     1      -9.651   7.394  64.421  1.00  0.00     0.000 HD 
BRANCH   8  11
HETATM   11  C   UNL     1      -8.762   9.125  66.066  1.00  0.00    -0.153 C  
BRANCH  11  12
HETATM   12  O   UNL     1      -9.836   9.973  65.631  1.00  0.00    -0.257 OA 
BRANCH  12  13
HETATM   13  C   UNL     1      -9.924  11.160  66.317  1.00  0.00    -0.219 A  
HETATM   14  C   UNL     1      -9.348  11.350  67.581  1.00  0.00    -0.159 A  
HETATM   15  C   UNL     1      -9.516  12.552  68.262  1.00  0.00    -0.201 A  
HETATM   16  C   UNL     1     -10.226  13.589  67.663  1.00  0.00    -0.239 A  
HETATM   17  C   UNL     1     -10.750  13.428  66.375  1.00  0.00    -0.289 A  
HETATM   18  C   UNL     1     -10.615  12.208  65.687  1.00  0.00    -0.297 A  
HETATM   19  C   UNL     1     -11.162  12.036  64.289  1.00  0.00    -0.421 C  
HETATM   20  C   UNL     1     -12.244  13.055  63.952  1.00  0.00    -0.511 C  
HETATM   21  C   UNL     1     -11.780  14.464  64.273  1.00  0.00    -0.328 C  
HETATM   22  C   UNL     1     -11.432  14.583  65.738  1.00  0.00    -0.342 C  
HETATM   23  O   UNL     1     -11.640  15.615  66.369  1.00  0.00     0.057 OA 
ENDBRANCH  12  13
ENDBRANCH  11  12
ENDBRANCH   8  11
ENDBRANCH   7   8
ENDBRANCH   5   7
TORSDOF 5
ENDMDL
MODEL      274
REMARK 921   NORMALIZED FREE ENERGY PREDICTED BY IDOCK:   -3.09 KCAL/MOL
REMARK 922        TOTAL FREE ENERGY PREDICTED BY IDOCK:   -4.73 KCAL/MOL
REMARK 923 INTER-LIGAND FREE ENERGY PREDICTED BY IDOCK:   -4.35 KCAL/MOL
REMARK 924 INTRA-LIGAND FREE ENERGY PREDICTED BY IDOCK:   -0.37 KCAL/MOL
REMARK 927      BINDING AFFINITY PREDICTED BY RF-SCORE:    0.00 PKD
ROOT
HETATM    1  C   UNL     1     -10.973  16.773  68.123  1.00  0.00    -0.309 C  
HETATM    2  C   UNL     1     -10.782  15.685  69.195  1.00  0.00    -0.243 C  
HETATM    3  C   UNL     1     -11.529  16.136  70.468  1.00  0.00    -0.363 C  
HETATM    4  C   UNL     1      -9.294  15.530  69.540  1.00  0.00    -0.276 C  
HETATM    5  N   UNL     1     -11.384  14.398  68.782  1.00  0.00    -0.257 NA 
HETATM    6  H   UNL     1     -12.394  14.498  68.684  1.00  0.00     0.000 HD 
ENDROOT
BRANCH   5   7
HETATM    7  C   UNL     1     -10.813  13.804  67.564  1.00  0.00    -0.265 C  
BRANCH   7   8
HETATM    8  C   UNL     1     -10.783  12.261  67.554  1.00  0.00    -0.225 C  
HETATM    9  O   UNL     1     -12.117  11.786  67.795  1.00  0.00    -0.595 OA 
HETATM   10  H   UNL     1     -12.097  10.836  67.789  1.00  0.00     0.000 HD 
BRANCH   8  11
HETATM   11  C   UNL     1      -9.850  11.697  68.629  1.00  0.00    -0.165 C  
BRANCH  11  12
HETATM   12  O   UNL     1      -8.984  10.723  68.025  1.00  0.00    -0.133 OA 
BRANCH  12  13
HETATM   13  C   UNL     1      -9.277   9.425  68.370  1.00  0.00    -0.127 A  
HETATM   14  C   UNL     1     -10.207   8.646  67.668  1.00  0.00    -0.300 A  
HETATM   15  C   UNL     1     -10.513   7.356  68.094  1.00  0.00    -0.241 A  
HETATM   16  C   UNL     1      -9.858   6.823  69.200  1.00  0.00    -0.161 A  
HETATM   17  C   UNL     1      -8.882   7.573  69.867  1.00  0.00    -0.141 A  
HETATM   18  C   UNL     1      -8.584   8.889  69.468  1.00  0.00    -0.134 A  
HETATM   19  C   UNL     1      -7.518   9.696  70.172  1.00  0.00    -0.157 C  
HETATM   20  C   UNL     1      -7.213   9.171  71.571  1.00  0.00     0.027 C  
HETATM   21  C   UNL     1      -6.950   7.677  71.542  1.00  0.00    -0.057 C  
HETATM   22  C   UNL     1      -8.149   6.940  70.993  1.00  0.00    -0.106 C  
HETATM   23  O   UNL     1      -8.472   5.832  71.408  1.00  0.00    -0.125 OA 
ENDBRANCH  12  13
ENDBRANCH  11  12
ENDBRANCH   8  11
ENDBRANCH   7   8
ENDBRANCH   5   7
TORSDOF 5
ENDMDL
MODEL      275
REMARK 921   NORMALIZED FREE ENERGY PREDICTED BY IDOCK:   -3.08 KCAL/MOL
REMARK 922        TOTAL FREE ENERGY PREDICTED BY IDOCK:   -4.72 KCAL/MOL
REMARK 923 INTER-LIGAND FREE ENERGY PREDICTED BY IDOCK:   -3.68 KCAL/MOL
REMARK 924 INTRA-LIGAND FREE ENERGY PREDICTED BY IDOCK:   -1.04 KCAL/MOL
REMARK 927      BINDING AFFINITY PREDICTED BY RF-SCORE:    0.00 PKD
ROOT
HETATM    1  C   UNL     1      -8.847   9.669  66.250  1.00  0.00    -0.172 C  
HETATM    2  C   UNL     1      -9.813   9.514  67.439  1.00  0.00    -0.170 C  
HETATM    3  C   UNL     1     -10.641   8.232  67.215  1.00  0.00    -0.335 C  
HETATM    4  C   UNL     1     -10.779  10.706  67.501  1.00  0.00    -0.321 C  
HETATM    5  N   UNL     1      -9.085   9.334  68.714  1.00  0.00    -0.135 NA 
HETATM    6  H   UNL     1      -8.550   8.466  68.694  1.00  0.00     0.000 HD 
ENDROOT
BRANCH   5   7
HETATM    7  C   UNL     1      -8.217  10.455  69.102  1.00  0.00    -0.157 C  
BRANCH   7   8
HETATM    8  C   UNL     1      -6.798  10.046  69.549  1.00  0.00    -0.071 C  
HETATM    9  O   UNL     1      -6.348   8.985  68.692  1.00  0.00    -0.052 OA 
HETATM   10  H   UNL     1      -5.474   8.733  68.967  1.00  0.00     0.000 HD 
BRANCH   8  11
HETATM   11  C   UNL     1      -6.769   9.560  71.001  1.00  0.00    -0.048 C  
BRANCH  11  12
HETATM   12  O   UNL     1      -8.081   9.101  71.362  1.00  0.00    -0.318 OA 
BRANCH  12  13
HETATM   13  C   UNL     1      -8.118   7.794  71.786  1.00  0.00    -0.106 A  
HETATM   14  C   UNL     1      -6.970   7.091  72.177  1.00  0.00    -0.064 A  
HETATM   15  C   UNL     1      -7.052   5.749  72.541  1.00  0.00    -0.085 A  
HETATM   16  C   UNL     1      -8.291   5.115  72.557  1.00  0.00    -0.117 A  
HETATM   17  C   UNL     1      -9.449   5.829  72.228  1.00  0.00    -0.158 A  
HETATM   18  C   UNL     1      -9.379   7.176  71.828  1.00  0.00    -0.155 A  
HETATM   19  C   UNL     1     -10.628   7.956  71.491  1.00  0.00    -0.262 C  
HETATM   20  C   UNL     1     -11.807   7.055  71.142  1.00  0.00    -0.380 C  
HETATM   21  C   UNL     1     -12.003   5.987  72.202  1.00  0.00    -0.261 C  
HETATM   22  C   UNL     1     -10.761   5.139  72.333  1.00  0.00    -0.216 C  
HETATM   23  O   UNL     1     -10.820   3.940  72.585  1.00  0.00    -0.096 OA 
ENDBRANCH  12  13
ENDBRANCH  11  12
ENDBRANCH   8  11
ENDBRANCH   7   8
ENDBRANCH   5   7
TORSDOF 5
ENDMDL
MODEL      276
REMARK 921   NORMALIZED FREE ENERGY PREDICTED BY IDOCK:   -3.08 KCAL/MOL
REMARK 922        TOTAL FREE ENERGY PREDICTED BY IDOCK:   -4.71 KCAL/MOL
REMARK 923 INTER-LIGAND FREE ENERGY PREDICTED BY IDOCK:   -4.03 KCAL/MOL
REMARK 924 INTRA-LIGAND FREE ENERGY PREDICTED BY IDOCK:   -0.68 KCAL/MOL
REMARK 927      BINDING AFFINITY PREDICTED BY RF-SCORE:    0.00 PKD
ROOT
HETATM    1  C   UNL     1     -10.017   3.377  65.333  1.00  0.00     0.100 C  
HETATM    2  C   UNL     1      -8.923   4.252  64.696  1.00  0.00    -0.146 C  
HETATM    3  C   UNL     1      -9.007   4.079  63.165  1.00  0.00    -0.113 C  
HETATM    4  C   UNL     1      -7.533   3.788  65.157  1.00  0.00    -0.073 C  
HETATM    5  N   UNL     1      -9.139   5.688  64.975  1.00  0.00    -0.362 NA 
HETATM    6  H   UNL     1     -10.010   6.002  64.547  1.00  0.00     0.000 HD 
ENDROOT
BRANCH   5   7
HETATM    7  C   UNL     1      -9.111   6.060  66.398  1.00  0.00    -0.150 C  
BRANCH   7   8
HETATM    8  C   UNL     1      -9.550   7.509  66.693  1.00  0.00    -0.200 C  
HETATM    9  O   UNL     1      -8.534   8.129  67.497  1.00  0.00    -0.124 OA 
HETATM   10  H   UNL     1      -8.805   9.022  67.678  1.00  0.00     0.000 HD 
BRANCH   8  11
HETATM   11  C   UNL     1     -10.883   7.566  67.444  1.00  0.00    -0.202 C  
BRANCH  11  12
HETATM   12  O   UNL     1     -11.113   6.297  68.077  1.00  0.00    -0.333 OA 
BRANCH  12  13
HETATM   13  C   UNL     1     -11.100   6.348  69.450  1.00  0.00    -0.387 A  
HETATM   14  C   UNL     1     -11.697   7.388  70.176  1.00  0.00    -0.028 A  
HETATM   15  C   UNL     1     -11.605   7.426  71.565  1.00  0.00    -0.304 A  
HETATM   16  C   UNL     1     -10.950   6.400  72.239  1.00  0.00    -0.289 A  
HETATM   17  C   UNL     1     -10.406   5.326  71.524  1.00  0.00    -0.287 A  
HETATM   18  C   UNL     1     -10.464   5.289  70.119  1.00  0.00    -0.338 A  
HETATM   19  C   UNL     1      -9.896   4.123  69.344  1.00  0.00    -0.163 C  
HETATM   20  C   UNL     1      -8.870   3.329  70.145  1.00  0.00    -0.149 C  
HETATM   21  C   UNL     1      -9.418   2.965  71.513  1.00  0.00    -0.216 C  
HETATM   22  C   UNL     1      -9.785   4.210  72.284  1.00  0.00    -0.154 C  
HETATM   23  O   UNL     1      -9.643   4.283  73.500  1.00  0.00    -0.112 OA 
ENDBRANCH  12  13
ENDBRANCH  11  12
ENDBRANCH   8  11
ENDBRANCH   7   8
ENDBRANCH   5   7
TORSDOF 5
ENDMDL
MODEL      277
REMARK 921   NORMALIZED FREE ENERGY PREDICTED BY IDOCK:   -3.08 KCAL/MOL
REMARK 922        TOTAL FREE ENERGY PREDICTED BY IDOCK:   -4.71 KCAL/MOL
REMARK 923 INTER-LIGAND FREE ENERGY PREDICTED BY IDOCK:   -4.05 KCAL/MOL
REMARK 924 INTRA-LIGAND FREE ENERGY PREDICTED BY IDOCK:   -0.67 KCAL/MOL
REMARK 927      BINDING AFFINITY PREDICTED BY RF-SCORE:    0.00 PKD
ROOT
HETATM    1  C   UNL     1      -9.580  11.124  66.787  1.00  0.00    -0.215 C  
HETATM    2  C   UNL     1      -9.068  10.891  68.219  1.00  0.00    -0.158 C  
HETATM    3  C   UNL     1      -7.873  11.837  68.458  1.00  0.00    -0.144 C  
HETATM    4  C   UNL     1      -8.576   9.445  68.382  1.00  0.00    -0.124 C  
HETATM    5  N   UNL     1     -10.093  11.236  69.229  1.00  0.00    -0.426 NA 
HETATM    6  H   UNL     1     -10.308  12.232  69.184  1.00  0.00     0.000 HD 
ENDROOT
BRANCH   5   7
HETATM    7  C   UNL     1     -11.331  10.446  69.158  1.00  0.00    -0.226 C  
BRANCH   7   8
HETATM    8  C   UNL     1     -12.140  10.398  70.471  1.00  0.00    -0.332 C  
HETATM    9  O   UNL     1     -11.948  11.643  71.160  1.00  0.00    -0.275 OA 
HETATM   10  H   UNL     1     -12.446  11.613  71.969  1.00  0.00     0.000 HD 
BRANCH   8  11
HETATM   11  C   UNL     1     -11.693   9.250  71.381  1.00  0.00    -0.361 C  
BRANCH  11  12
HETATM   12  O   UNL     1     -10.877   8.347  70.619  1.00  0.00    -0.222 OA 
BRANCH  12  13
HETATM   13  C   UNL     1     -10.418   7.269  71.337  1.00  0.00    -0.203 A  
HETATM   14  C   UNL     1     -11.165   6.093  71.501  1.00  0.00    -0.346 A  
HETATM   15  C   UNL     1     -10.681   5.052  72.288  1.00  0.00    -0.246 A  
HETATM   16  C   UNL     1      -9.428   5.163  72.883  1.00  0.00    -0.158 A  
HETATM   17  C   UNL     1      -8.650   6.308  72.671  1.00  0.00    -0.123 A  
HETATM   18  C   UNL     1      -9.138   7.382  71.904  1.00  0.00    -0.146 A  
HETATM   19  C   UNL     1      -8.295   8.611  71.657  1.00  0.00    -0.216 C  
HETATM   20  C   UNL     1      -7.179   8.774  72.683  1.00  0.00     0.097 C  
HETATM   21  C   UNL     1      -6.385   7.488  72.826  1.00  0.00    -0.059 C  
HETATM   22  C   UNL     1      -7.286   6.356  73.257  1.00  0.00    -0.086 C  
HETATM   23  O   UNL     1      -6.894   5.468  74.007  1.00  0.00    -0.078 OA 
ENDBRANCH  12  13
ENDBRANCH  11  12
ENDBRANCH   8  11
ENDBRANCH   7   8
ENDBRANCH   5   7
TORSDOF 5
ENDMDL
MODEL      278
REMARK 921   NORMALIZED FREE ENERGY PREDICTED BY IDOCK:   -3.06 KCAL/MOL
REMARK 922        TOTAL FREE ENERGY PREDICTED BY IDOCK:   -4.69 KCAL/MOL
REMARK 923 INTER-LIGAND FREE ENERGY PREDICTED BY IDOCK:   -4.15 KCAL/MOL
REMARK 924 INTRA-LIGAND FREE ENERGY PREDICTED BY IDOCK:   -0.54 KCAL/MOL
REMARK 927      BINDING AFFINITY PREDICTED BY RF-SCORE:    0.00 PKD
ROOT
HETATM    1  C   UNL     1     -11.751  14.409  66.604  1.00  0.00    -0.410 C  
HETATM    2  C   UNL     1     -11.543  12.906  66.343  1.00  0.00    -0.371 C  
HETATM    3  C   UNL     1     -12.389  12.515  65.114  1.00  0.00    -0.496 C  
HETATM    4  C   UNL     1     -12.031  12.084  67.545  1.00  0.00    -0.144 C  
HETATM    5  N   UNL     1     -10.136  12.599  66.007  1.00  0.00    -0.259 NA 
HETATM    6  H   UNL     1      -9.875  13.057  65.133  1.00  0.00     0.000 HD 
ENDROOT
BRANCH   5   7
HETATM    7  C   UNL     1      -9.157  12.919  67.057  1.00  0.00    -0.228 C  
BRANCH   7   8
HETATM    8  C   UNL     1      -8.108  11.818  67.316  1.00  0.00    -0.164 C  
HETATM    9  O   UNL     1      -6.987  12.417  67.984  1.00  0.00    -0.079 OA 
HETATM   10  H   UNL     1      -6.340  11.739  68.142  1.00  0.00     0.000 HD 
BRANCH   8  11
HETATM   11  C   UNL     1      -7.624  11.167  66.017  1.00  0.00     0.023 C  
BRANCH  11  12
HETATM   12  O   UNL     1      -8.225   9.867  65.899  1.00  0.00    -0.119 OA 
BRANCH  12  13
HETATM   13  C   UNL     1      -7.771   8.957  66.822  1.00  0.00    -0.097 A  
HETATM   14  C   UNL     1      -6.465   8.979  67.330  1.00  0.00    -0.064 A  
HETATM   15  C   UNL     1      -6.034   7.998  68.219  1.00  0.00    -0.041 A  
HETATM   16  C   UNL     1      -6.922   7.012  68.638  1.00  0.00    -0.079 A  
HETATM   17  C   UNL     1      -8.246   7.021  68.184  1.00  0.00    -0.120 A  
HETATM   18  C   UNL     1      -8.687   7.987  67.261  1.00  0.00    -0.132 A  
HETATM   19  C   UNL     1     -10.120   8.013  66.782  1.00  0.00    -0.357 C  
HETATM   20  C   UNL     1     -10.827   6.676  66.974  1.00  0.00    -0.467 C  
HETATM   21  C   UNL     1     -10.651   6.169  68.394  1.00  0.00    -0.324 C  
HETATM   22  C   UNL     1      -9.185   6.000  68.715  1.00  0.00    -0.123 C  
HETATM   23  O   UNL     1      -8.783   5.096  69.441  1.00  0.00    -0.097 OA 
ENDBRANCH  12  13
ENDBRANCH  11  12
ENDBRANCH   8  11
ENDBRANCH   7   8
ENDBRANCH   5   7
TORSDOF 5
ENDMDL
MODEL      279
REMARK 921   NORMALIZED FREE ENERGY PREDICTED BY IDOCK:   -2.98 KCAL/MOL
REMARK 922        TOTAL FREE ENERGY PREDICTED BY IDOCK:   -4.59 KCAL/MOL
REMARK 923 INTER-LIGAND FREE ENERGY PREDICTED BY IDOCK:   -4.06 KCAL/MOL
REMARK 924 INTRA-LIGAND FREE ENERGY PREDICTED BY IDOCK:   -0.53 KCAL/MOL
REMARK 927      BINDING AFFINITY PREDICTED BY RF-SCORE:    0.00 PKD
ROOT
HETATM    1  C   UNL     1      -7.001  15.690  67.242  1.00  0.00    -0.224 C  
HETATM    2  C   UNL     1      -8.088  14.618  67.436  1.00  0.00    -0.196 C  
HETATM    3  C   UNL     1      -9.398  15.151  66.820  1.00  0.00    -0.268 C  
HETATM    4  C   UNL     1      -8.328  14.365  68.932  1.00  0.00    -0.080 C  
HETATM    5  N   UNL     1      -7.758  13.368  66.717  1.00  0.00    -0.233 NA 
HETATM    6  H   UNL     1      -7.731  13.537  65.712  1.00  0.00     0.000 HD 
ENDROOT
BRANCH   5   7
HETATM    7  C   UNL     1      -6.519  12.705  67.152  1.00  0.00     0.004 C  
BRANCH   7   8
HETATM    8  C   UNL     1      -6.375  11.241  66.686  1.00  0.00    -0.135 C  
HETATM    9  O   UNL     1      -7.009  11.116  65.404  1.00  0.00    -0.352 OA 
HETATM   10  H   UNL     1      -6.920  10.214  65.117  1.00  0.00     0.000 HD 
BRANCH   8  11
HETATM   11  C   UNL     1      -7.026  10.258  67.663  1.00  0.00    -0.084 C  
BRANCH  11  12
HETATM   12  O   UNL     1      -8.439  10.511  67.702  1.00  0.00    -0.115 OA 
BRANCH  12  13
HETATM   13  C   UNL     1      -9.125   9.710  68.582  1.00  0.00    -0.132 A  
HETATM   14  C   UNL     1      -9.434  10.111  69.890  1.00  0.00    -0.150 A  
HETATM   15  C   UNL     1     -10.079   9.240  70.763  1.00  0.00    -0.358 A  
HETATM   16  C   UNL     1     -10.457   7.976  70.320  1.00  0.00    -0.222 A  
HETATM   17  C   UNL     1     -10.209   7.593  68.996  1.00  0.00    -0.211 A  
HETATM   18  C   UNL     1      -9.531   8.451  68.111  1.00  0.00    -0.148 A  
HETATM   19  C   UNL     1      -9.277   8.050  66.676  1.00  0.00    -0.225 C  
HETATM   20  C   UNL     1      -9.350   6.542  66.466  1.00  0.00    -0.188 C  
HETATM   21  C   UNL     1     -10.628   5.975  67.058  1.00  0.00    -0.385 C  
HETATM   22  C   UNL     1     -10.699   6.268  68.538  1.00  0.00    -0.292 C  
HETATM   23  O   UNL     1     -11.202   5.477  69.330  1.00  0.00    -0.067 OA 
ENDBRANCH  12  13
ENDBRANCH  11  12
ENDBRANCH   8  11
ENDBRANCH   7   8
ENDBRANCH   5   7
TORSDOF 5
ENDMDL
MODEL      280
REMARK 921   NORMALIZED FREE ENERGY PREDICTED BY IDOCK:   -2.98 KCAL/MOL
REMARK 922        TOTAL FREE ENERGY PREDICTED BY IDOCK:   -4.58 KCAL/MOL
REMARK 923 INTER-LIGAND FREE ENERGY PREDICTED BY IDOCK:   -4.79 KCAL/MOL
REMARK 924 INTRA-LIGAND FREE ENERGY PREDICTED BY IDOCK:    0.21 KCAL/MOL
REMARK 927      BINDING AFFINITY PREDICTED BY RF-SCORE:    0.00 PKD
ROOT
HETATM    1  C   UNL     1      -9.905   6.618  74.080  1.00  0.00    -0.335 C  
HETATM    2  C   UNL     1     -10.816   6.270  72.889  1.00  0.00    -0.256 C  
HETATM    3  C   UNL     1     -11.626   5.010  73.262  1.00  0.00    -0.251 C  
HETATM    4  C   UNL     1      -9.972   5.949  71.647  1.00  0.00    -0.213 C  
HETATM    5  N   UNL     1     -11.798   7.343  72.620  1.00  0.00    -0.537 NA 
HETATM    6  H   UNL     1     -12.430   7.448  73.414  1.00  0.00     0.000 HD 
ENDROOT
BRANCH   5   7
HETATM    7  C   UNL     1     -11.218   8.645  72.259  1.00  0.00    -0.328 C  
BRANCH   7   8
HETATM    8  C   UNL     1     -12.253   9.758  71.990  1.00  0.00    -0.194 C  
HETATM    9  O   UNL     1     -13.418   9.487  72.784  1.00  0.00    -0.639 OA 
HETATM   10  H   UNL     1     -14.055  10.172  72.618  1.00  0.00     0.000 HD 
BRANCH   8  11
HETATM   11  C   UNL     1     -12.658   9.823  70.515  1.00  0.00    -0.024 C  
BRANCH  11  12
HETATM   12  O   UNL     1     -11.844  10.803  69.853  1.00  0.00    -0.280 OA 
BRANCH  12  13
HETATM   13  C   UNL     1     -10.671  10.301  69.343  1.00  0.00    -0.241 A  
HETATM   14  C   UNL     1     -10.343   8.939  69.394  1.00  0.00    -0.217 A  
HETATM   15  C   UNL     1      -9.116   8.488  68.916  1.00  0.00    -0.146 A  
HETATM   16  C   UNL     1      -8.225   9.392  68.345  1.00  0.00    -0.117 A  
HETATM   17  C   UNL     1      -8.573  10.743  68.233  1.00  0.00    -0.135 A  
HETATM   18  C   UNL     1      -9.796  11.220  68.740  1.00  0.00    -0.194 A  
HETATM   19  C   UNL     1     -10.184  12.674  68.604  1.00  0.00    -0.165 C  
HETATM   20  C   UNL     1      -8.983  13.582  68.367  1.00  0.00    -0.146 C  
HETATM   21  C   UNL     1      -8.123  13.056  67.233  1.00  0.00    -0.164 C  
HETATM   22  C   UNL     1      -7.630  11.664  67.546  1.00  0.00    -0.128 C  
HETATM   23  O   UNL     1      -6.521  11.276  67.193  1.00  0.00    -0.079 OA 
ENDBRANCH  12  13
ENDBRANCH  11  12
ENDBRANCH   8  11
ENDBRANCH   7   8
ENDBRANCH   5   7
TORSDOF 5
ENDMDL
MODEL      281
REMARK 921   NORMALIZED FREE ENERGY PREDICTED BY IDOCK:   -2.95 KCAL/MOL
REMARK 922        TOTAL FREE ENERGY PREDICTED BY IDOCK:   -4.55 KCAL/MOL
REMARK 923 INTER-LIGAND FREE ENERGY PREDICTED BY IDOCK:   -3.54 KCAL/MOL
REMARK 924 INTRA-LIGAND FREE ENERGY PREDICTED BY IDOCK:   -1.01 KCAL/MOL
REMARK 927      BINDING AFFINITY PREDICTED BY RF-SCORE:    0.00 PKD
ROOT
HETATM    1  C   UNL     1      -7.304   8.308  66.807  1.00  0.00    -0.083 C  
HETATM    2  C   UNL     1      -8.407   8.519  65.755  1.00  0.00    -0.140 C  
HETATM    3  C   UNL     1      -9.018   7.142  65.424  1.00  0.00     0.174 C  
HETATM    4  C   UNL     1      -7.810   9.103  64.466  1.00  0.00    -0.120 C  
HETATM    5  N   UNL     1      -9.507   9.359  66.277  1.00  0.00    -0.194 NA 
HETATM    6  H   UNL     1      -9.970   8.889  67.054  1.00  0.00     0.000 HD 
ENDROOT
BRANCH   5   7
HETATM    7  C   UNL     1      -9.120  10.723  66.669  1.00  0.00    -0.159 C  
BRANCH   7   8
HETATM    8  C   UNL     1      -9.403  11.073  68.145  1.00  0.00    -0.173 C  
HETATM    9  O   UNL     1      -8.180  10.920  68.883  1.00  0.00    -0.140 OA 
HETATM   10  H   UNL     1      -8.355  11.136  69.792  1.00  0.00     0.000 HD 
BRANCH   8  11
HETATM   11  C   UNL     1     -10.472  10.164  68.757  1.00  0.00    -0.204 C  
BRANCH  11  12
HETATM   12  O   UNL     1      -9.871   8.904  69.095  1.00  0.00    -0.172 OA 
BRANCH  12  13
HETATM   13  C   UNL     1     -10.263   8.407  70.315  1.00  0.00    -0.196 A  
HETATM   14  C   UNL     1     -11.334   8.944  71.043  1.00  0.00    -0.350 A  
HETATM   15  C   UNL     1     -11.655   8.443  72.302  1.00  0.00    -0.453 A  
HETATM   16  C   UNL     1     -10.932   7.374  72.822  1.00  0.00    -0.387 A  
HETATM   17  C   UNL     1      -9.903   6.792  72.073  1.00  0.00    -0.166 A  
HETATM   18  C   UNL     1      -9.546   7.307  70.813  1.00  0.00    -0.171 A  
HETATM   19  C   UNL     1      -8.449   6.670  69.992  1.00  0.00    -0.139 C  
HETATM   20  C   UNL     1      -7.498   5.828  70.835  1.00  0.00    -0.090 C  
HETATM   21  C   UNL     1      -8.268   4.856  71.710  1.00  0.00    -0.114 C  
HETATM   22  C   UNL     1      -9.207   5.602  72.627  1.00  0.00    -0.137 C  
HETATM   23  O   UNL     1      -9.445   5.211  73.766  1.00  0.00    -0.131 OA 
ENDBRANCH  12  13
ENDBRANCH  11  12
ENDBRANCH   8  11
ENDBRANCH   7   8
ENDBRANCH   5   7
TORSDOF 5
ENDMDL
MODEL      282
REMARK 921   NORMALIZED FREE ENERGY PREDICTED BY IDOCK:   -2.89 KCAL/MOL
REMARK 922        TOTAL FREE ENERGY PREDICTED BY IDOCK:   -4.47 KCAL/MOL
REMARK 923 INTER-LIGAND FREE ENERGY PREDICTED BY IDOCK:   -4.05 KCAL/MOL
REMARK 924 INTRA-LIGAND FREE ENERGY PREDICTED BY IDOCK:   -0.42 KCAL/MOL
REMARK 927      BINDING AFFINITY PREDICTED BY RF-SCORE:    0.00 PKD
ROOT
HETATM    1  C   UNL     1     -10.318   4.099  64.840  1.00  0.00    -0.210 C  
HETATM    2  C   UNL     1      -8.894   3.590  64.553  1.00  0.00    -0.114 C  
HETATM    3  C   UNL     1      -8.584   3.858  63.065  1.00  0.00    -0.094 C  
HETATM    4  C   UNL     1      -8.808   2.076  64.797  1.00  0.00    -0.116 C  
HETATM    5  N   UNL     1      -7.881   4.328  65.339  1.00  0.00    -0.086 NA 
HETATM    6  H   UNL     1      -7.870   5.310  65.064  1.00  0.00     0.000 HD 
ENDROOT
BRANCH   5   7
HETATM    7  C   UNL     1      -8.015   4.212  66.799  1.00  0.00    -0.097 C  
BRANCH   7   8
HETATM    8  C   UNL     1      -7.358   5.356  67.598  1.00  0.00    -0.076 C  
HETATM    9  O   UNL     1      -7.051   4.864  68.912  1.00  0.00    -0.051 OA 
HETATM   10  H   UNL     1      -6.647   5.569  69.405  1.00  0.00     0.000 HD 
BRANCH   8  11
HETATM   11  C   UNL     1      -8.278   6.573  67.724  1.00  0.00    -0.115 C  
BRANCH  11  12
HETATM   12  O   UNL     1      -8.881   6.566  69.028  1.00  0.00    -0.130 OA 
BRANCH  12  13
HETATM   13  C   UNL     1      -9.491   7.750  69.367  1.00  0.00    -0.156 A  
HETATM   14  C   UNL     1      -9.158   8.973  68.769  1.00  0.00    -0.137 A  
HETATM   15  C   UNL     1      -9.762  10.155  69.190  1.00  0.00    -0.225 A  
HETATM   16  C   UNL     1     -10.735  10.113  70.184  1.00  0.00    -0.355 A  
HETATM   17  C   UNL     1     -11.118   8.887  70.741  1.00  0.00    -0.312 A  
HETATM   18  C   UNL     1     -10.494   7.689  70.348  1.00  0.00    -0.221 A  
HETATM   19  C   UNL     1     -10.916   6.360  70.932  1.00  0.00    -0.335 C  
HETATM   20  C   UNL     1     -11.647   6.510  72.262  1.00  0.00    -0.330 C  
HETATM   21  C   UNL     1     -12.766   7.529  72.153  1.00  0.00    -0.163 C  
HETATM   22  C   UNL     1     -12.215   8.874  71.742  1.00  0.00    -0.359 C  
HETATM   23  O   UNL     1     -12.694   9.923  72.161  1.00  0.00    -0.369 OA 
ENDBRANCH  12  13
ENDBRANCH  11  12
ENDBRANCH   8  11
ENDBRANCH   7   8
ENDBRANCH   5   7
TORSDOF 5
ENDMDL
MODEL      283
REMARK 921   NORMALIZED FREE ENERGY PREDICTED BY IDOCK:   -2.87 KCAL/MOL
REMARK 922        TOTAL FREE ENERGY PREDICTED BY IDOCK:   -4.44 KCAL/MOL
REMARK 923 INTER-LIGAND FREE ENERGY PREDICTED BY IDOCK:   -4.16 KCAL/MOL
REMARK 924 INTRA-LIGAND FREE ENERGY PREDICTED BY IDOCK:   -0.28 KCAL/MOL
REMARK 927      BINDING AFFINITY PREDICTED BY RF-SCORE:    0.00 PKD
ROOT
HETATM    1  C   UNL     1      -9.054  12.646  67.584  1.00  0.00    -0.192 C  
HETATM    2  C   UNL     1     -10.321  13.515  67.488  1.00  0.00    -0.237 C  
HETATM    3  C   UNL     1     -10.466  13.986  66.026  1.00  0.00    -0.307 C  
HETATM    4  C   UNL     1     -10.185  14.757  68.382  1.00  0.00    -0.224 C  
HETATM    5  N   UNL     1     -11.540  12.742  67.810  1.00  0.00    -0.332 NA 
HETATM    6  H   UNL     1     -11.677  12.000  67.123  1.00  0.00     0.000 HD 
ENDROOT
BRANCH   5   7
HETATM    7  C   UNL     1     -11.588  12.187  69.170  1.00  0.00    -0.319 C  
BRANCH   7   8
HETATM    8  C   UNL     1     -11.742  10.653  69.235  1.00  0.00    -0.264 C  
HETATM    9  O   UNL     1     -11.938  10.280  70.608  1.00  0.00    -0.291 OA 
HETATM   10  H   UNL     1     -12.032   9.336  70.647  1.00  0.00     0.000 HD 
BRANCH   8  11
HETATM   11  C   UNL     1     -10.507   9.927  68.693  1.00  0.00    -0.206 C  
BRANCH  11  12
HETATM   12  O   UNL     1     -10.771   8.516  68.674  1.00  0.00    -0.159 OA 
BRANCH  12  13
HETATM   13  C   UNL     1      -9.695   7.742  69.041  1.00  0.00    -0.157 A  
HETATM   14  C   UNL     1      -8.812   8.109  70.065  1.00  0.00    -0.139 A  
HETATM   15  C   UNL     1      -7.702   7.321  70.359  1.00  0.00    -0.094 A  
HETATM   16  C   UNL     1      -7.494   6.137  69.657  1.00  0.00    -0.081 A  
HETATM   17  C   UNL     1      -8.407   5.733  68.677  1.00  0.00    -0.107 A  
HETATM   18  C   UNL     1      -9.516   6.534  68.347  1.00  0.00    -0.120 A  
HETATM   19  C   UNL     1     -10.515   6.093  67.302  1.00  0.00    -0.317 C  
HETATM   20  C   UNL     1      -9.948   5.044  66.354  1.00  0.00    -0.249 C  
HETATM   21  C   UNL     1      -9.307   3.906  67.127  1.00  0.00    -0.216 C  
HETATM   22  C   UNL     1      -8.194   4.425  68.005  1.00  0.00    -0.094 C  
HETATM   23  O   UNL     1      -7.178   3.770  68.216  1.00  0.00    -0.054 OA 
ENDBRANCH  12  13
ENDBRANCH  11  12
ENDBRANCH   8  11
ENDBRANCH   7   8
ENDBRANCH   5   7
TORSDOF 5
ENDMDL
MODEL      284
REMARK 921   NORMALIZED FREE ENERGY PREDICTED BY IDOCK:   -2.84 KCAL/MOL
REMARK 922        TOTAL FREE ENERGY PREDICTED BY IDOCK:   -4.40 KCAL/MOL
REMARK 923 INTER-LIGAND FREE ENERGY PREDICTED BY IDOCK:   -4.12 KCAL/MOL
REMARK 924 INTRA-LIGAND FREE ENERGY PREDICTED BY IDOCK:   -0.28 KCAL/MOL
REMARK 927      BINDING AFFINITY PREDICTED BY RF-SCORE:    0.00 PKD
ROOT
HETATM    1  C   UNL     1      -9.038  10.973  67.030  1.00  0.00    -0.154 C  
HETATM    2  C   UNL     1     -10.409  11.625  66.776  1.00  0.00    -0.222 C  
HETATM    3  C   UNL     1     -10.852  11.258  65.344  1.00  0.00    -0.255 C  
HETATM    4  C   UNL     1     -10.298  13.154  66.867  1.00  0.00    -0.247 C  
HETATM    5  N   UNL     1     -11.444  11.097  67.691  1.00  0.00    -0.500 NA 
HETATM    6  H   UNL     1     -11.590  10.102  67.521  1.00  0.00     0.000 HD 
ENDROOT
BRANCH   5   7
HETATM    7  C   UNL     1     -11.194  11.335  69.121  1.00  0.00    -0.273 C  
BRANCH   7   8
HETATM    8  C   UNL     1     -12.117  10.548  70.074  1.00  0.00    -0.274 C  
HETATM    9  O   UNL     1     -12.261  11.306  71.285  1.00  0.00    -0.283 OA 
HETATM   10  H   UNL     1     -12.829  10.821  71.872  1.00  0.00     0.000 HD 
BRANCH   8  11
HETATM   11  C   UNL     1     -11.550   9.167  70.416  1.00  0.00    -0.146 C  
BRANCH  11  12
HETATM   12  O   UNL     1     -10.836   9.254  71.659  1.00  0.00    -0.357 OA 
BRANCH  12  13
HETATM   13  C   UNL     1      -9.617   8.618  71.648  1.00  0.00    -0.274 A  
HETATM   14  C   UNL     1      -8.414   9.292  71.397  1.00  0.00     0.108 A  
HETATM   15  C   UNL     1      -7.211   8.593  71.338  1.00  0.00    -0.101 A  
HETATM   16  C   UNL     1      -7.201   7.221  71.572  1.00  0.00    -0.072 A  
HETATM   17  C   UNL     1      -8.390   6.553  71.886  1.00  0.00    -0.115 A  
HETATM   18  C   UNL     1      -9.618   7.240  71.919  1.00  0.00    -0.164 A  
HETATM   19  C   UNL     1     -10.902   6.528  72.277  1.00  0.00    -0.262 C  
HETATM   20  C   UNL     1     -10.809   5.019  72.084  1.00  0.00    -0.179 C  
HETATM   21  C   UNL     1      -9.573   4.461  72.767  1.00  0.00    -0.171 C  
HETATM   22  C   UNL     1      -8.327   5.104  72.208  1.00  0.00    -0.121 C  
HETATM   23  O   UNL     1      -7.278   4.480  72.084  1.00  0.00    -0.062 OA 
ENDBRANCH  12  13
ENDBRANCH  11  12
ENDBRANCH   8  11
ENDBRANCH   7   8
ENDBRANCH   5   7
TORSDOF 5
ENDMDL
MODEL      285
REMARK 921   NORMALIZED FREE ENERGY PREDICTED BY IDOCK:   -2.84 KCAL/MOL
REMARK 922        TOTAL FREE ENERGY PREDICTED BY IDOCK:   -4.40 KCAL/MOL
REMARK 923 INTER-LIGAND FREE ENERGY PREDICTED BY IDOCK:   -4.02 KCAL/MOL
REMARK 924 INTRA-LIGAND FREE ENERGY PREDICTED BY IDOCK:   -0.38 KCAL/MOL
REMARK 927      BINDING AFFINITY PREDICTED BY RF-SCORE:    0.00 PKD
ROOT
HETATM    1  C   UNL     1      -7.718  15.401  67.093  1.00  0.00    -0.246 C  
HETATM    2  C   UNL     1      -9.043  14.684  67.409  1.00  0.00    -0.197 C  
HETATM    3  C   UNL     1     -10.138  15.289  66.505  1.00  0.00    -0.280 C  
HETATM    4  C   UNL     1      -9.443  14.921  68.873  1.00  0.00    -0.209 C  
HETATM    5  N   UNL     1      -8.975  13.242  67.087  1.00  0.00    -0.221 NA 
HETATM    6  H   UNL     1      -8.836  13.111  66.086  1.00  0.00     0.000 HD 
ENDROOT
BRANCH   5   7
HETATM    7  C   UNL     1      -7.967  12.481  67.841  1.00  0.00    -0.157 C  
BRANCH   7   8
HETATM    8  C   UNL     1      -8.122  10.948  67.756  1.00  0.00    -0.115 C  
HETATM    9  O   UNL     1      -9.053  10.650  66.704  1.00  0.00    -0.157 OA 
HETATM   10  H   UNL     1      -9.149   9.706  66.652  1.00  0.00     0.000 HD 
BRANCH   8  11
HETATM   11  C   UNL     1      -8.642  10.348  69.066  1.00  0.00    -0.157 C  
BRANCH  11  12
HETATM   12  O   UNL     1      -9.196   9.051  68.793  1.00  0.00    -0.133 OA 
BRANCH  12  13
HETATM   13  C   UNL     1      -9.888   8.506  69.848  1.00  0.00    -0.186 A  
HETATM   14  C   UNL     1     -11.019   9.116  70.408  1.00  0.00    -0.290 A  
HETATM   15  C   UNL     1     -11.650   8.555  71.516  1.00  0.00    -0.352 A  
HETATM   16  C   UNL     1     -11.176   7.357  72.044  1.00  0.00    -0.289 A  
HETATM   17  C   UNL     1     -10.086   6.711  71.450  1.00  0.00    -0.209 A  
HETATM   18  C   UNL     1      -9.419   7.281  70.350  1.00  0.00    -0.165 A  
HETATM   19  C   UNL     1      -8.253   6.578  69.694  1.00  0.00    -0.126 C  
HETATM   20  C   UNL     1      -7.600   5.546  70.606  1.00  0.00    -0.089 C  
HETATM   21  C   UNL     1      -8.641   4.613  71.199  1.00  0.00    -0.128 C  
HETATM   22  C   UNL     1      -9.660   5.395  71.992  1.00  0.00    -0.155 C  
HETATM   23  O   UNL     1     -10.172   4.942  73.011  1.00  0.00    -0.160 OA 
ENDBRANCH  12  13
ENDBRANCH  11  12
ENDBRANCH   8  11
ENDBRANCH   7   8
ENDBRANCH   5   7
TORSDOF 5
ENDMDL
MODEL      286
REMARK 921   NORMALIZED FREE ENERGY PREDICTED BY IDOCK:   -2.80 KCAL/MOL
REMARK 922        TOTAL FREE ENERGY PREDICTED BY IDOCK:   -4.35 KCAL/MOL
REMARK 923 INTER-LIGAND FREE ENERGY PREDICTED BY IDOCK:   -3.85 KCAL/MOL
REMARK 924 INTRA-LIGAND FREE ENERGY PREDICTED BY IDOCK:   -0.50 KCAL/MOL
REMARK 927      BINDING AFFINITY PREDICTED BY RF-SCORE:    0.00 PKD
ROOT
HETATM    1  C   UNL     1      -7.473   1.497  68.604  1.00  0.00    -0.042 C  
HETATM    2  C   UNL     1      -7.872   2.980  68.508  1.00  0.00    -0.057 C  
HETATM    3  C   UNL     1      -8.348   3.252  67.065  1.00  0.00    -0.097 C  
HETATM    4  C   UNL     1      -6.660   3.879  68.792  1.00  0.00    -0.041 C  
HETATM    5  N   UNL     1      -9.010   3.299  69.398  1.00  0.00    -0.101 NA 
HETATM    6  H   UNL     1      -9.840   2.783  69.107  1.00  0.00     0.000 HD 
ENDROOT
BRANCH   5   7
HETATM    7  C   UNL     1      -8.760   3.088  70.832  1.00  0.00    -0.075 C  
BRANCH   7   8
HETATM    8  C   UNL     1      -8.685   4.382  71.669  1.00  0.00    -0.118 C  
HETATM    9  O   UNL     1      -7.964   4.092  72.877  1.00  0.00    -0.081 OA 
HETATM   10  H   UNL     1      -7.919   4.889  73.393  1.00  0.00     0.000 HD 
BRANCH   8  11
HETATM   11  C   UNL     1     -10.074   4.913  72.033  1.00  0.00    -0.196 C  
BRANCH  11  12
HETATM   12  O   UNL     1     -10.638   5.562  70.882  1.00  0.00    -0.247 OA 
BRANCH  12  13
HETATM   13  C   UNL     1     -10.639   6.934  70.959  1.00  0.00    -0.220 A  
HETATM   14  C   UNL     1      -9.530   7.714  70.603  1.00  0.00    -0.163 A  
HETATM   15  C   UNL     1      -9.560   9.097  70.755  1.00  0.00    -0.338 A  
HETATM   16  C   UNL     1     -10.716   9.713  71.226  1.00  0.00    -0.317 A  
HETATM   17  C   UNL     1     -11.848   8.946  71.522  1.00  0.00    -0.402 A  
HETATM   18  C   UNL     1     -11.823   7.544  71.403  1.00  0.00    -0.321 A  
HETATM   19  C   UNL     1     -13.049   6.713  71.704  1.00  0.00    -0.142 C  
HETATM   20  C   UNL     1     -14.053   7.446  72.587  1.00  0.00     0.469 C  
HETATM   21  C   UNL     1     -14.353   8.826  72.034  1.00  0.00    -0.466 C  
HETATM   22  C   UNL     1     -13.088   9.646  71.945  1.00  0.00    -0.436 C  
HETATM   23  O   UNL     1     -13.087  10.856  72.147  1.00  0.00    -0.463 OA 
ENDBRANCH  12  13
ENDBRANCH  11  12
ENDBRANCH   8  11
ENDBRANCH   7   8
ENDBRANCH   5   7
TORSDOF 5
ENDMDL
MODEL      287
REMARK 921   NORMALIZED FREE ENERGY PREDICTED BY IDOCK:   -2.78 KCAL/MOL
REMARK 922        TOTAL FREE ENERGY PREDICTED BY IDOCK:   -4.32 KCAL/MOL
REMARK 923 INTER-LIGAND FREE ENERGY PREDICTED BY IDOCK:   -3.49 KCAL/MOL
REMARK 924 INTRA-LIGAND FREE ENERGY PREDICTED BY IDOCK:   -0.83 KCAL/MOL
REMARK 927      BINDING AFFINITY PREDICTED BY RF-SCORE:    0.00 PKD
ROOT
HETATM    1  C   UNL     1      -9.322   4.429  69.055  1.00  0.00    -0.219 C  
HETATM    2  C   UNL     1      -8.673   3.357  68.161  1.00  0.00    -0.108 C  
HETATM    3  C   UNL     1      -9.530   2.077  68.255  1.00  0.00    -0.231 C  
HETATM    4  C   UNL     1      -7.260   3.027  68.664  1.00  0.00    -0.049 C  
HETATM    5  N   UNL     1      -8.666   3.762  66.738  1.00  0.00    -0.112 NA 
HETATM    6  H   UNL     1      -9.622   3.849  66.393  1.00  0.00     0.000 HD 
ENDROOT
BRANCH   5   7
HETATM    7  C   UNL     1      -7.906   4.985  66.440  1.00  0.00    -0.099 C  
BRANCH   7   8
HETATM    8  C   UNL     1      -8.705   6.073  65.694  1.00  0.00    -0.137 C  
HETATM    9  O   UNL     1      -8.799   5.691  64.313  1.00  0.00    -0.347 OA 
HETATM   10  H   UNL     1      -9.291   6.361  63.853  1.00  0.00     0.000 HD 
BRANCH   8  11
HETATM   11  C   UNL     1      -8.034   7.446  65.786  1.00  0.00    -0.118 C  
BRANCH  11  12
HETATM   12  O   UNL     1      -8.699   8.220  66.797  1.00  0.00    -0.125 OA 
BRANCH  12  13
HETATM   13  C   UNL     1      -7.974   8.366  67.955  1.00  0.00    -0.119 A  
HETATM   14  C   UNL     1      -6.575   8.461  67.967  1.00  0.00    -0.058 A  
HETATM   15  C   UNL     1      -5.882   8.548  69.172  1.00  0.00    -0.039 A  
HETATM   16  C   UNL     1      -6.588   8.582  70.371  1.00  0.00    -0.036 A  
HETATM   17  C   UNL     1      -7.987   8.551  70.362  1.00  0.00    -0.099 A  
HETATM   18  C   UNL     1      -8.701   8.432  69.155  1.00  0.00    -0.142 A  
HETATM   19  C   UNL     1     -10.212   8.418  69.139  1.00  0.00    -0.217 C  
HETATM   20  C   UNL     1     -10.809   8.036  70.489  1.00  0.00    -0.241 C  
HETATM   21  C   UNL     1     -10.203   8.868  71.604  1.00  0.00    -0.415 C  
HETATM   22  C   UNL     1      -8.707   8.670  71.656  1.00  0.00    -0.203 C  
HETATM   23  O   UNL     1      -8.092   8.674  72.718  1.00  0.00    -0.380 OA 
ENDBRANCH  12  13
ENDBRANCH  11  12
ENDBRANCH   8  11
ENDBRANCH   7   8
ENDBRANCH   5   7
TORSDOF 5
ENDMDL
MODEL      288
REMARK 921   NORMALIZED FREE ENERGY PREDICTED BY IDOCK:   -2.74 KCAL/MOL
REMARK 922        TOTAL FREE ENERGY PREDICTED BY IDOCK:   -4.27 KCAL/MOL
REMARK 923 INTER-LIGAND FREE ENERGY PREDICTED BY IDOCK:   -3.79 KCAL/MOL
REMARK 924 INTRA-LIGAND FREE ENERGY PREDICTED BY IDOCK:   -0.49 KCAL/MOL
REMARK 927      BINDING AFFINITY PREDICTED BY RF-SCORE:    0.00 PKD
ROOT
HETATM    1  C   UNL     1      -9.849   6.969  70.767  1.00  0.00    -0.190 C  
HETATM    2  C   UNL     1      -9.465   6.127  69.537  1.00  0.00    -0.140 C  
HETATM    3  C   UNL     1     -10.109   4.734  69.694  1.00  0.00    -0.275 C  
HETATM    4  C   UNL     1      -7.941   5.948  69.467  1.00  0.00    -0.105 C  
HETATM    5  N   UNL     1     -10.004   6.707  68.287  1.00  0.00    -0.140 NA 
HETATM    6  H   UNL     1     -11.024   6.696  68.306  1.00  0.00     0.000 HD 
ENDROOT
BRANCH   5   7
HETATM    7  C   UNL     1      -9.518   8.056  67.963  1.00  0.00    -0.146 C  
BRANCH   7   8
HETATM    8  C   UNL     1     -10.236   8.731  66.776  1.00  0.00    -0.284 C  
HETATM    9  O   UNL     1      -9.413   8.578  65.610  1.00  0.00    -0.421 OA 
HETATM   10  H   UNL     1      -9.856   8.994  64.879  1.00  0.00     0.000 HD 
BRANCH   8  11
HETATM   11  C   UNL     1     -10.479  10.223  67.023  1.00  0.00    -0.244 C  
BRANCH  11  12
HETATM   12  O   UNL     1      -9.541  10.980  66.241  1.00  0.00    -0.190 OA 
BRANCH  12  13
HETATM   13  C   UNL     1      -9.239  12.212  66.771  1.00  0.00    -0.207 A  
HETATM   14  C   UNL     1     -10.167  13.261  66.826  1.00  0.00    -0.254 A  
HETATM   15  C   UNL     1      -9.795  14.509  67.318  1.00  0.00    -0.236 A  
HETATM   16  C   UNL     1      -8.502  14.703  67.797  1.00  0.00    -0.178 A  
HETATM   17  C   UNL     1      -7.590  13.641  67.803  1.00  0.00    -0.167 A  
HETATM   18  C   UNL     1      -7.942  12.383  67.280  1.00  0.00    -0.178 A  
HETATM   19  C   UNL     1      -6.967  11.228  67.302  1.00  0.00    -0.109 C  
HETATM   20  C   UNL     1      -5.519  11.684  67.443  1.00  0.00    -0.080 C  
HETATM   21  C   UNL     1      -5.368  12.653  68.601  1.00  0.00    -0.059 C  
HETATM   22  C   UNL     1      -6.246  13.864  68.395  1.00  0.00    -0.101 C  
HETATM   23  O   UNL     1      -5.900  14.983  68.760  1.00  0.00    -0.083 OA 
ENDBRANCH  12  13
ENDBRANCH  11  12
ENDBRANCH   8  11
ENDBRANCH   7   8
ENDBRANCH   5   7
TORSDOF 5
ENDMDL
MODEL      289
REMARK 921   NORMALIZED FREE ENERGY PREDICTED BY IDOCK:   -2.71 KCAL/MOL
REMARK 922        TOTAL FREE ENERGY PREDICTED BY IDOCK:   -4.24 KCAL/MOL
REMARK 923 INTER-LIGAND FREE ENERGY PREDICTED BY IDOCK:   -3.83 KCAL/MOL
REMARK 924 INTRA-LIGAND FREE ENERGY PREDICTED BY IDOCK:   -0.41 KCAL/MOL
REMARK 927      BINDING AFFINITY PREDICTED BY RF-SCORE:    0.00 PKD
ROOT
HETATM    1  C   UNL     1     -10.768   4.227  65.066  1.00  0.00    -0.139 C  
HETATM    2  C   UNL     1      -9.326   4.290  64.530  1.00  0.00    -0.160 C  
HETATM    3  C   UNL     1      -9.359   3.923  63.032  1.00  0.00    -0.115 C  
HETATM    4  C   UNL     1      -8.442   3.266  65.257  1.00  0.00    -0.100 C  
HETATM    5  N   UNL     1      -8.768   5.656  64.622  1.00  0.00    -0.334 NA 
HETATM    6  H   UNL     1      -9.298   6.294  64.028  1.00  0.00     0.000 HD 
ENDROOT
BRANCH   5   7
HETATM    7  C   UNL     1      -8.667   6.201  65.985  1.00  0.00    -0.153 C  
BRANCH   7   8
HETATM    8  C   UNL     1      -8.243   7.682  66.056  1.00  0.00    -0.128 C  
HETATM    9  O   UNL     1      -7.309   7.828  67.137  1.00  0.00    -0.087 OA 
HETATM   10  H   UNL     1      -7.048   8.741  67.181  1.00  0.00     0.000 HD 
BRANCH   8  11
HETATM   11  C   UNL     1      -9.435   8.612  66.299  1.00  0.00    -0.241 C  
BRANCH  11  12
HETATM   12  O   UNL     1      -9.251   9.283  67.556  1.00  0.00    -0.124 OA 
BRANCH  12  13
HETATM   13  C   UNL     1      -9.799  10.543  67.601  1.00  0.00    -0.166 A  
HETATM   14  C   UNL     1     -11.182  10.769  67.595  1.00  0.00    -0.370 A  
HETATM   15  C   UNL     1     -11.688  12.066  67.582  1.00  0.00    -0.365 A  
HETATM   16  C   UNL     1     -10.810  13.146  67.617  1.00  0.00    -0.269 A  
HETATM   17  C   UNL     1      -9.430  12.927  67.687  1.00  0.00    -0.197 A  
HETATM   18  C   UNL     1      -8.903  11.622  67.670  1.00  0.00    -0.159 A  
HETATM   19  C   UNL     1      -7.414  11.380  67.764  1.00  0.00    -0.100 C  
HETATM   20  C   UNL     1      -6.594  12.603  67.371  1.00  0.00    -0.145 C  
HETATM   21  C   UNL     1      -7.075  13.838  68.110  1.00  0.00    -0.118 C  
HETATM   22  C   UNL     1      -8.530  14.103  67.804  1.00  0.00    -0.178 C  
HETATM   23  O   UNL     1      -8.975  15.244  67.719  1.00  0.00    -0.174 OA 
ENDBRANCH  12  13
ENDBRANCH  11  12
ENDBRANCH   8  11
ENDBRANCH   7   8
ENDBRANCH   5   7
TORSDOF 5
ENDMDL
MODEL      290
REMARK 921   NORMALIZED FREE ENERGY PREDICTED BY IDOCK:   -2.69 KCAL/MOL
REMARK 922        TOTAL FREE ENERGY PREDICTED BY IDOCK:   -4.21 KCAL/MOL
REMARK 923 INTER-LIGAND FREE ENERGY PREDICTED BY IDOCK:   -3.98 KCAL/MOL
REMARK 924 INTRA-LIGAND FREE ENERGY PREDICTED BY IDOCK:   -0.22 KCAL/MOL
REMARK 927      BINDING AFFINITY PREDICTED BY RF-SCORE:    0.00 PKD
ROOT
HETATM    1  C   UNL     1      -8.315   5.798  70.501  1.00  0.00    -0.119 C  
HETATM    2  C   UNL     1      -9.548   6.574  70.998  1.00  0.00    -0.175 C  
HETATM    3  C   UNL     1      -9.595   6.458  72.536  1.00  0.00    -0.154 C  
HETATM    4  C   UNL     1     -10.833   5.956  70.429  1.00  0.00    -0.378 C  
HETATM    5  N   UNL     1      -9.449   8.016  70.682  1.00  0.00    -0.161 NA 
HETATM    6  H   UNL     1      -8.659   8.431  71.176  1.00  0.00     0.000 HD 
ENDROOT
BRANCH   5   7
HETATM    7  C   UNL     1      -9.376   8.339  69.250  1.00  0.00    -0.155 C  
BRANCH   7   8
HETATM    8  C   UNL     1     -10.566   9.163  68.714  1.00  0.00    -0.181 C  
HETATM    9  O   UNL     1     -10.464   9.218  67.283  1.00  0.00    -0.252 OA 
HETATM   10  H   UNL     1     -11.196   9.725  66.953  1.00  0.00     0.000 HD 
BRANCH   8  11
HETATM   11  C   UNL     1     -10.574  10.590  69.269  1.00  0.00    -0.236 C  
BRANCH  11  12
HETATM   12  O   UNL     1     -10.960  11.492  68.219  1.00  0.00    -0.196 OA 
BRANCH  12  13
HETATM   13  C   UNL     1     -10.786  12.819  68.532  1.00  0.00    -0.253 A  
HETATM   14  C   UNL     1     -11.786  13.593  69.137  1.00  0.00    -0.376 A  
HETATM   15  C   UNL     1     -11.582  14.949  69.379  1.00  0.00    -0.337 A  
HETATM   16  C   UNL     1     -10.359  15.529  69.056  1.00  0.00    -0.235 A  
HETATM   17  C   UNL     1      -9.334  14.748  68.511  1.00  0.00    -0.199 A  
HETATM   18  C   UNL     1      -9.535  13.384  68.231  1.00  0.00    -0.209 A  
HETATM   19  C   UNL     1      -8.426  12.531  67.660  1.00  0.00    -0.171 C  
HETATM   20  C   UNL     1      -7.341  13.358  66.980  1.00  0.00     0.292 C  
HETATM   21  C   UNL     1      -6.866  14.478  67.888  1.00  0.00    -0.177 C  
HETATM   22  C   UNL     1      -8.016  15.385  68.254  1.00  0.00    -0.128 C  
HETATM   23  O   UNL     1      -7.865  16.593  68.401  1.00  0.00    -0.184 OA 
ENDBRANCH  12  13
ENDBRANCH  11  12
ENDBRANCH   8  11
ENDBRANCH   7   8
ENDBRANCH   5   7
TORSDOF 5
ENDMDL
MODEL      291
REMARK 921   NORMALIZED FREE ENERGY PREDICTED BY IDOCK:   -2.69 KCAL/MOL
REMARK 922        TOTAL FREE ENERGY PREDICTED BY IDOCK:   -4.20 KCAL/MOL
REMARK 923 INTER-LIGAND FREE ENERGY PREDICTED BY IDOCK:   -4.13 KCAL/MOL
REMARK 924 INTRA-LIGAND FREE ENERGY PREDICTED BY IDOCK:   -0.07 KCAL/MOL
REMARK 927      BINDING AFFINITY PREDICTED BY RF-SCORE:    0.00 PKD
ROOT
HETATM    1  C   UNL     1      -8.385   8.824  71.508  1.00  0.00    -0.212 C  
HETATM    2  C   UNL     1      -9.405   7.696  71.277  1.00  0.00    -0.149 C  
HETATM    3  C   UNL     1      -9.252   6.674  72.423  1.00  0.00    -0.140 C  
HETATM    4  C   UNL     1      -9.115   6.977  69.950  1.00  0.00    -0.141 C  
HETATM    5  N   UNL     1     -10.796   8.195  71.334  1.00  0.00    -0.229 NA 
HETATM    6  H   UNL     1     -11.003   8.551  72.267  1.00  0.00     0.000 HD 
ENDROOT
BRANCH   5   7
HETATM    7  C   UNL     1     -11.141   9.203  70.320  1.00  0.00    -0.239 C  
BRANCH   7   8
HETATM    8  C   UNL     1     -12.161  10.263  70.787  1.00  0.00    -0.353 C  
HETATM    9  O   UNL     1     -13.479   9.776  70.488  1.00  0.00    -0.606 OA 
HETATM   10  H   UNL     1     -14.107  10.429  70.775  1.00  0.00     0.000 HD 
BRANCH   8  11
HETATM   11  C   UNL     1     -11.955  11.608  70.086  1.00  0.00    -0.359 C  
BRANCH  11  12
HETATM   12  O   UNL     1     -10.584  11.710  69.671  1.00  0.00     0.024 OA 
BRANCH  12  13
HETATM   13  C   UNL     1     -10.374  11.383  68.353  1.00  0.00    -0.195 A  
HETATM   14  C   UNL     1     -11.365  11.520  67.371  1.00  0.00    -0.367 A  
HETATM   15  C   UNL     1     -11.122  11.119  66.060  1.00  0.00    -0.117 A  
HETATM   16  C   UNL     1      -9.870  10.619  65.714  1.00  0.00    -0.296 A  
HETATM   17  C   UNL     1      -8.856  10.540  66.676  1.00  0.00    -0.145 A  
HETATM   18  C   UNL     1      -9.096  10.911  68.012  1.00  0.00    -0.152 A  
HETATM   19  C   UNL     1      -7.999  10.846  69.049  1.00  0.00    -0.131 C  
HETATM   20  C   UNL     1      -6.865   9.910  68.647  1.00  0.00    -0.051 C  
HETATM   21  C   UNL     1      -6.380  10.219  67.243  1.00  0.00    -0.066 C  
HETATM   22  C   UNL     1      -7.510  10.076  66.251  1.00  0.00    -0.106 C  
HETATM   23  O   UNL     1      -7.322   9.657  65.113  1.00  0.00    -0.105 OA 
ENDBRANCH  12  13
ENDBRANCH  11  12
ENDBRANCH   8  11
ENDBRANCH   7   8
ENDBRANCH   5   7
TORSDOF 5
ENDMDL
MODEL      292
REMARK 921   NORMALIZED FREE ENERGY PREDICTED BY IDOCK:   -2.68 KCAL/MOL
REMARK 922        TOTAL FREE ENERGY PREDICTED BY IDOCK:   -4.19 KCAL/MOL
REMARK 923 INTER-LIGAND FREE ENERGY PREDICTED BY IDOCK:   -3.15 KCAL/MOL
REMARK 924 INTRA-LIGAND FREE ENERGY PREDICTED BY IDOCK:   -1.04 KCAL/MOL
REMARK 927      BINDING AFFINITY PREDICTED BY RF-SCORE:    0.00 PKD
ROOT
HETATM    1  C   UNL     1      -8.344   9.011  65.447  1.00  0.00    -0.151 C  
HETATM    2  C   UNL     1      -9.095  10.248  65.970  1.00  0.00    -0.161 C  
HETATM    3  C   UNL     1     -10.407   9.767  66.625  1.00  0.00    -0.276 C  
HETATM    4  C   UNL     1      -9.453  11.186  64.808  1.00  0.00    -0.250 C  
HETATM    5  N   UNL     1      -8.327  10.950  67.022  1.00  0.00    -0.129 NA 
HETATM    6  H   UNL     1      -8.213  10.347  67.836  1.00  0.00     0.000 HD 
ENDROOT
BRANCH   5   7
HETATM    7  C   UNL     1      -7.021  11.477  66.596  1.00  0.00    -0.069 C  
BRANCH   7   8
HETATM    8  C   UNL     1      -5.812  10.883  67.348  1.00  0.00    -0.046 C  
HETATM    9  O   UNL     1      -5.212   9.882  66.511  1.00  0.00    -0.042 OA 
HETATM   10  H   UNL     1      -4.468   9.517  66.974  1.00  0.00     0.000 HD 
BRANCH   8  11
HETATM   11  C   UNL     1      -6.218  10.243  68.678  1.00  0.00    -0.047 C  
BRANCH  11  12
HETATM   12  O   UNL     1      -6.793   8.953  68.415  1.00  0.00    -0.063 OA 
BRANCH  12  13
HETATM   13  C   UNL     1      -7.800   8.604  69.282  1.00  0.00    -0.101 A  
HETATM   14  C   UNL     1      -8.096   9.341  70.437  1.00  0.00    -0.178 A  
HETATM   15  C   UNL     1      -9.087   8.913  71.316  1.00  0.00    -0.323 A  
HETATM   16  C   UNL     1      -9.818   7.765  71.022  1.00  0.00    -0.186 A  
HETATM   17  C   UNL     1      -9.571   7.060  69.838  1.00  0.00    -0.159 A  
HETATM   18  C   UNL     1      -8.552   7.463  68.956  1.00  0.00    -0.133 A  
HETATM   19  C   UNL     1      -8.294   6.716  67.668  1.00  0.00    -0.122 C  
HETATM   20  C   UNL     1      -8.846   5.296  67.692  1.00  0.00    -0.105 C  
HETATM   21  C   UNL     1     -10.296   5.287  68.141  1.00  0.00    -0.181 C  
HETATM   22  C   UNL     1     -10.425   5.887  69.521  1.00  0.00    -0.278 C  
HETATM   23  O   UNL     1     -11.247   5.472  70.332  1.00  0.00    -0.150 OA 
ENDBRANCH  12  13
ENDBRANCH  11  12
ENDBRANCH   8  11
ENDBRANCH   7   8
ENDBRANCH   5   7
TORSDOF 5
ENDMDL
MODEL      293
REMARK 921   NORMALIZED FREE ENERGY PREDICTED BY IDOCK:   -2.49 KCAL/MOL
REMARK 922        TOTAL FREE ENERGY PREDICTED BY IDOCK:   -3.95 KCAL/MOL
REMARK 923 INTER-LIGAND FREE ENERGY PREDICTED BY IDOCK:   -3.69 KCAL/MOL
REMARK 924 INTRA-LIGAND FREE ENERGY PREDICTED BY IDOCK:   -0.26 KCAL/MOL
REMARK 927      BINDING AFFINITY PREDICTED BY RF-SCORE:    0.00 PKD
ROOT
HETATM    1  C   UNL     1     -11.330  16.185  68.442  1.00  0.00    -0.345 C  
HETATM    2  C   UNL     1     -10.707  15.289  69.526  1.00  0.00    -0.265 C  
HETATM    3  C   UNL     1     -11.303  15.704  70.887  1.00  0.00    -0.417 C  
HETATM    4  C   UNL     1      -9.186  15.499  69.583  1.00  0.00    -0.203 C  
HETATM    5  N   UNL     1     -11.054  13.865  69.325  1.00  0.00    -0.331 NA 
HETATM    6  H   UNL     1     -12.060  13.732  69.420  1.00  0.00     0.000 HD 
ENDROOT
BRANCH   5   7
HETATM    7  C   UNL     1     -10.582  13.279  68.061  1.00  0.00    -0.240 C  
BRANCH   7   8
HETATM    8  C   UNL     1      -9.776  11.973  68.219  1.00  0.00    -0.205 C  
HETATM    9  O   UNL     1      -8.527  12.293  68.852  1.00  0.00    -0.359 OA 
HETATM   10  H   UNL     1      -8.030  11.488  68.949  1.00  0.00     0.000 HD 
BRANCH   8  11
HETATM   11  C   UNL     1      -9.495  11.303  66.871  1.00  0.00    -0.177 C  
BRANCH  11  12
HETATM   12  O   UNL     1      -9.926   9.935  66.935  1.00  0.00    -0.191 OA 
BRANCH  12  13
HETATM   13  C   UNL     1      -8.910   9.039  67.167  1.00  0.00    -0.119 A  
HETATM   14  C   UNL     1      -8.469   8.711  68.457  1.00  0.00    -0.131 A  
HETATM   15  C   UNL     1      -7.395   7.843  68.638  1.00  0.00    -0.090 A  
HETATM   16  C   UNL     1      -6.783   7.266  67.529  1.00  0.00    -0.065 A  
HETATM   17  C   UNL     1      -7.259   7.540  66.242  1.00  0.00    -0.074 A  
HETATM   18  C   UNL     1      -8.323   8.439  66.041  1.00  0.00    -0.128 A  
HETATM   19  C   UNL     1      -8.853   8.724  64.655  1.00  0.00    -0.054 C  
HETATM   20  C   UNL     1      -7.850   8.380  63.560  1.00  0.00    -0.152 C  
HETATM   21  C   UNL     1      -7.308   6.975  63.746  1.00  0.00    -0.081 C  
HETATM   22  C   UNL     1      -6.632   6.843  65.090  1.00  0.00    -0.046 C  
HETATM   23  O   UNL     1      -5.641   6.137  65.248  1.00  0.00    -0.016 OA 
ENDBRANCH  12  13
ENDBRANCH  11  12
ENDBRANCH   8  11
ENDBRANCH   7   8
ENDBRANCH   5   7
TORSDOF 5
ENDMDL
MODEL      294
REMARK 921   NORMALIZED FREE ENERGY PREDICTED BY IDOCK:   -2.44 KCAL/MOL
REMARK 922        TOTAL FREE ENERGY PREDICTED BY IDOCK:   -3.89 KCAL/MOL
REMARK 923 INTER-LIGAND FREE ENERGY PREDICTED BY IDOCK:   -3.54 KCAL/MOL
REMARK 924 INTRA-LIGAND FREE ENERGY PREDICTED BY IDOCK:   -0.35 KCAL/MOL
REMARK 927      BINDING AFFINITY PREDICTED BY RF-SCORE:    0.00 PKD
ROOT
HETATM    1  C   UNL     1     -10.951  16.738  68.115  1.00  0.00    -0.309 C  
HETATM    2  C   UNL     1     -10.549  15.600  69.070  1.00  0.00    -0.234 C  
HETATM    3  C   UNL     1     -11.236  15.854  70.428  1.00  0.00    -0.392 C  
HETATM    4  C   UNL     1      -9.029  15.601  69.292  1.00  0.00    -0.267 C  
HETATM    5  N   UNL     1     -11.030  14.287  68.588  1.00  0.00    -0.243 NA 
HETATM    6  H   UNL     1     -12.049  14.270  68.572  1.00  0.00     0.000 HD 
ENDROOT
BRANCH   5   7
HETATM    7  C   UNL     1     -10.496  13.866  67.284  1.00  0.00    -0.271 C  
BRANCH   7   8
HETATM    8  C   UNL     1     -10.204  12.355  67.166  1.00  0.00    -0.216 C  
HETATM    9  O   UNL     1     -11.382  11.639  67.569  1.00  0.00    -0.270 OA 
HETATM   10  H   UNL     1     -11.202  10.709  67.496  1.00  0.00     0.000 HD 
BRANCH   8  11
HETATM   11  C   UNL     1      -9.032  11.923  68.051  1.00  0.00    -0.185 C  
BRANCH  11  12
HETATM   12  O   UNL     1      -8.353  10.826  67.419  1.00  0.00    -0.118 OA 
BRANCH  12  13
HETATM   13  C   UNL     1      -8.500   9.627  68.075  1.00  0.00    -0.118 A  
HETATM   14  C   UNL     1      -9.492   9.407  69.039  1.00  0.00    -0.160 A  
HETATM   15  C   UNL     1      -9.562   8.194  69.719  1.00  0.00    -0.171 A  
HETATM   16  C   UNL     1      -8.663   7.178  69.407  1.00  0.00    -0.134 A  
HETATM   17  C   UNL     1      -7.710   7.369  68.400  1.00  0.00    -0.120 A  
HETATM   18  C   UNL     1      -7.607   8.600  67.726  1.00  0.00    -0.098 A  
HETATM   19  C   UNL     1      -6.593   8.806  66.625  1.00  0.00    -0.064 C  
HETATM   20  C   UNL     1      -5.443   7.807  66.692  1.00  0.00    -0.028 C  
HETATM   21  C   UNL     1      -5.967   6.386  66.804  1.00  0.00    -0.025 C  
HETATM   22  C   UNL     1      -6.821   6.235  68.040  1.00  0.00    -0.070 C  
HETATM   23  O   UNL     1      -6.838   5.195  68.690  1.00  0.00    -0.049 OA 
ENDBRANCH  12  13
ENDBRANCH  11  12
ENDBRANCH   8  11
ENDBRANCH   7   8
ENDBRANCH   5   7
TORSDOF 5
ENDMDL
MODEL      295
REMARK 921   NORMALIZED FREE ENERGY PREDICTED BY IDOCK:   -2.44 KCAL/MOL
REMARK 922        TOTAL FREE ENERGY PREDICTED BY IDOCK:   -3.88 KCAL/MOL
REMARK 923 INTER-LIGAND FREE ENERGY PREDICTED BY IDOCK:   -2.75 KCAL/MOL
REMARK 924 INTRA-LIGAND FREE ENERGY PREDICTED BY IDOCK:   -1.14 KCAL/MOL
REMARK 927      BINDING AFFINITY PREDICTED BY RF-SCORE:    0.00 PKD
ROOT
HETATM    1  C   UNL     1      -8.349   6.127  69.646  1.00  0.00    -0.124 C  
HETATM    2  C   UNL     1      -7.841   4.733  70.056  1.00  0.00    -0.065 C  
HETATM    3  C   UNL     1      -6.311   4.820  70.241  1.00  0.00    -0.026 C  
HETATM    4  C   UNL     1      -8.134   3.711  68.948  1.00  0.00    -0.070 C  
HETATM    5  N   UNL     1      -8.404   4.306  71.355  1.00  0.00    -0.089 NA 
HETATM    6  H   UNL     1      -8.088   4.930  72.097  1.00  0.00     0.000 HD 
ENDROOT
BRANCH   5   7
HETATM    7  C   UNL     1      -9.868   4.178  71.390  1.00  0.00    -0.184 C  
BRANCH   7   8
HETATM    8  C   UNL     1     -10.466   4.015  72.803  1.00  0.00    -0.159 C  
HETATM    9  O   UNL     1     -11.855   4.376  72.746  1.00  0.00     0.167 OA 
HETATM   10  H   UNL     1     -12.223   4.276  73.616  1.00  0.00     0.000 HD 
BRANCH   8  11
HETATM   11  C   UNL     1      -9.762   4.902  73.833  1.00  0.00    -0.138 C  
BRANCH  11  12
HETATM   12  O   UNL     1     -10.443   6.165  73.899  1.00  0.00    -0.264 OA 
BRANCH  12  13
HETATM   13  C   UNL     1      -9.827   7.169  73.190  1.00  0.00    -0.211 A  
HETATM   14  C   UNL     1      -8.446   7.401  73.249  1.00  0.00    -0.173 A  
HETATM   15  C   UNL     1      -7.877   8.468  72.559  1.00  0.00    -0.095 A  
HETATM   16  C   UNL     1      -8.683   9.285  71.771  1.00  0.00     0.396 A  
HETATM   17  C   UNL     1     -10.052   9.021  71.658  1.00  0.00    -0.405 A  
HETATM   18  C   UNL     1     -10.647   7.965  72.373  1.00  0.00    -0.359 A  
HETATM   19  C   UNL     1     -12.121   7.664  72.240  1.00  0.00    -0.297 C  
HETATM   20  C   UNL     1     -12.918   8.852  71.715  1.00  0.00    -0.418 C  
HETATM   21  C   UNL     1     -12.279   9.421  70.461  1.00  0.00    -0.045 C  
HETATM   22  C   UNL     1     -10.865   9.866  70.745  1.00  0.00    -0.317 C  
HETATM   23  O   UNL     1     -10.374  10.848  70.197  1.00  0.00     0.129 OA 
ENDBRANCH  12  13
ENDBRANCH  11  12
ENDBRANCH   8  11
ENDBRANCH   7   8
ENDBRANCH   5   7
TORSDOF 5
ENDMDL
MODEL      296
REMARK 921   NORMALIZED FREE ENERGY PREDICTED BY IDOCK:   -2.40 KCAL/MOL
REMARK 922        TOTAL FREE ENERGY PREDICTED BY IDOCK:   -3.83 KCAL/MOL
REMARK 923 INTER-LIGAND FREE ENERGY PREDICTED BY IDOCK:   -3.61 KCAL/MOL
REMARK 924 INTRA-LIGAND FREE ENERGY PREDICTED BY IDOCK:   -0.22 KCAL/MOL
REMARK 927      BINDING AFFINITY PREDICTED BY RF-SCORE:    0.00 PKD
ROOT
HETATM    1  C   UNL     1      -9.860  13.917  65.948  1.00  0.00    -0.287 C  
HETATM    2  C   UNL     1     -10.593  12.780  65.214  1.00  0.00    -0.290 C  
HETATM    3  C   UNL     1     -11.499  13.414  64.138  1.00  0.00    -0.421 C  
HETATM    4  C   UNL     1     -11.484  12.000  66.193  1.00  0.00    -0.401 C  
HETATM    5  N   UNL     1      -9.650  11.888  64.505  1.00  0.00    -0.445 NA 
HETATM    6  H   UNL     1      -9.162  12.404  63.773  1.00  0.00     0.000 HD 
ENDROOT
BRANCH   5   7
HETATM    7  C   UNL     1      -8.680  11.193  65.365  1.00  0.00    -0.057 C  
BRANCH   7   8
HETATM    8  C   UNL     1      -8.748   9.653  65.297  1.00  0.00    -0.160 C  
HETATM    9  O   UNL     1      -9.797   9.291  64.386  1.00  0.00    -0.229 OA 
HETATM   10  H   UNL     1      -9.839   8.343  64.345  1.00  0.00     0.000 HD 
BRANCH   8  11
HETATM   11  C   UNL     1      -9.039   9.028  66.665  1.00  0.00    -0.160 C  
BRANCH  11  12
HETATM   12  O   UNL     1      -9.156  10.078  67.638  1.00  0.00    -0.134 OA 
BRANCH  12  13
HETATM   13  C   UNL     1      -8.124  10.116  68.545  1.00  0.00    -0.106 A  
HETATM   14  C   UNL     1      -7.555   8.959  69.094  1.00  0.00    -0.080 A  
HETATM   15  C   UNL     1      -6.551   9.052  70.055  1.00  0.00    -0.043 A  
HETATM   16  C   UNL     1      -6.083  10.304  70.442  1.00  0.00    -0.110 A  
HETATM   17  C   UNL     1      -6.603  11.461  69.851  1.00  0.00    -0.081 A  
HETATM   18  C   UNL     1      -7.639  11.385  68.901  1.00  0.00    -0.114 A  
HETATM   19  C   UNL     1      -8.191  12.630  68.246  1.00  0.00    -0.164 C  
HETATM   20  C   UNL     1      -7.904  13.893  69.050  1.00  0.00     0.062 C  
HETATM   21  C   UNL     1      -6.433  13.978  69.417  1.00  0.00    -0.118 C  
HETATM   22  C   UNL     1      -6.022  12.775  70.230  1.00  0.00    -0.127 C  
HETATM   23  O   UNL     1      -5.190  12.856  71.129  1.00  0.00    -0.149 OA 
ENDBRANCH  12  13
ENDBRANCH  11  12
ENDBRANCH   8  11
ENDBRANCH   7   8
ENDBRANCH   5   7
TORSDOF 5
ENDMDL
MODEL      297
REMARK 921   NORMALIZED FREE ENERGY PREDICTED BY IDOCK:   -2.40 KCAL/MOL
REMARK 922        TOTAL FREE ENERGY PREDICTED BY IDOCK:   -3.83 KCAL/MOL
REMARK 923 INTER-LIGAND FREE ENERGY PREDICTED BY IDOCK:   -5.26 KCAL/MOL
REMARK 924 INTRA-LIGAND FREE ENERGY PREDICTED BY IDOCK:    1.43 KCAL/MOL
REMARK 927      BINDING AFFINITY PREDICTED BY RF-SCORE:    0.00 PKD
ROOT
HETATM    1  C   UNL     1      -7.822   9.050  70.958  1.00  0.00    -0.174 C  
HETATM    2  C   UNL     1      -6.663   9.587  70.100  1.00  0.00    -0.078 C  
HETATM    3  C   UNL     1      -5.345   9.027  70.675  1.00  0.00    -0.027 C  
HETATM    4  C   UNL     1      -6.607  11.120  70.176  1.00  0.00    -0.048 C  
HETATM    5  N   UNL     1      -6.753   9.113  68.701  1.00  0.00    -0.057 NA 
HETATM    6  H   UNL     1      -6.658   8.098  68.667  1.00  0.00     0.000 HD 
ENDROOT
BRANCH   5   7
HETATM    7  C   UNL     1      -7.961   9.533  67.975  1.00  0.00    -0.091 C  
BRANCH   7   8
HETATM    8  C   UNL     1      -9.081  10.107  68.868  1.00  0.00    -0.165 C  
HETATM    9  O   UNL     1     -10.223   9.244  68.762  1.00  0.00    -0.193 OA 
HETATM   10  H   UNL     1     -10.913   9.598  69.312  1.00  0.00     0.000 HD 
BRANCH   8  11
HETATM   11  C   UNL     1      -9.485  11.523  68.445  1.00  0.00    -0.195 C  
BRANCH  11  12
HETATM   12  O   UNL     1      -8.772  11.870  67.248  1.00  0.00    -0.158 OA 
BRANCH  12  13
HETATM   13  C   UNL     1      -9.564  12.414  66.265  1.00  0.00    -0.241 A  
HETATM   14  C   UNL     1     -10.225  11.635  65.306  1.00  0.00    -0.316 A  
HETATM   15  C   UNL     1     -10.968  12.237  64.294  1.00  0.00    -0.392 A  
HETATM   16  C   UNL     1     -11.089  13.624  64.261  1.00  0.00    -0.332 A  
HETATM   17  C   UNL     1     -10.484  14.404  65.253  1.00  0.00    -0.410 A  
HETATM   18  C   UNL     1      -9.704  13.812  66.264  1.00  0.00    -0.297 A  
HETATM   19  C   UNL     1      -9.065  14.648  67.348  1.00  0.00    -0.203 C  
HETATM   20  C   UNL     1      -8.923  16.113  66.952  1.00  0.00    -0.248 C  
HETATM   21  C   UNL     1     -10.238  16.663  66.431  1.00  0.00    -0.322 C  
HETATM   22  C   UNL     1     -10.701  15.873  65.231  1.00  0.00    -0.424 C  
HETATM   23  O   UNL     1     -11.296  16.405  64.298  1.00  0.00    -0.892 OA 
ENDBRANCH  12  13
ENDBRANCH  11  12
ENDBRANCH   8  11
ENDBRANCH   7   8
ENDBRANCH   5   7
TORSDOF 5
ENDMDL
MODEL      298
REMARK 921   NORMALIZED FREE ENERGY PREDICTED BY IDOCK:   -2.34 KCAL/MOL
REMARK 922        TOTAL FREE ENERGY PREDICTED BY IDOCK:   -3.76 KCAL/MOL
REMARK 923 INTER-LIGAND FREE ENERGY PREDICTED BY IDOCK:   -3.23 KCAL/MOL
REMARK 924 INTRA-LIGAND FREE ENERGY PREDICTED BY IDOCK:   -0.52 KCAL/MOL
REMARK 927      BINDING AFFINITY PREDICTED BY RF-SCORE:    0.00 PKD
ROOT
HETATM    1  C   UNL     1     -10.403   4.004  64.864  1.00  0.00    -0.197 C  
HETATM    2  C   UNL     1      -9.222   3.175  64.329  1.00  0.00    -0.131 C  
HETATM    3  C   UNL     1      -9.265   3.225  62.787  1.00  0.00    -0.091 C  
HETATM    4  C   UNL     1      -9.357   1.709  64.767  1.00  0.00    -0.102 C  
HETATM    5  N   UNL     1      -7.922   3.749  64.737  1.00  0.00    -0.089 NA 
HETATM    6  H   UNL     1      -7.802   4.675  64.326  1.00  0.00     0.000 HD 
ENDROOT
BRANCH   5   7
HETATM    7  C   UNL     1      -7.691   3.806  66.189  1.00  0.00    -0.089 C  
BRANCH   7   8
HETATM    8  C   UNL     1      -6.727   4.921  66.644  1.00  0.00    -0.051 C  
HETATM    9  O   UNL     1      -6.190   4.553  67.924  1.00  0.00    -0.033 OA 
HETATM   10  H   UNL     1      -5.597   5.240  68.204  1.00  0.00     0.000 HD 
BRANCH   8  11
HETATM   11  C   UNL     1      -7.431   6.276  66.769  1.00  0.00    -0.087 C  
BRANCH  11  12
HETATM   12  O   UNL     1      -7.493   6.639  68.157  1.00  0.00    -0.091 OA 
BRANCH  12  13
HETATM   13  C   UNL     1      -8.741   6.500  68.715  1.00  0.00    -0.123 A  
HETATM   14  C   UNL     1      -9.849   6.039  67.990  1.00  0.00    -0.137 A  
HETATM   15  C   UNL     1     -11.106   5.973  68.584  1.00  0.00    -0.293 A  
HETATM   16  C   UNL     1     -11.254   6.328  69.921  1.00  0.00    -0.498 A  
HETATM   17  C   UNL     1     -10.141   6.728  70.669  1.00  0.00    -0.204 A  
HETATM   18  C   UNL     1      -8.870   6.830  70.074  1.00  0.00    -0.142 A  
HETATM   19  C   UNL     1      -7.661   7.243  70.881  1.00  0.00    -0.084 C  
HETATM   20  C   UNL     1      -8.034   7.989  72.157  1.00  0.00    -0.154 C  
HETATM   21  C   UNL     1      -9.080   7.223  72.945  1.00  0.00    -0.176 C  
HETATM   22  C   UNL     1     -10.324   7.022  72.113  1.00  0.00    -0.191 C  
HETATM   23  O   UNL     1     -11.445   7.032  72.613  1.00  0.00    -0.267 OA 
ENDBRANCH  12  13
ENDBRANCH  11  12
ENDBRANCH   8  11
ENDBRANCH   7   8
ENDBRANCH   5   7
TORSDOF 5
ENDMDL
MODEL      299
REMARK 921   NORMALIZED FREE ENERGY PREDICTED BY IDOCK:   -2.25 KCAL/MOL
REMARK 922        TOTAL FREE ENERGY PREDICTED BY IDOCK:   -3.64 KCAL/MOL
REMARK 923 INTER-LIGAND FREE ENERGY PREDICTED BY IDOCK:   -3.16 KCAL/MOL
REMARK 924 INTRA-LIGAND FREE ENERGY PREDICTED BY IDOCK:   -0.48 KCAL/MOL
REMARK 927      BINDING AFFINITY PREDICTED BY RF-SCORE:    0.00 PKD
ROOT
HETATM    1  C   UNL     1      -9.824   3.981  64.817  1.00  0.00    -0.201 C  
HETATM    2  C   UNL     1      -8.791   2.935  64.360  1.00  0.00    -0.107 C  
HETATM    3  C   UNL     1      -8.222   3.392  62.999  1.00  0.00    -0.077 C  
HETATM    4  C   UNL     1      -9.464   1.569  64.165  1.00  0.00    -0.127 C  
HETATM    5  N   UNL     1      -7.646   2.853  65.293  1.00  0.00    -0.076 NA 
HETATM    6  H   UNL     1      -7.139   3.737  65.306  1.00  0.00     0.000 HD 
ENDROOT
BRANCH   5   7
HETATM    7  C   UNL     1      -7.986   2.444  66.664  1.00  0.00    -0.080 C  
BRANCH   7   8
HETATM    8  C   UNL     1      -6.930   2.814  67.727  1.00  0.00    -0.049 C  
HETATM    9  O   UNL     1      -7.117   1.954  68.861  1.00  0.00    -0.039 OA 
HETATM   10  H   UNL     1      -6.467   2.182  69.515  1.00  0.00     0.000 HD 
BRANCH   8  11
HETATM   11  C   UNL     1      -7.055   4.271  68.179  1.00  0.00    -0.059 C  
BRANCH  11  12
HETATM   12  O   UNL     1      -7.683   4.303  69.471  1.00  0.00    -0.054 OA 
BRANCH  12  13
HETATM   13  C   UNL     1      -8.465   5.413  69.684  1.00  0.00    -0.100 A  
HETATM   14  C   UNL     1      -8.382   6.563  68.886  1.00  0.00    -0.122 A  
HETATM   15  C   UNL     1      -9.153   7.685  69.180  1.00  0.00    -0.141 A  
HETATM   16  C   UNL     1     -10.043   7.647  70.249  1.00  0.00    -0.198 A  
HETATM   17  C   UNL     1     -10.177   6.480  71.010  1.00  0.00    -0.218 A  
HETATM   18  C   UNL     1      -9.382   5.349  70.745  1.00  0.00    -0.200 A  
HETATM   19  C   UNL     1      -9.536   4.081  71.552  1.00  0.00    -0.237 C  
HETATM   20  C   UNL     1     -10.201   4.321  72.902  1.00  0.00    -0.227 C  
HETATM   21  C   UNL     1     -11.481   5.119  72.741  1.00  0.00    -0.284 C  
HETATM   22  C   UNL     1     -11.194   6.452  72.092  1.00  0.00    -0.279 C  
HETATM   23  O   UNL     1     -11.818   7.465  72.392  1.00  0.00    -0.284 OA 
ENDBRANCH  12  13
ENDBRANCH  11  12
ENDBRANCH   8  11
ENDBRANCH   7   8
ENDBRANCH   5   7
TORSDOF 5
ENDMDL
MODEL      300
REMARK 921   NORMALIZED FREE ENERGY PREDICTED BY IDOCK:   -2.24 KCAL/MOL
REMARK 922        TOTAL FREE ENERGY PREDICTED BY IDOCK:   -3.63 KCAL/MOL
REMARK 923 INTER-LIGAND FREE ENERGY PREDICTED BY IDOCK:   -2.82 KCAL/MOL
REMARK 924 INTRA-LIGAND FREE ENERGY PREDICTED BY IDOCK:   -0.81 KCAL/MOL
REMARK 927      BINDING AFFINITY PREDICTED BY RF-SCORE:    0.00 PKD
ROOT
HETATM    1  C   UNL     1      -7.614  12.206  68.897  1.00  0.00     0.003 C  
HETATM    2  C   UNL     1      -7.069  10.793  69.169  1.00  0.00    -0.101 C  
HETATM    3  C   UNL     1      -6.049  10.891  70.323  1.00  0.00    -0.142 C  
HETATM    4  C   UNL     1      -6.341  10.253  67.929  1.00  0.00    -0.060 C  
HETATM    5  N   UNL     1      -8.135   9.872  69.621  1.00  0.00    -0.149 NA 
HETATM    6  H   UNL     1      -8.514  10.185  70.514  1.00  0.00     0.000 HD 
ENDROOT
BRANCH   5   7
HETATM    7  C   UNL     1      -9.224   9.656  68.656  1.00  0.00    -0.136 C  
BRANCH   7   8
HETATM    8  C   UNL     1     -10.639   9.657  69.272  1.00  0.00    -0.219 C  
HETATM    9  O   UNL     1     -11.133  11.005  69.253  1.00  0.00    -0.218 OA 
HETATM   10  H   UNL     1     -12.004  11.005  69.633  1.00  0.00     0.000 HD 
BRANCH   8  11
HETATM   11  C   UNL     1     -10.639   9.146  70.716  1.00  0.00    -0.260 C  
BRANCH  11  12
HETATM   12  O   UNL     1     -10.479   7.718  70.702  1.00  0.00    -0.209 OA 
BRANCH  12  13
HETATM   13  C   UNL     1      -9.634   7.242  71.675  1.00  0.00    -0.151 A  
HETATM   14  C   UNL     1      -9.628   7.742  72.985  1.00  0.00    -0.320 A  
HETATM   15  C   UNL     1      -8.712   7.267  73.920  1.00  0.00    -0.230 A  
HETATM   16  C   UNL     1      -7.823   6.258  73.560  1.00  0.00    -0.097 A  
HETATM   17  C   UNL     1      -7.866   5.710  72.273  1.00  0.00    -0.103 A  
HETATM   18  C   UNL     1      -8.765   6.201  71.308  1.00  0.00    -0.132 A  
HETATM   19  C   UNL     1      -8.829   5.600  69.923  1.00  0.00    -0.135 C  
HETATM   20  C   UNL     1      -7.560   4.842  69.553  1.00  0.00    -0.059 C  
HETATM   21  C   UNL     1      -7.180   3.858  70.645  1.00  0.00    -0.037 C  
HETATM   22  C   UNL     1      -6.956   4.581  71.951  1.00  0.00    -0.054 C  
HETATM   23  O   UNL     1      -6.103   4.216  72.754  1.00  0.00    -0.014 OA 
ENDBRANCH  12  13
ENDBRANCH  11  12
ENDBRANCH   8  11
ENDBRANCH   7   8
ENDBRANCH   5   7
TORSDOF 5
ENDMDL
MODEL      301
REMARK 921   NORMALIZED FREE ENERGY PREDICTED BY IDOCK:   -2.21 KCAL/MOL
REMARK 922        TOTAL FREE ENERGY PREDICTED BY IDOCK:   -3.59 KCAL/MOL
REMARK 923 INTER-LIGAND FREE ENERGY PREDICTED BY IDOCK:   -3.70 KCAL/MOL
REMARK 924 INTRA-LIGAND FREE ENERGY PREDICTED BY IDOCK:    0.11 KCAL/MOL
REMARK 927      BINDING AFFINITY PREDICTED BY RF-SCORE:    0.00 PKD
ROOT
HETATM    1  C   UNL     1     -10.059  15.213  68.135  1.00  0.00    -0.222 C  
HETATM    2  C   UNL     1     -10.276  13.980  67.239  1.00  0.00    -0.260 C  
HETATM    3  C   UNL     1     -10.886  14.462  65.906  1.00  0.00    -0.304 C  
HETATM    4  C   UNL     1     -11.267  13.009  67.898  1.00  0.00    -0.304 C  
HETATM    5  N   UNL     1      -8.998  13.314  66.907  1.00  0.00    -0.294 NA 
HETATM    6  H   UNL     1      -8.408  13.939  66.357  1.00  0.00     0.000 HD 
ENDROOT
BRANCH   5   7
HETATM    7  C   UNL     1      -8.247  12.792  68.058  1.00  0.00    -0.168 C  
BRANCH   7   8
HETATM    8  C   UNL     1      -8.338  11.264  68.248  1.00  0.00    -0.150 C  
HETATM    9  O   UNL     1      -8.556  10.998  69.642  1.00  0.00    -0.345 OA 
HETATM   10  H   UNL     1      -8.612  10.057  69.758  1.00  0.00     0.000 HD 
BRANCH   8  11
HETATM   11  C   UNL     1      -7.061  10.550  67.798  1.00  0.00    -0.083 C  
BRANCH  11  12
HETATM   12  O   UNL     1      -7.366   9.725  66.663  1.00  0.00    -0.092 OA 
BRANCH  12  13
HETATM   13  C   UNL     1      -8.393   8.837  66.878  1.00  0.00    -0.108 A  
HETATM   14  C   UNL     1      -9.715   9.098  66.494  1.00  0.00    -0.306 A  
HETATM   15  C   UNL     1     -10.730   8.192  66.789  1.00  0.00    -0.070 A  
HETATM   16  C   UNL     1     -10.420   6.998  67.433  1.00  0.00    -0.343 A  
HETATM   17  C   UNL     1      -9.093   6.702  67.763  1.00  0.00    -0.113 A  
HETATM   18  C   UNL     1      -8.060   7.621  67.499  1.00  0.00    -0.120 A  
HETATM   19  C   UNL     1      -6.623   7.299  67.836  1.00  0.00    -0.050 C  
HETATM   20  C   UNL     1      -6.498   6.201  68.885  1.00  0.00    -0.046 C  
HETATM   21  C   UNL     1      -7.338   4.994  68.509  1.00  0.00    -0.063 C  
HETATM   22  C   UNL     1      -8.791   5.384  68.377  1.00  0.00    -0.100 C  
HETATM   23  O   UNL     1      -9.696   4.621  68.700  1.00  0.00    -0.155 OA 
ENDBRANCH  12  13
ENDBRANCH  11  12
ENDBRANCH   8  11
ENDBRANCH   7   8
ENDBRANCH   5   7
TORSDOF 5
ENDMDL
MODEL      302
REMARK 921   NORMALIZED FREE ENERGY PREDICTED BY IDOCK:   -2.12 KCAL/MOL
REMARK 922        TOTAL FREE ENERGY PREDICTED BY IDOCK:   -3.47 KCAL/MOL
REMARK 923 INTER-LIGAND FREE ENERGY PREDICTED BY IDOCK:   -3.31 KCAL/MOL
REMARK 924 INTRA-LIGAND FREE ENERGY PREDICTED BY IDOCK:   -0.17 KCAL/MOL
REMARK 927      BINDING AFFINITY PREDICTED BY RF-SCORE:    0.00 PKD
ROOT
HETATM    1  C   UNL     1     -10.355   7.159  67.330  1.00  0.00    -0.342 C  
HETATM    2  C   UNL     1      -9.573   6.079  66.562  1.00  0.00    -0.154 C  
HETATM    3  C   UNL     1      -8.630   6.790  65.569  1.00  0.00    -0.095 C  
HETATM    4  C   UNL     1     -10.536   5.192  65.758  1.00  0.00    -0.088 C  
HETATM    5  N   UNL     1      -8.717   5.278  67.464  1.00  0.00    -0.107 NA 
HETATM    6  H   UNL     1      -8.002   5.870  67.887  1.00  0.00     0.000 HD 
ENDROOT
BRANCH   5   7
HETATM    7  C   UNL     1      -9.435   4.528  68.504  1.00  0.00    -0.152 C  
BRANCH   7   8
HETATM    8  C   UNL     1      -8.588   3.459  69.227  1.00  0.00    -0.070 C  
HETATM    9  O   UNL     1      -9.445   2.747  70.133  1.00  0.00    -0.147 OA 
HETATM   10  H   UNL     1      -8.924   2.089  70.578  1.00  0.00     0.000 HD 
BRANCH   8  11
HETATM   11  C   UNL     1      -7.431   4.077  70.017  1.00  0.00    -0.045 C  
BRANCH  11  12
HETATM   12  O   UNL     1      -7.887   4.379  71.345  1.00  0.00    -0.077 OA 
BRANCH  12  13
HETATM   13  C   UNL     1      -8.209   5.701  71.538  1.00  0.00    -0.119 A  
HETATM   14  C   UNL     1      -7.258   6.730  71.474  1.00  0.00    -0.081 A  
HETATM   15  C   UNL     1      -7.623   8.048  71.736  1.00  0.00    -0.095 A  
HETATM   16  C   UNL     1      -8.952   8.350  72.022  1.00  0.00    -0.290 A  
HETATM   17  C   UNL     1      -9.917   7.336  72.025  1.00  0.00    -0.184 A  
HETATM   18  C   UNL     1      -9.558   5.996  71.794  1.00  0.00    -0.168 A  
HETATM   19  C   UNL     1     -10.599   4.900  71.777  1.00  0.00    -0.164 C  
HETATM   20  C   UNL     1     -11.878   5.295  72.507  1.00  0.00    -0.047 C  
HETATM   21  C   UNL     1     -12.381   6.644  72.026  1.00  0.00    -0.316 C  
HETATM   22  C   UNL     1     -11.336   7.709  72.257  1.00  0.00    -0.306 C  
HETATM   23  O   UNL     1     -11.641   8.859  72.558  1.00  0.00    -0.258 OA 
ENDBRANCH  12  13
ENDBRANCH  11  12
ENDBRANCH   8  11
ENDBRANCH   7   8
ENDBRANCH   5   7
TORSDOF 5
ENDMDL
MODEL      303
REMARK 921   NORMALIZED FREE ENERGY PREDICTED BY IDOCK:   -2.12 KCAL/MOL
REMARK 922        TOTAL FREE ENERGY PREDICTED BY IDOCK:   -3.47 KCAL/MOL
REMARK 923 INTER-LIGAND FREE ENERGY PREDICTED BY IDOCK:   -3.29 KCAL/MOL
REMARK 924 INTRA-LIGAND FREE ENERGY PREDICTED BY IDOCK:   -0.18 KCAL/MOL
REMARK 927      BINDING AFFINITY PREDICTED BY RF-SCORE:    0.00 PKD
ROOT
HETATM    1  C   UNL     1      -5.852  18.904  67.581  1.00  0.00    -0.187 C  
HETATM    2  C   UNL     1      -6.834  18.790  68.760  1.00  0.00    -0.285 C  
HETATM    3  C   UNL     1      -7.353  20.207  69.085  1.00  0.00    -0.033 C  
HETATM    4  C   UNL     1      -6.116  18.244  70.002  1.00  0.00    -0.117 C  
HETATM    5  N   UNL     1      -8.017  17.974  68.409  1.00  0.00    -0.292 NA 
HETATM    6  H   UNL     1      -8.548  18.426  67.666  1.00  0.00     0.000 HD 
ENDROOT
BRANCH   5   7
HETATM    7  C   UNL     1      -7.728  16.578  68.048  1.00  0.00    -0.159 C  
BRANCH   7   8
HETATM    8  C   UNL     1      -7.702  15.597  69.239  1.00  0.00    -0.223 C  
HETATM    9  O   UNL     1      -8.017  14.286  68.745  1.00  0.00    -0.139 OA 
HETATM   10  H   UNL     1      -8.001  13.682  69.479  1.00  0.00     0.000 HD 
BRANCH   8  11
HETATM   11  C   UNL     1      -8.714  15.979  70.322  1.00  0.00     1.391 C  
BRANCH  11  12
HETATM   12  O   UNL     1     -10.040  15.820  69.793  1.00  0.00    -0.275 OA 
BRANCH  12  13
HETATM   13  C   UNL     1     -10.960  15.382  70.716  1.00  0.00    -0.311 A  
HETATM   14  C   UNL     1     -11.448  16.198  71.746  1.00  0.00    -0.386 A  
HETATM   15  C   UNL     1     -12.334  15.689  72.692  1.00  0.00    -0.526 A  
HETATM   16  C   UNL     1     -12.770  14.371  72.588  1.00  0.00    -0.421 A  
HETATM   17  C   UNL     1     -12.335  13.570  71.525  1.00  0.00    -0.186 A  
HETATM   18  C   UNL     1     -11.416  14.060  70.580  1.00  0.00    -0.059 A  
HETATM   19  C   UNL     1     -10.958  13.206  69.420  1.00  0.00    -0.056 C  
HETATM   20  C   UNL     1     -11.165  11.717  69.671  1.00  0.00    -0.249 C  
HETATM   21  C   UNL     1     -12.583  11.438  70.132  1.00  0.00    -0.174 C  
HETATM   22  C   UNL     1     -12.883  12.195  71.403  1.00  0.00    -0.276 C  
HETATM   23  O   UNL     1     -13.606  11.729  72.278  1.00  0.00    -0.328 OA 
ENDBRANCH  12  13
ENDBRANCH  11  12
ENDBRANCH   8  11
ENDBRANCH   7   8
ENDBRANCH   5   7
TORSDOF 5
ENDMDL
MODEL      304
REMARK 921   NORMALIZED FREE ENERGY PREDICTED BY IDOCK:   -2.07 KCAL/MOL
REMARK 922        TOTAL FREE ENERGY PREDICTED BY IDOCK:   -3.41 KCAL/MOL
REMARK 923 INTER-LIGAND FREE ENERGY PREDICTED BY IDOCK:   -3.02 KCAL/MOL
REMARK 924 INTRA-LIGAND FREE ENERGY PREDICTED BY IDOCK:   -0.40 KCAL/MOL
REMARK 927      BINDING AFFINITY PREDICTED BY RF-SCORE:    0.00 PKD
ROOT
HETATM    1  C   UNL     1     -11.766  14.412  66.611  1.00  0.00    -0.410 C  
HETATM    2  C   UNL     1     -11.599  12.894  66.420  1.00  0.00    -0.371 C  
HETATM    3  C   UNL     1     -12.447  12.472  65.202  1.00  0.00    -0.451 C  
HETATM    4  C   UNL     1     -12.119  12.140  67.653  1.00  0.00     0.017 C  
HETATM    5  N   UNL     1     -10.199  12.533  66.109  1.00  0.00    -0.247 NA 
HETATM    6  H   UNL     1      -9.919  12.943  65.218  1.00  0.00     0.000 HD 
ENDROOT
BRANCH   5   7
HETATM    7  C   UNL     1      -9.219  12.872  67.152  1.00  0.00    -0.225 C  
BRANCH   7   8
HETATM    8  C   UNL     1      -8.224  11.743  67.493  1.00  0.00    -0.152 C  
HETATM    9  O   UNL     1      -8.418  11.375  68.867  1.00  0.00    -0.302 OA 
HETATM   10  H   UNL     1      -7.805  10.680  69.076  1.00  0.00     0.000 HD 
BRANCH   8  11
HETATM   11  C   UNL     1      -6.769  12.178  67.293  1.00  0.00    -0.144 C  
BRANCH  11  12
HETATM   12  O   UNL     1      -6.270  11.585  66.084  1.00  0.00    -0.029 OA 
BRANCH  12  13
HETATM   13  C   UNL     1      -6.130  10.220  66.149  1.00  0.00    -0.087 A  
HETATM   14  C   UNL     1      -5.775   9.549  67.328  1.00  0.00    -0.040 A  
HETATM   15  C   UNL     1      -5.587   8.170  67.328  1.00  0.00    -0.038 A  
HETATM   16  C   UNL     1      -5.794   7.447  66.156  1.00  0.00    -0.036 A  
HETATM   17  C   UNL     1      -6.209   8.103  64.992  1.00  0.00    -0.048 A  
HETATM   18  C   UNL     1      -6.374   9.500  64.968  1.00  0.00    -0.083 A  
HETATM   19  C   UNL     1      -6.841  10.210  63.718  1.00  0.00    -0.109 C  
HETATM   20  C   UNL     1      -6.613   9.388  62.456  1.00  0.00    -0.096 C  
HETATM   21  C   UNL     1      -7.162   7.982  62.619  1.00  0.00    -0.093 C  
HETATM   22  C   UNL     1      -6.497   7.288  63.783  1.00  0.00    -0.048 C  
HETATM   23  O   UNL     1      -6.260   6.084  63.768  1.00  0.00    -0.025 OA 
ENDBRANCH  12  13
ENDBRANCH  11  12
ENDBRANCH   8  11
ENDBRANCH   7   8
ENDBRANCH   5   7
TORSDOF 5
ENDMDL
MODEL      305
REMARK 921   NORMALIZED FREE ENERGY PREDICTED BY IDOCK:   -2.07 KCAL/MOL
REMARK 922        TOTAL FREE ENERGY PREDICTED BY IDOCK:   -3.41 KCAL/MOL
REMARK 923 INTER-LIGAND FREE ENERGY PREDICTED BY IDOCK:   -3.71 KCAL/MOL
REMARK 924 INTRA-LIGAND FREE ENERGY PREDICTED BY IDOCK:    0.30 KCAL/MOL
REMARK 927      BINDING AFFINITY PREDICTED BY RF-SCORE:    0.00 PKD
ROOT
HETATM    1  C   UNL     1     -11.818  12.665  67.437  1.00  0.00    -0.393 C  
HETATM    2  C   UNL     1     -11.395  12.398  68.893  1.00  0.00    -0.294 C  
HETATM    3  C   UNL     1     -12.188  11.175  69.402  1.00  0.00    -0.329 C  
HETATM    4  C   UNL     1     -11.746  13.601  69.780  1.00  0.00    -0.364 C  
HETATM    5  N   UNL     1      -9.962  12.047  68.990  1.00  0.00    -0.415 NA 
HETATM    6  H   UNL     1      -9.780  11.172  68.498  1.00  0.00     0.000 HD 
ENDROOT
BRANCH   5   7
HETATM    7  C   UNL     1      -9.031  13.088  68.532  1.00  0.00    -0.048 C  
BRANCH   7   8
HETATM    8  C   UNL     1      -8.346  12.791  67.182  1.00  0.00    -0.164 C  
HETATM    9  O   UNL     1      -8.813  13.751  66.222  1.00  0.00    -0.458 OA 
HETATM   10  H   UNL     1      -8.391  13.567  65.391  1.00  0.00     0.000 HD 
BRANCH   8  11
HETATM   11  C   UNL     1      -8.663  11.382  66.673  1.00  0.00    -0.178 C  
BRANCH  11  12
HETATM   12  O   UNL     1      -7.532  10.889  65.938  1.00  0.00    -0.130 OA 
BRANCH  12  13
HETATM   13  C   UNL     1      -7.468   9.518  65.863  1.00  0.00    -0.100 A  
HETATM   14  C   UNL     1      -7.455   8.825  64.645  1.00  0.00    -0.104 A  
HETATM   15  C   UNL     1      -7.451   7.433  64.623  1.00  0.00    -0.093 A  
HETATM   16  C   UNL     1      -7.416   6.726  65.822  1.00  0.00    -0.085 A  
HETATM   17  C   UNL     1      -7.365   7.413  67.040  1.00  0.00    -0.097 A  
HETATM   18  C   UNL     1      -7.401   8.819  67.080  1.00  0.00    -0.080 A  
HETATM   19  C   UNL     1      -7.326   9.566  68.391  1.00  0.00    -0.076 C  
HETATM   20  C   UNL     1      -7.719   8.700  69.583  1.00  0.00    -0.089 C  
HETATM   21  C   UNL     1      -6.963   7.384  69.568  1.00  0.00    -0.057 C  
HETATM   22  C   UNL     1      -7.249   6.625  68.295  1.00  0.00    -0.085 C  
HETATM   23  O   UNL     1      -7.318   5.400  68.274  1.00  0.00    -0.070 OA 
ENDBRANCH  12  13
ENDBRANCH  11  12
ENDBRANCH   8  11
ENDBRANCH   7   8
ENDBRANCH   5   7
TORSDOF 5
ENDMDL
MODEL      306
REMARK 921   NORMALIZED FREE ENERGY PREDICTED BY IDOCK:   -1.99 KCAL/MOL
REMARK 922        TOTAL FREE ENERGY PREDICTED BY IDOCK:   -3.30 KCAL/MOL
REMARK 923 INTER-LIGAND FREE ENERGY PREDICTED BY IDOCK:   -2.90 KCAL/MOL
REMARK 924 INTRA-LIGAND FREE ENERGY PREDICTED BY IDOCK:   -0.40 KCAL/MOL
REMARK 927      BINDING AFFINITY PREDICTED BY RF-SCORE:    0.00 PKD
ROOT
HETATM    1  C   UNL     1      -9.476   6.783  72.166  1.00  0.00    -0.145 C  
HETATM    2  C   UNL     1     -10.503   5.797  71.581  1.00  0.00    -0.231 C  
HETATM    3  C   UNL     1     -11.865   6.076  72.250  1.00  0.00    -0.305 C  
HETATM    4  C   UNL     1     -10.097   4.351  71.901  1.00  0.00    -0.245 C  
HETATM    5  N   UNL     1     -10.692   6.002  70.128  1.00  0.00    -0.282 NA 
HETATM    6  H   UNL     1     -11.084   6.927  69.952  1.00  0.00     0.000 HD 
ENDROOT
BRANCH   5   7
HETATM    7  C   UNL     1      -9.490   5.798  69.306  1.00  0.00    -0.129 C  
BRANCH   7   8
HETATM    8  C   UNL     1      -9.687   4.854  68.102  1.00  0.00    -0.148 C  
HETATM    9  O   UNL     1      -9.568   3.501  68.570  1.00  0.00    -0.163 OA 
HETATM   10  H   UNL     1      -9.690   2.920  67.828  1.00  0.00     0.000 HD 
BRANCH   8  11
HETATM   11  C   UNL     1      -8.646   5.094  67.005  1.00  0.00    -0.105 C  
BRANCH  11  12
HETATM   12  O   UNL     1      -9.181   6.032  66.057  1.00  0.00    -0.161 OA 
BRANCH  12  13
HETATM   13  C   UNL     1      -8.240   6.568  65.211  1.00  0.00    -0.135 A  
HETATM   14  C   UNL     1      -7.852   5.945  64.016  1.00  0.00    -0.119 A  
HETATM   15  C   UNL     1      -6.851   6.498  63.222  1.00  0.00    -0.046 A  
HETATM   16  C   UNL     1      -6.262   7.702  63.598  1.00  0.00    -0.054 A  
HETATM   17  C   UNL     1      -6.690   8.362  64.756  1.00  0.00    -0.068 A  
HETATM   18  C   UNL     1      -7.678   7.799  65.585  1.00  0.00    -0.101 A  
HETATM   19  C   UNL     1      -8.157   8.516  66.826  1.00  0.00    -0.098 C  
HETATM   20  C   UNL     1      -7.161   9.557  67.324  1.00  0.00    -0.086 C  
HETATM   21  C   UNL     1      -6.730  10.477  66.196  1.00  0.00    -0.127 C  
HETATM   22  C   UNL     1      -6.094   9.683  65.081  1.00  0.00    -0.076 C  
HETATM   23  O   UNL     1      -5.163  10.130  64.419  1.00  0.00    -0.080 OA 
ENDBRANCH  12  13
ENDBRANCH  11  12
ENDBRANCH   8  11
ENDBRANCH   7   8
ENDBRANCH   5   7
TORSDOF 5
ENDMDL
MODEL      307
REMARK 921   NORMALIZED FREE ENERGY PREDICTED BY IDOCK:   -1.97 KCAL/MOL
REMARK 922        TOTAL FREE ENERGY PREDICTED BY IDOCK:   -3.27 KCAL/MOL
REMARK 923 INTER-LIGAND FREE ENERGY PREDICTED BY IDOCK:   -3.52 KCAL/MOL
REMARK 924 INTRA-LIGAND FREE ENERGY PREDICTED BY IDOCK:    0.25 KCAL/MOL
REMARK 927      BINDING AFFINITY PREDICTED BY RF-SCORE:    0.00 PKD
ROOT
HETATM    1  C   UNL     1     -10.143  16.563  68.151  1.00  0.00    -0.255 C  
HETATM    2  C   UNL     1      -9.001  15.665  67.645  1.00  0.00    -0.180 C  
HETATM    3  C   UNL     1      -7.714  16.063  68.397  1.00  0.00    -0.147 C  
HETATM    4  C   UNL     1      -8.770  15.890  66.143  1.00  0.00    -0.328 C  
HETATM    5  N   UNL     1      -9.250  14.239  67.951  1.00  0.00    -0.187 NA 
HETATM    6  H   UNL     1      -9.271  14.095  68.960  1.00  0.00     0.000 HD 
ENDROOT
BRANCH   5   7
HETATM    7  C   UNL     1     -10.456  13.668  67.333  1.00  0.00    -0.251 C  
BRANCH   7   8
HETATM    8  C   UNL     1     -10.467  13.705  65.790  1.00  0.00    -0.293 C  
HETATM    9  O   UNL     1     -11.834  13.665  65.352  1.00  0.00    -0.327 OA 
HETATM   10  H   UNL     1     -11.841  13.688  64.402  1.00  0.00     0.000 HD 
BRANCH   8  11
HETATM   11  C   UNL     1      -9.713  12.520  65.180  1.00  0.00    -0.023 C  
BRANCH  11  12
HETATM   12  O   UNL     1     -10.132  11.315  65.840  1.00  0.00    -0.227 OA 
BRANCH  12  13
HETATM   13  C   UNL     1      -9.094  10.499  66.221  1.00  0.00    -0.164 A  
HETATM   14  C   UNL     1      -7.749  10.879  66.108  1.00  0.00    -0.133 A  
HETATM   15  C   UNL     1      -6.732   9.992  66.452  1.00  0.00    -0.088 A  
HETATM   16  C   UNL     1      -7.056   8.734  66.952  1.00  0.00    -0.078 A  
HETATM   17  C   UNL     1      -8.397   8.373  67.127  1.00  0.00    -0.122 A  
HETATM   18  C   UNL     1      -9.436   9.245  66.755  1.00  0.00    -0.228 A  
HETATM   19  C   UNL     1     -10.884   8.867  66.960  1.00  0.00    -0.039 C  
HETATM   20  C   UNL     1     -11.084   7.362  67.097  1.00  0.00    -0.049 C  
HETATM   21  C   UNL     1     -10.134   6.782  68.129  1.00  0.00    -0.182 C  
HETATM   22  C   UNL     1      -8.701   7.053  67.737  1.00  0.00    -0.121 C  
HETATM   23  O   UNL     1      -7.804   6.248  67.971  1.00  0.00    -0.101 OA 
ENDBRANCH  12  13
ENDBRANCH  11  12
ENDBRANCH   8  11
ENDBRANCH   7   8
ENDBRANCH   5   7
TORSDOF 5
ENDMDL
MODEL      308
REMARK 921   NORMALIZED FREE ENERGY PREDICTED BY IDOCK:   -1.90 KCAL/MOL
REMARK 922        TOTAL FREE ENERGY PREDICTED BY IDOCK:   -3.19 KCAL/MOL
REMARK 923 INTER-LIGAND FREE ENERGY PREDICTED BY IDOCK:   -2.45 KCAL/MOL
REMARK 924 INTRA-LIGAND FREE ENERGY PREDICTED BY IDOCK:   -0.74 KCAL/MOL
REMARK 927      BINDING AFFINITY PREDICTED BY RF-SCORE:    0.00 PKD
ROOT
HETATM    1  C   UNL     1      -9.823   3.947  64.858  1.00  0.00    -0.197 C  
HETATM    2  C   UNL     1      -8.926   2.758  64.471  1.00  0.00    -0.120 C  
HETATM    3  C   UNL     1      -8.206   3.114  63.153  1.00  0.00    -0.081 C  
HETATM    4  C   UNL     1      -9.778   1.503  64.229  1.00  0.00    -0.092 C  
HETATM    5  N   UNL     1      -7.872   2.517  65.480  1.00  0.00    -0.077 NA 
HETATM    6  H   UNL     1      -7.242   3.317  65.529  1.00  0.00     0.000 HD 
ENDROOT
BRANCH   5   7
HETATM    7  C   UNL     1      -8.361   2.174  66.824  1.00  0.00    -0.092 C  
BRANCH   7   8
HETATM    8  C   UNL     1      -7.314   2.327  67.948  1.00  0.00    -0.051 C  
HETATM    9  O   UNL     1      -7.980   2.148  69.207  1.00  0.00    -0.045 OA 
HETATM   10  H   UNL     1      -7.335   2.242  69.899  1.00  0.00     0.000 HD 
BRANCH   8  11
HETATM   11  C   UNL     1      -6.645   3.705  67.929  1.00  0.00    -0.042 C  
BRANCH  11  12
HETATM   12  O   UNL     1      -7.240   4.522  68.949  1.00  0.00    -0.052 OA 
BRANCH  12  13
HETATM   13  C   UNL     1      -7.281   5.860  68.638  1.00  0.00    -0.083 A  
HETATM   14  C   UNL     1      -6.157   6.693  68.723  1.00  0.00    -0.026 A  
HETATM   15  C   UNL     1      -6.263   8.055  68.455  1.00  0.00    -0.045 A  
HETATM   16  C   UNL     1      -7.488   8.585  68.059  1.00  0.00    -0.097 A  
HETATM   17  C   UNL     1      -8.599   7.748  67.911  1.00  0.00    -0.122 A  
HETATM   18  C   UNL     1      -8.515   6.375  68.208  1.00  0.00    -0.115 A  
HETATM   19  C   UNL     1      -9.707   5.463  68.031  1.00  0.00    -0.169 C  
HETATM   20  C   UNL     1     -11.030   6.222  68.016  1.00  0.00    -0.418 C  
HETATM   21  C   UNL     1     -10.977   7.381  67.037  1.00  0.00    -0.172 C  
HETATM   22  C   UNL     1      -9.868   8.335  67.409  1.00  0.00    -0.188 C  
HETATM   23  O   UNL     1      -9.976   9.546  67.244  1.00  0.00    -0.167 OA 
ENDBRANCH  12  13
ENDBRANCH  11  12
ENDBRANCH   8  11
ENDBRANCH   7   8
ENDBRANCH   5   7
TORSDOF 5
ENDMDL
MODEL      309
REMARK 921   NORMALIZED FREE ENERGY PREDICTED BY IDOCK:   -1.88 KCAL/MOL
REMARK 922        TOTAL FREE ENERGY PREDICTED BY IDOCK:   -3.16 KCAL/MOL
REMARK 923 INTER-LIGAND FREE ENERGY PREDICTED BY IDOCK:   -3.73 KCAL/MOL
REMARK 924 INTRA-LIGAND FREE ENERGY PREDICTED BY IDOCK:    0.57 KCAL/MOL
REMARK 927      BINDING AFFINITY PREDICTED BY RF-SCORE:    0.00 PKD
ROOT
HETATM    1  C   UNL     1      -7.703   8.465  71.042  1.00  0.00    -0.099 C  
HETATM    2  C   UNL     1      -6.267   8.424  70.488  1.00  0.00    -0.035 C  
HETATM    3  C   UNL     1      -5.316   8.083  71.654  1.00  0.00    -0.034 C  
HETATM    4  C   UNL     1      -5.871   9.799  69.930  1.00  0.00    -0.042 C  
HETATM    5  N   UNL     1      -6.102   7.356  69.478  1.00  0.00    -0.030 NA 
HETATM    6  H   UNL     1      -6.245   6.442  69.906  1.00  0.00     0.000 HD 
ENDROOT
BRANCH   5   7
HETATM    7  C   UNL     1      -6.944   7.492  68.280  1.00  0.00    -0.068 C  
BRANCH   7   8
HETATM    8  C   UNL     1      -8.440   7.187  68.508  1.00  0.00    -0.125 C  
HETATM    9  O   UNL     1      -8.891   6.339  67.440  1.00  0.00    -0.109 OA 
HETATM   10  H   UNL     1      -9.812   6.152  67.581  1.00  0.00     0.000 HD 
BRANCH   8  11
HETATM   11  C   UNL     1      -9.291   8.460  68.527  1.00  0.00    -0.139 C  
BRANCH  11  12
HETATM   12  O   UNL     1      -8.547   9.523  67.911  1.00  0.00    -0.119 OA 
BRANCH  12  13
HETATM   13  C   UNL     1      -9.197  10.119  66.856  1.00  0.00    -0.146 A  
HETATM   14  C   UNL     1      -9.292   9.525  65.590  1.00  0.00    -0.302 A  
HETATM   15  C   UNL     1      -9.909  10.196  64.538  1.00  0.00    -0.334 A  
HETATM   16  C   UNL     1     -10.472  11.450  64.758  1.00  0.00    -0.366 A  
HETATM   17  C   UNL     1     -10.437  12.021  66.035  1.00  0.00    -0.284 A  
HETATM   18  C   UNL     1      -9.790  11.369  67.101  1.00  0.00    -0.212 A  
HETATM   19  C   UNL     1      -9.765  11.972  68.486  1.00  0.00    -0.165 C  
HETATM   20  C   UNL     1     -10.024  13.475  68.477  1.00  0.00    -0.202 C  
HETATM   21  C   UNL     1     -11.268  13.804  67.672  1.00  0.00    -0.316 C  
HETATM   22  C   UNL     1     -11.119  13.323  66.249  1.00  0.00    -0.290 C  
HETATM   23  O   UNL     1     -11.597  13.943  65.304  1.00  0.00    -0.311 OA 
ENDBRANCH  12  13
ENDBRANCH  11  12
ENDBRANCH   8  11
ENDBRANCH   7   8
ENDBRANCH   5   7
TORSDOF 5
ENDMDL
MODEL      310
REMARK 921   NORMALIZED FREE ENERGY PREDICTED BY IDOCK:   -1.64 KCAL/MOL
REMARK 922        TOTAL FREE ENERGY PREDICTED BY IDOCK:   -2.85 KCAL/MOL
REMARK 923 INTER-LIGAND FREE ENERGY PREDICTED BY IDOCK:   -5.09 KCAL/MOL
REMARK 924 INTRA-LIGAND FREE ENERGY PREDICTED BY IDOCK:    2.24 KCAL/MOL
REMARK 927      BINDING AFFINITY PREDICTED BY RF-SCORE:    0.00 PKD
ROOT
HETATM    1  C   UNL     1      -6.647  16.496  67.589  1.00  0.00    -0.171 C  
HETATM    2  C   UNL     1      -6.667  15.202  68.421  1.00  0.00    -0.110 C  
HETATM    3  C   UNL     1      -5.229  14.930  68.912  1.00  0.00    -0.092 C  
HETATM    4  C   UNL     1      -7.111  14.015  67.553  1.00  0.00    -0.179 C  
HETATM    5  N   UNL     1      -7.510  15.341  69.629  1.00  0.00    -0.205 NA 
HETATM    6  H   UNL     1      -7.119  16.049  70.251  1.00  0.00     0.000 HD 
ENDROOT
BRANCH   5   7
HETATM    7  C   UNL     1      -8.930  15.623  69.371  1.00  0.00    -0.265 C  
BRANCH   7   8
HETATM    8  C   UNL     1      -9.190  16.860  68.486  1.00  0.00    -0.260 C  
HETATM    9  O   UNL     1      -9.129  18.027  69.320  1.00  0.00     0.024 OA 
HETATM   10  H   UNL     1      -9.290  18.788  68.775  1.00  0.00     0.000 HD 
BRANCH   8  11
HETATM   11  C   UNL     1     -10.561  16.803  67.806  1.00  0.00    -0.341 C  
BRANCH  11  12
HETATM   12  O   UNL     1     -11.473  16.094  68.660  1.00  0.00    -0.373 OA 
BRANCH  12  13
HETATM   13  C   UNL     1     -11.623  14.767  68.336  1.00  0.00    -0.324 A  
HETATM   14  C   UNL     1     -11.674  13.752  69.302  1.00  0.00    -0.376 A  
HETATM   15  C   UNL     1     -11.766  12.416  68.921  1.00  0.00    -0.372 A  
HETATM   16  C   UNL     1     -11.851  12.091  67.570  1.00  0.00    -0.275 A  
HETATM   17  C   UNL     1     -11.865  13.103  66.604  1.00  0.00    -0.449 A  
HETATM   18  C   UNL     1     -11.741  14.456  66.972  1.00  0.00    -0.420 A  
HETATM   19  C   UNL     1     -11.774  15.554  65.934  1.00  0.00     0.329 C  
HETATM   20  C   UNL     1     -11.444  15.049  64.534  1.00  0.00    -0.320 C  
HETATM   21  C   UNL     1     -12.282  13.832  64.186  1.00  0.00    -0.443 C  
HETATM   22  C   UNL     1     -12.037  12.721  65.179  1.00  0.00    -0.450 C  
HETATM   23  O   UNL     1     -12.046  11.541  64.843  1.00  0.00    -0.021 OA 
ENDBRANCH  12  13
ENDBRANCH  11  12
ENDBRANCH   8  11
ENDBRANCH   7   8
ENDBRANCH   5   7
TORSDOF 5
ENDMDL
MODEL      311
REMARK 921   NORMALIZED FREE ENERGY PREDICTED BY IDOCK:   -1.35 KCAL/MOL
REMARK 922        TOTAL FREE ENERGY PREDICTED BY IDOCK:   -2.48 KCAL/MOL
REMARK 923 INTER-LIGAND FREE ENERGY PREDICTED BY IDOCK:   -3.54 KCAL/MOL
REMARK 924 INTRA-LIGAND FREE ENERGY PREDICTED BY IDOCK:    1.06 KCAL/MOL
REMARK 927      BINDING AFFINITY PREDICTED BY RF-SCORE:    0.00 PKD
ROOT
HETATM    1  C   UNL     1     -11.762  14.115  66.690  1.00  0.00    -0.422 C  
HETATM    2  C   UNL     1     -11.419  12.621  66.550  1.00  0.00    -0.353 C  
HETATM    3  C   UNL     1     -11.818  12.173  65.128  1.00  0.00    -0.356 C  
HETATM    4  C   UNL     1     -12.224  11.791  67.560  1.00  0.00     0.469 C  
HETATM    5  N   UNL     1      -9.965  12.380  66.680  1.00  0.00    -0.221 NA 
HETATM    6  H   UNL     1      -9.463  12.839  65.919  1.00  0.00     0.000 HD 
ENDROOT
BRANCH   5   7
HETATM    7  C   UNL     1      -9.381  12.762  67.974  1.00  0.00    -0.213 C  
BRANCH   7   8
HETATM    8  C   UNL     1      -8.517  11.669  68.637  1.00  0.00    -0.094 C  
HETATM    9  O   UNL     1      -7.373  12.303  69.232  1.00  0.00    -0.316 OA 
HETATM   10  H   UNL     1      -6.841  11.630  69.640  1.00  0.00     0.000 HD 
BRANCH   8  11
HETATM   11  C   UNL     1      -8.038  10.622  67.628  1.00  0.00    -0.107 C  
BRANCH  11  12
HETATM   12  O   UNL     1      -8.997   9.553  67.580  1.00  0.00    -0.125 OA 
BRANCH  12  13
HETATM   13  C   UNL     1      -9.640   9.326  68.773  1.00  0.00    -0.154 A  
HETATM   14  C   UNL     1     -11.032   9.415  68.912  1.00  0.00    -0.081 A  
HETATM   15  C   UNL     1     -11.632   9.235  70.156  1.00  0.00    -0.078 A  
HETATM   16  C   UNL     1     -10.844   8.923  71.260  1.00  0.00    -0.360 A  
HETATM   17  C   UNL     1      -9.461   8.770  71.115  1.00  0.00    -0.306 A  
HETATM   18  C   UNL     1      -8.837   8.980  69.872  1.00  0.00    -0.164 A  
HETATM   19  C   UNL     1      -7.346   8.798  69.705  1.00  0.00    -0.052 C  
HETATM   20  C   UNL     1      -6.593   8.884  71.028  1.00  0.00    -0.069 C  
HETATM   21  C   UNL     1      -7.222   7.977  72.069  1.00  0.00    -0.089 C  
HETATM   22  C   UNL     1      -8.664   8.359  72.300  1.00  0.00    -0.209 C  
HETATM   23  O   UNL     1      -9.186   8.272  73.407  1.00  0.00    -0.241 OA 
ENDBRANCH  12  13
ENDBRANCH  11  12
ENDBRANCH   8  11
ENDBRANCH   7   8
ENDBRANCH   5   7
TORSDOF 5
ENDMDL
MODEL      312
REMARK 921   NORMALIZED FREE ENERGY PREDICTED BY IDOCK:   -0.26 KCAL/MOL
REMARK 922        TOTAL FREE ENERGY PREDICTED BY IDOCK:   -1.07 KCAL/MOL
REMARK 923 INTER-LIGAND FREE ENERGY PREDICTED BY IDOCK:   -3.77 KCAL/MOL
REMARK 924 INTRA-LIGAND FREE ENERGY PREDICTED BY IDOCK:    2.70 KCAL/MOL
REMARK 927      BINDING AFFINITY PREDICTED BY RF-SCORE:    0.00 PKD
ROOT
HETATM    1  C   UNL     1     -10.335  13.263  65.221  1.00  0.00    -0.324 C  
HETATM    2  C   UNL     1     -11.275  12.084  65.527  1.00  0.00    -0.321 C  
HETATM    3  C   UNL     1     -12.442  12.131  64.519  1.00  0.00    -0.374 C  
HETATM    4  C   UNL     1     -11.856  12.217  66.942  1.00  0.00    -0.334 C  
HETATM    5  N   UNL     1     -10.599  10.782  65.335  1.00  0.00    -0.205 NA 
HETATM    6  H   UNL     1     -10.337  10.663  64.356  1.00  0.00     0.000 HD 
ENDROOT
BRANCH   5   7
HETATM    7  C   UNL     1      -9.436  10.547  66.203  1.00  0.00    -0.180 C  
BRANCH   7   8
HETATM    8  C   UNL     1      -9.784  10.137  67.649  1.00  0.00    -0.161 C  
HETATM    9  O   UNL     1     -11.061   9.481  67.632  1.00  0.00    -0.481 OA 
HETATM   10  H   UNL     1     -11.275   9.229  68.523  1.00  0.00     0.000 HD 
BRANCH   8  11
HETATM   11  C   UNL     1      -9.855  11.344  68.589  1.00  0.00    -0.193 C  
BRANCH  11  12
HETATM   12  O   UNL     1      -8.524  11.831  68.820  1.00  0.00    -0.105 OA 
BRANCH  12  13
HETATM   13  C   UNL     1      -8.244  13.015  68.182  1.00  0.00    -0.157 A  
HETATM   14  C   UNL     1      -7.081  13.213  67.426  1.00  0.00    -0.116 A  
HETATM   15  C   UNL     1      -6.814  14.451  66.848  1.00  0.00     1.074 A  
HETATM   16  C   UNL     1      -7.732  15.488  66.988  1.00  0.00    -0.246 A  
HETATM   17  C   UNL     1      -8.926  15.278  67.688  1.00  0.00    -0.182 A  
HETATM   18  C   UNL     1      -9.195  14.042  68.304  1.00  0.00    -0.200 A  
HETATM   19  C   UNL     1     -10.491  13.804  69.044  1.00  0.00    -0.117 C  
HETATM   20  C   UNL     1     -11.169  15.101  69.472  1.00  0.00    -0.286 C  
HETATM   21  C   UNL     1     -11.283  16.062  68.303  1.00  0.00    -0.350 C  
HETATM   22  C   UNL     1      -9.916  16.384  67.748  1.00  0.00    -0.248 C  
HETATM   23  O   UNL     1      -9.645  17.493  67.300  1.00  0.00    -0.263 OA 
ENDBRANCH  12  13
ENDBRANCH  11  12
ENDBRANCH   8  11
ENDBRANCH   7   8
ENDBRANCH   5   7
TORSDOF 5
ENDMDL
MODEL      313
REMARK 921   NORMALIZED FREE ENERGY PREDICTED BY IDOCK:   -0.22 KCAL/MOL
REMARK 922        TOTAL FREE ENERGY PREDICTED BY IDOCK:   -1.01 KCAL/MOL
REMARK 923 INTER-LIGAND FREE ENERGY PREDICTED BY IDOCK:   -0.55 KCAL/MOL
REMARK 924 INTRA-LIGAND FREE ENERGY PREDICTED BY IDOCK:   -0.46 KCAL/MOL
REMARK 927      BINDING AFFINITY PREDICTED BY RF-SCORE:    0.00 PKD
ROOT
HETATM    1  C   UNL     1      -7.186  17.002  69.433  1.00  0.00    -0.068 C  
HETATM    2  C   UNL     1      -7.629  15.529  69.381  1.00  0.00    -0.225 C  
HETATM    3  C   UNL     1      -9.171  15.496  69.375  1.00  0.00    -0.280 C  
HETATM    4  C   UNL     1      -7.136  14.779  70.627  1.00  0.00     0.590 C  
HETATM    5  N   UNL     1      -7.184  14.868  68.134  1.00  0.00    -0.109 NA 
HETATM    6  H   UNL     1      -7.627  15.305  67.327  1.00  0.00     0.000 HD 
ENDROOT
BRANCH   5   7
HETATM    7  C   UNL     1      -5.727  14.810  67.943  1.00  0.00    -0.121 C  
BRANCH   7   8
HETATM    8  C   UNL     1      -5.186  13.424  67.536  1.00  0.00     0.088 C  
HETATM    9  O   UNL     1      -5.827  13.034  66.312  1.00  0.00     1.006 OA 
HETATM   10  H   UNL     1      -5.494  12.180  66.062  1.00  0.00     0.000 HD 
BRANCH   8  11
HETATM   11  C   UNL     1      -5.463  12.362  68.604  1.00  0.00    -0.054 C  
BRANCH  11  12
HETATM   12  O   UNL     1      -6.871  12.344  68.885  1.00  0.00    -0.092 OA 
BRANCH  12  13
HETATM   13  C   UNL     1      -7.328  11.144  69.374  1.00  0.00    -0.062 A  
HETATM   14  C   UNL     1      -6.468  10.121  69.797  1.00  0.00    -0.072 A  
HETATM   15  C   UNL     1      -6.979   8.900  70.229  1.00  0.00    -0.047 A  
HETATM   16  C   UNL     1      -8.357   8.710  70.280  1.00  0.00    -0.129 A  
HETATM   17  C   UNL     1      -9.222   9.750  69.920  1.00  0.00    -0.263 A  
HETATM   18  C   UNL     1      -8.721  10.978  69.452  1.00  0.00     0.199 A  
HETATM   19  C   UNL     1      -9.650  12.110  69.080  1.00  0.00     0.270 C  
HETATM   20  C   UNL     1     -11.066  11.632  68.780  1.00  0.00    -0.283 C  
HETATM   21  C   UNL     1     -11.582  10.739  69.893  1.00  0.00    -0.410 C  
HETATM   22  C   UNL     1     -10.685   9.537  70.064  1.00  0.00    -0.243 C  
HETATM   23  O   UNL     1     -11.130   8.437  70.375  1.00  0.00    -0.245 OA 
ENDBRANCH  12  13
ENDBRANCH  11  12
ENDBRANCH   8  11
ENDBRANCH   7   8
ENDBRANCH   5   7
TORSDOF 5
ENDMDL
MODEL      314
REMARK 921   NORMALIZED FREE ENERGY PREDICTED BY IDOCK:    0.50 KCAL/MOL
REMARK 922        TOTAL FREE ENERGY PREDICTED BY IDOCK:   -0.08 KCAL/MOL
REMARK 923 INTER-LIGAND FREE ENERGY PREDICTED BY IDOCK:   -0.16 KCAL/MOL
REMARK 924 INTRA-LIGAND FREE ENERGY PREDICTED BY IDOCK:    0.07 KCAL/MOL
REMARK 927      BINDING AFFINITY PREDICTED BY RF-SCORE:    0.00 PKD
ROOT
HETATM    1  C   UNL     1      -7.027  16.918  70.061  1.00  0.00     0.682 C  
HETATM    2  C   UNL     1      -7.509  15.466  69.896  1.00  0.00    -0.017 C  
HETATM    3  C   UNL     1      -9.052  15.472  69.906  1.00  0.00     0.088 C  
HETATM    4  C   UNL     1      -7.023  14.605  71.071  1.00  0.00     0.931 C  
HETATM    5  N   UNL     1      -7.094  14.897  68.595  1.00  0.00    -0.105 NA 
HETATM    6  H   UNL     1      -7.534  15.409  67.831  1.00  0.00     0.000 HD 
ENDROOT
BRANCH   5   7
HETATM    7  C   UNL     1      -5.641  14.819  68.381  1.00  0.00    -0.110 C  
BRANCH   7   8
HETATM    8  C   UNL     1      -5.144  13.467  67.827  1.00  0.00    -0.036 C  
HETATM    9  O   UNL     1      -5.693  13.294  66.511  1.00  0.00     0.558 OA 
HETATM   10  H   UNL     1      -5.387  12.462  66.171  1.00  0.00     0.000 HD 
BRANCH   8  11
HETATM   11  C   UNL     1      -5.575  12.290  68.706  1.00  0.00    -0.053 C  
BRANCH  11  12
HETATM   12  O   UNL     1      -7.007  12.295  68.817  1.00  0.00    -0.089 OA 
BRANCH  12  13
HETATM   13  C   UNL     1      -7.631  11.367  68.018  1.00  0.00    -0.110 A  
HETATM   14  C   UNL     1      -7.329   9.999  68.067  1.00  0.00    -0.087 A  
HETATM   15  C   UNL     1      -7.947   9.106  67.195  1.00  0.00    -0.106 A  
HETATM   16  C   UNL     1      -8.902   9.572  66.297  1.00  0.00    -0.172 A  
HETATM   17  C   UNL     1      -9.255  10.926  66.287  1.00  0.00    -0.197 A  
HETATM   18  C   UNL     1      -8.617  11.846  67.140  1.00  0.00    -0.172 A  
HETATM   19  C   UNL     1      -9.007  13.306  67.146  1.00  0.00    -0.229 C  
HETATM   20  C   UNL     1      -9.718  13.729  65.866  1.00  0.00    -0.217 C  
HETATM   21  C   UNL     1     -10.856  12.778  65.540  1.00  0.00    -0.301 C  
HETATM   22  C   UNL     1     -10.335  11.371  65.370  1.00  0.00    -0.279 C  
HETATM   23  O   UNL     1     -10.824  10.596  64.554  1.00  0.00    -0.135 OA 
ENDBRANCH  12  13
ENDBRANCH  11  12
ENDBRANCH   8  11
ENDBRANCH   7   8
ENDBRANCH   5   7
TORSDOF 5
ENDMDL
MODEL      315
REMARK 921   NORMALIZED FREE ENERGY PREDICTED BY IDOCK:    0.69 KCAL/MOL
REMARK 922        TOTAL FREE ENERGY PREDICTED BY IDOCK:    0.17 KCAL/MOL
REMARK 923 INTER-LIGAND FREE ENERGY PREDICTED BY IDOCK:   -0.74 KCAL/MOL
REMARK 924 INTRA-LIGAND FREE ENERGY PREDICTED BY IDOCK:    0.91 KCAL/MOL
REMARK 927      BINDING AFFINITY PREDICTED BY RF-SCORE:    0.00 PKD
ROOT
HETATM    1  C   UNL     1      -8.375   6.403  69.846  1.00  0.00    -0.130 C  
HETATM    2  C   UNL     1      -8.530   4.873  69.787  1.00  0.00    -0.083 C  
HETATM    3  C   UNL     1      -7.137   4.245  70.004  1.00  0.00    -0.042 C  
HETATM    4  C   UNL     1      -9.042   4.441  68.405  1.00  0.00    -0.165 C  
HETATM    5  N   UNL     1      -9.398   4.369  70.874  1.00  0.00    -0.138 NA 
HETATM    6  H   UNL     1      -8.971   4.556  71.781  1.00  0.00     0.000 HD 
ENDROOT
BRANCH   5   7
HETATM    7  C   UNL     1     -10.780   4.870  70.852  1.00  0.00     0.109 C  
BRANCH   7   8
HETATM    8  C   UNL     1     -11.487   4.867  72.224  1.00  0.00     0.268 C  
HETATM    9  O   UNL     1     -12.056   6.168  72.437  1.00  0.00    -0.488 OA 
HETATM   10  H   UNL     1     -12.491   6.165  73.282  1.00  0.00     0.000 HD 
BRANCH   8  11
HETATM   11  C   UNL     1     -10.521   4.551  73.369  1.00  0.00    -0.201 C  
BRANCH  11  12
HETATM   12  O   UNL     1     -10.525   5.649  74.294  1.00  0.00    -0.274 OA 
BRANCH  12  13
HETATM   13  C   UNL     1      -9.833   6.752  73.854  1.00  0.00    -0.289 A  
HETATM   14  C   UNL     1     -10.469   7.925  73.424  1.00  0.00    -0.137 A  
HETATM   15  C   UNL     1      -9.726   8.993  72.931  1.00  0.00     1.019 A  
HETATM   16  C   UNL     1      -8.336   8.911  72.905  1.00  0.00     0.459 A  
HETATM   17  C   UNL     1      -7.692   7.768  73.393  1.00  0.00    -0.168 A  
HETATM   18  C   UNL     1      -8.431   6.668  73.865  1.00  0.00    -0.139 A  
HETATM   19  C   UNL     1      -7.740   5.439  74.410  1.00  0.00    -0.095 C  
HETATM   20  C   UNL     1      -6.297   5.317  73.934  1.00  0.00    -0.070 C  
HETATM   21  C   UNL     1      -5.541   6.613  74.161  1.00  0.00    -0.055 C  
HETATM   22  C   UNL     1      -6.207   7.749  73.423  1.00  0.00    -0.065 C  
HETATM   23  O   UNL     1      -5.559   8.662  72.921  1.00  0.00    -0.062 OA 
ENDBRANCH  12  13
ENDBRANCH  11  12
ENDBRANCH   8  11
ENDBRANCH   7   8
ENDBRANCH   5   7
TORSDOF 5
ENDMDL
MODEL      316
REMARK 921   NORMALIZED FREE ENERGY PREDICTED BY IDOCK:    1.69 KCAL/MOL
REMARK 922        TOTAL FREE ENERGY PREDICTED BY IDOCK:    1.45 KCAL/MOL
REMARK 923 INTER-LIGAND FREE ENERGY PREDICTED BY IDOCK:    1.11 KCAL/MOL
REMARK 924 INTRA-LIGAND FREE ENERGY PREDICTED BY IDOCK:    0.34 KCAL/MOL
REMARK 927      BINDING AFFINITY PREDICTED BY RF-SCORE:    0.00 PKD
ROOT
HETATM    1  C   UNL     1      -7.081  16.944  70.186  1.00  0.00     1.105 C  
HETATM    2  C   UNL     1      -7.586  15.498  70.039  1.00  0.00     0.205 C  
HETATM    3  C   UNL     1      -9.127  15.538  69.961  1.00  0.00     0.281 C  
HETATM    4  C   UNL     1      -7.188  14.666  71.268  1.00  0.00     1.805 C  
HETATM    5  N   UNL     1      -7.111  14.877  68.783  1.00  0.00    -0.109 NA 
HETATM    6  H   UNL     1      -7.495  15.374  67.979  1.00  0.00     0.000 HD 
ENDROOT
BRANCH   5   7
HETATM    7  C   UNL     1      -5.651  14.761  68.656  1.00  0.00    -0.093 C  
BRANCH   7   8
HETATM    8  C   UNL     1      -5.156  13.388  68.155  1.00  0.00    -0.103 C  
HETATM    9  O   UNL     1      -5.486  13.275  66.762  1.00  0.00     0.026 OA 
HETATM   10  H   UNL     1      -5.181  12.429  66.454  1.00  0.00     0.000 HD 
BRANCH   8  11
HETATM   11  C   UNL     1      -5.804  12.229  68.917  1.00  0.00    -0.062 C  
BRANCH  11  12
HETATM   12  O   UNL     1      -7.219  12.245  68.669  1.00  0.00    -0.098 OA 
BRANCH  12  13
HETATM   13  C   UNL     1      -7.642  11.275  67.792  1.00  0.00    -0.104 A  
HETATM   14  C   UNL     1      -7.104  11.128  66.506  1.00  0.00    -0.124 A  
HETATM   15  C   UNL     1      -7.609  10.168  65.634  1.00  0.00    -0.144 A  
HETATM   16  C   UNL     1      -8.628   9.320  66.058  1.00  0.00    -0.158 A  
HETATM   17  C   UNL     1      -9.126   9.420  67.362  1.00  0.00    -0.141 A  
HETATM   18  C   UNL     1      -8.648  10.406  68.245  1.00  0.00    -0.128 A  
HETATM   19  C   UNL     1      -9.169  10.506  69.660  1.00  0.00     0.008 C  
HETATM   20  C   UNL     1     -10.526   9.834  69.835  1.00  0.00    -0.298 C  
HETATM   21  C   UNL     1     -10.508   8.424  69.272  1.00  0.00    -0.223 C  
HETATM   22  C   UNL     1     -10.157   8.446  67.804  1.00  0.00    -0.207 C  
HETATM   23  O   UNL     1     -10.649   7.651  67.010  1.00  0.00    -0.329 OA 
ENDBRANCH  12  13
ENDBRANCH  11  12
ENDBRANCH   8  11
ENDBRANCH   7   8
ENDBRANCH   5   7
TORSDOF 5
ENDMDL
MODEL      317
REMARK 921   NORMALIZED FREE ENERGY PREDICTED BY IDOCK:    3.30 KCAL/MOL
REMARK 922        TOTAL FREE ENERGY PREDICTED BY IDOCK:    3.53 KCAL/MOL
REMARK 923 INTER-LIGAND FREE ENERGY PREDICTED BY IDOCK:    4.05 KCAL/MOL
REMARK 924 INTRA-LIGAND FREE ENERGY PREDICTED BY IDOCK:   -0.52 KCAL/MOL
REMARK 927      BINDING AFFINITY PREDICTED BY RF-SCORE:    0.00 PKD
ROOT
HETATM    1  C   UNL     1      -6.815  11.847  71.974  1.00  0.00     6.265 C  
HETATM    2  C   UNL     1      -6.039  10.680  71.337  1.00  0.00     0.469 C  
HETATM    3  C   UNL     1      -5.133  10.063  72.423  1.00  0.00    -0.012 C  
HETATM    4  C   UNL     1      -5.144  11.192  70.199  1.00  0.00    -0.058 C  
HETATM    5  N   UNL     1      -6.946   9.606  70.878  1.00  0.00    -0.287 NA 
HETATM    6  H   UNL     1      -7.434   9.194  71.673  1.00  0.00     0.000 HD 
ENDROOT
BRANCH   5   7
HETATM    7  C   UNL     1      -7.910  10.002  69.841  1.00  0.00    -0.174 C  
BRANCH   7   8
HETATM    8  C   UNL     1      -8.899   8.894  69.424  1.00  0.00    -0.143 C  
HETATM    9  O   UNL     1      -9.269   8.159  70.601  1.00  0.00    -0.150 OA 
HETATM   10  H   UNL     1      -9.878   7.476  70.344  1.00  0.00     0.000 HD 
BRANCH   8  11
HETATM   11  C   UNL     1      -8.286   7.928  68.406  1.00  0.00    -0.124 C  
BRANCH  11  12
HETATM   12  O   UNL     1      -9.114   7.906  67.232  1.00  0.00    -0.131 OA 
BRANCH  12  13
HETATM   13  C   UNL     1      -8.451   8.243  66.076  1.00  0.00    -0.139 A  
HETATM   14  C   UNL     1      -7.418   7.463  65.539  1.00  0.00    -0.088 A  
HETATM   15  C   UNL     1      -6.737   7.878  64.398  1.00  0.00    -0.056 A  
HETATM   16  C   UNL     1      -7.115   9.057  63.763  1.00  0.00    -0.092 A  
HETATM   17  C   UNL     1      -8.187   9.808  64.257  1.00  0.00    -0.160 A  
HETATM   18  C   UNL     1      -8.865   9.418  65.427  1.00  0.00    -0.220 A  
HETATM   19  C   UNL     1     -10.036  10.215  65.954  1.00  0.00    -0.334 C  
HETATM   20  C   UNL     1     -10.053  11.647  65.433  1.00  0.00    -0.299 C  
HETATM   21  C   UNL     1      -9.906  11.675  63.922  1.00  0.00    -0.306 C  
HETATM   22  C   UNL     1      -8.612  11.017  63.506  1.00  0.00     0.091 C  
HETATM   23  O   UNL     1      -7.964  11.417  62.544  1.00  0.00    -0.001 OA 
ENDBRANCH  12  13
ENDBRANCH  11  12
ENDBRANCH   8  11
ENDBRANCH   7   8
ENDBRANCH   5   7
TORSDOF 5
ENDMDL
MODEL      318
REMARK 921   NORMALIZED FREE ENERGY PREDICTED BY IDOCK:    3.42 KCAL/MOL
REMARK 922        TOTAL FREE ENERGY PREDICTED BY IDOCK:    3.69 KCAL/MOL
REMARK 923 INTER-LIGAND FREE ENERGY PREDICTED BY IDOCK:   -1.36 KCAL/MOL
REMARK 924 INTRA-LIGAND FREE ENERGY PREDICTED BY IDOCK:    5.04 KCAL/MOL
REMARK 927      BINDING AFFINITY PREDICTED BY RF-SCORE:    0.00 PKD
ROOT
HETATM    1  C   UNL     1      -9.469  16.837  67.876  1.00  0.00    -0.230 C  
HETATM    2  C   UNL     1     -10.084  18.247  67.835  1.00  0.00    -0.361 C  
HETATM    3  C   UNL     1     -11.179  18.320  68.920  1.00  0.00     1.522 C  
HETATM    4  C   UNL     1     -10.741  18.504  66.471  1.00  0.00    -0.263 C  
HETATM    5  N   UNL     1      -9.087  19.288  68.166  1.00  0.00    -0.319 NA 
HETATM    6  H   UNL     1      -8.760  19.171  69.125  1.00  0.00     0.000 HD 
ENDROOT
BRANCH   5   7
HETATM    7  C   UNL     1      -7.941  19.371  67.248  1.00  0.00    -0.263 C  
BRANCH   7   8
HETATM    8  C   UNL     1      -6.843  18.315  67.493  1.00  0.00    -0.198 C  
HETATM    9  O   UNL     1      -5.594  19.001  67.671  1.00  0.00    -0.173 OA 
HETATM   10  H   UNL     1      -4.918  18.351  67.821  1.00  0.00     0.000 HD 
BRANCH   8  11
HETATM   11  C   UNL     1      -6.712  17.338  66.321  1.00  0.00    -0.234 C  
BRANCH  11  12
HETATM   12  O   UNL     1      -6.073  16.139  66.787  1.00  0.00    -0.301 OA 
BRANCH  12  13
HETATM   13  C   UNL     1      -6.737  15.517  67.818  1.00  0.00    -0.164 A  
HETATM   14  C   UNL     1      -6.228  15.461  69.122  1.00  0.00    -0.110 A  
HETATM   15  C   UNL     1      -6.910  14.767  70.119  1.00  0.00    -0.066 A  
HETATM   16  C   UNL     1      -8.128  14.162  69.825  1.00  0.00     0.764 A  
HETATM   17  C   UNL     1      -8.673  14.269  68.540  1.00  0.00    -0.175 A  
HETATM   18  C   UNL     1      -7.981  14.939  67.515  1.00  0.00    -0.198 A  
HETATM   19  C   UNL     1      -8.573  15.074  66.131  1.00  0.00     0.232 C  
HETATM   20  C   UNL     1      -9.653  14.035  65.851  1.00  0.00    -0.186 C  
HETATM   21  C   UNL     1     -10.677  14.004  66.970  1.00  0.00    -0.284 C  
HETATM   22  C   UNL     1     -10.012  13.678  68.286  1.00  0.00    -0.236 C  
HETATM   23  O   UNL     1     -10.574  13.007  69.146  1.00  0.00    -0.112 OA 
ENDBRANCH  12  13
ENDBRANCH  11  12
ENDBRANCH   8  11
ENDBRANCH   7   8
ENDBRANCH   5   7
TORSDOF 5
ENDMDL
MODEL      319
REMARK 921   NORMALIZED FREE ENERGY PREDICTED BY IDOCK:    3.54 KCAL/MOL
REMARK 922        TOTAL FREE ENERGY PREDICTED BY IDOCK:    3.84 KCAL/MOL
REMARK 923 INTER-LIGAND FREE ENERGY PREDICTED BY IDOCK:    4.20 KCAL/MOL
REMARK 924 INTRA-LIGAND FREE ENERGY PREDICTED BY IDOCK:   -0.36 KCAL/MOL
REMARK 927      BINDING AFFINITY PREDICTED BY RF-SCORE:    0.00 PKD
ROOT
HETATM    1  C   UNL     1      -6.815  11.847  71.974  1.00  0.00     6.265 C  
HETATM    2  C   UNL     1      -6.030  10.681  71.345  1.00  0.00     0.338 C  
HETATM    3  C   UNL     1      -5.125  10.074  72.438  1.00  0.00    -0.012 C  
HETATM    4  C   UNL     1      -5.134  11.193  70.208  1.00  0.00    -0.066 C  
HETATM    5  N   UNL     1      -6.929   9.600  70.887  1.00  0.00    -0.287 NA 
HETATM    6  H   UNL     1      -7.419   9.190  71.682  1.00  0.00     0.000 HD 
ENDROOT
BRANCH   5   7
HETATM    7  C   UNL     1      -7.892   9.987  69.845  1.00  0.00    -0.174 C  
BRANCH   7   8
HETATM    8  C   UNL     1      -8.921   8.897  69.482  1.00  0.00    -0.145 C  
HETATM    9  O   UNL     1      -9.303   8.222  70.691  1.00  0.00    -0.151 OA 
HETATM   10  H   UNL     1      -9.936   7.551  70.468  1.00  0.00     0.000 HD 
BRANCH   8  11
HETATM   11  C   UNL     1      -8.352   7.871  68.498  1.00  0.00    -0.128 C  
BRANCH  11  12
HETATM   12  O   UNL     1      -9.192   7.831  67.334  1.00  0.00    -0.133 OA 
BRANCH  12  13
HETATM   13  C   UNL     1      -9.312   6.581  66.775  1.00  0.00    -0.156 A  
HETATM   14  C   UNL     1      -9.930   5.511  67.438  1.00  0.00    -0.189 A  
HETATM   15  C   UNL     1      -9.974   4.247  66.854  1.00  0.00    -0.178 A  
HETATM   16  C   UNL     1      -9.436   4.057  65.584  1.00  0.00    -0.176 A  
HETATM   17  C   UNL     1      -8.875   5.136  64.891  1.00  0.00    -0.118 A  
HETATM   18  C   UNL     1      -8.795   6.411  65.480  1.00  0.00    -0.026 A  
HETATM   19  C   UNL     1      -8.208   7.583  64.729  1.00  0.00    -0.068 C  
HETATM   20  C   UNL     1      -7.304   7.151  63.580  1.00  0.00    -0.085 C  
HETATM   21  C   UNL     1      -8.000   6.129  62.700  1.00  0.00    -0.101 C  
HETATM   22  C   UNL     1      -8.384   4.912  63.507  1.00  0.00    -0.122 C  
HETATM   23  O   UNL     1      -8.359   3.783  63.026  1.00  0.00    -0.083 OA 
ENDBRANCH  12  13
ENDBRANCH  11  12
ENDBRANCH   8  11
ENDBRANCH   7   8
ENDBRANCH   5   7
TORSDOF 5
ENDMDL
MODEL      320
REMARK 921   NORMALIZED FREE ENERGY PREDICTED BY IDOCK:    5.11 KCAL/MOL
REMARK 922        TOTAL FREE ENERGY PREDICTED BY IDOCK:    5.87 KCAL/MOL
REMARK 923 INTER-LIGAND FREE ENERGY PREDICTED BY IDOCK:    3.35 KCAL/MOL
REMARK 924 INTRA-LIGAND FREE ENERGY PREDICTED BY IDOCK:    2.52 KCAL/MOL
REMARK 927      BINDING AFFINITY PREDICTED BY RF-SCORE:    0.00 PKD
ROOT
HETATM    1  C   UNL     1      -5.914  17.638  69.293  1.00  0.00    -0.225 C  
HETATM    2  C   UNL     1      -7.176  16.861  69.707  1.00  0.00     0.432 C  
HETATM    3  C   UNL     1      -8.198  17.875  70.262  1.00  0.00     3.012 C  
HETATM    4  C   UNL     1      -6.843  15.856  70.820  1.00  0.00     1.337 C  
HETATM    5  N   UNL     1      -7.816  16.201  68.549  1.00  0.00    -0.163 NA 
HETATM    6  H   UNL     1      -8.143  16.900  67.882  1.00  0.00     0.000 HD 
ENDROOT
BRANCH   5   7
HETATM    7  C   UNL     1      -6.987  15.198  67.864  1.00  0.00    -0.151 C  
BRANCH   7   8
HETATM    8  C   UNL     1      -6.107  14.343  68.799  1.00  0.00    -0.088 C  
HETATM    9  O   UNL     1      -5.417  13.371  67.999  1.00  0.00    -0.095 OA 
HETATM   10  H   UNL     1      -4.875  12.844  68.575  1.00  0.00     0.000 HD 
BRANCH   8  11
HETATM   11  C   UNL     1      -6.934  13.616  69.863  1.00  0.00     0.311 C  
BRANCH  11  12
HETATM   12  O   UNL     1      -6.965  12.215  69.549  1.00  0.00    -0.027 OA 
BRANCH  12  13
HETATM   13  C   UNL     1      -8.231  11.709  69.380  1.00  0.00     0.561 A  
HETATM   14  C   UNL     1      -9.228  12.384  68.662  1.00  0.00     0.008 A  
HETATM   15  C   UNL     1     -10.514  11.857  68.569  1.00  0.00    -0.240 A  
HETATM   16  C   UNL     1     -10.798  10.630  69.160  1.00  0.00    -0.279 A  
HETATM   17  C   UNL     1      -9.791   9.920  69.824  1.00  0.00    -0.268 A  
HETATM   18  C   UNL     1      -8.495  10.454  69.953  1.00  0.00     0.098 A  
HETATM   19  C   UNL     1      -7.399   9.684  70.652  1.00  0.00    -0.112 C  
HETATM   20  C   UNL     1      -7.942   8.608  71.586  1.00  0.00    -0.166 C  
HETATM   21  C   UNL     1      -8.962   7.738  70.874  1.00  0.00    -0.148 C  
HETATM   22  C   UNL     1     -10.112   8.578  70.372  1.00  0.00    -0.189 C  
HETATM   23  O   UNL     1     -11.263   8.151  70.351  1.00  0.00    -0.264 OA 
ENDBRANCH  12  13
ENDBRANCH  11  12
ENDBRANCH   8  11
ENDBRANCH   7   8
ENDBRANCH   5   7
TORSDOF 5
ENDMDL
MODEL      321
REMARK 921   NORMALIZED FREE ENERGY PREDICTED BY IDOCK:   14.24 KCAL/MOL
REMARK 922        TOTAL FREE ENERGY PREDICTED BY IDOCK:   17.67 KCAL/MOL
REMARK 923 INTER-LIGAND FREE ENERGY PREDICTED BY IDOCK:    0.94 KCAL/MOL
REMARK 924 INTRA-LIGAND FREE ENERGY PREDICTED BY IDOCK:   16.72 KCAL/MOL
REMARK 927      BINDING AFFINITY PREDICTED BY RF-SCORE:    0.00 PKD
ROOT
HETATM    1  C   UNL     1     -11.689  12.570  67.146  1.00  0.00    -0.425 C  
HETATM    2  C   UNL     1     -11.926  12.003  68.557  1.00  0.00    -0.214 C  
HETATM    3  C   UNL     1     -12.701  10.676  68.412  1.00  0.00     2.502 C  
HETATM    4  C   UNL     1     -12.783  12.972  69.385  1.00  0.00     0.637 C  
HETATM    5  N   UNL     1     -10.653  11.681  69.238  1.00  0.00    -0.423 NA 
HETATM    6  H   UNL     1     -10.163  10.941  68.735  1.00  0.00     0.000 HD 
ENDROOT
BRANCH   5   7
HETATM    7  C   UNL     1      -9.755  12.824  69.458  1.00  0.00     1.327 C  
BRANCH   7   8
HETATM    8  C   UNL     1      -9.964  14.003  68.484  1.00  0.00    -0.230 C  
HETATM    9  O   UNL     1     -10.073  15.208  69.257  1.00  0.00    -0.229 OA 
HETATM   10  H   UNL     1     -10.202  15.933  68.657  1.00  0.00     0.000 HD 
BRANCH   8  11
HETATM   11  C   UNL     1     -11.230  13.835  67.640  1.00  0.00    -0.293 C  
BRANCH  11  12
HETATM   12  O   UNL     1     -11.159  14.727  66.515  1.00  0.00    -0.324 OA 
BRANCH  12  13
HETATM   13  C   UNL     1     -11.326  14.107  65.300  1.00  0.00    -0.328 A  
HETATM   14  C   UNL     1     -12.253  14.547  64.346  1.00  0.00    -0.480 A  
HETATM   15  C   UNL     1     -12.428  13.849  63.154  1.00  0.00     0.545 A  
HETATM   16  C   UNL     1     -11.643  12.729  62.892  1.00  0.00     0.462 A  
HETATM   17  C   UNL     1     -10.671  12.322  63.813  1.00  0.00    -0.494 A  
HETATM   18  C   UNL     1     -10.505  12.998  65.035  1.00  0.00    -0.345 A  
HETATM   19  C   UNL     1      -9.444  12.574  66.024  1.00  0.00    -0.154 C  
HETATM   20  C   UNL     1      -8.983  11.137  65.810  1.00  0.00    -0.207 C  
HETATM   21  C   UNL     1      -8.616  10.897  64.358  1.00  0.00     0.043 C  
HETATM   22  C   UNL     1      -9.800  11.171  63.462  1.00  0.00    -0.353 C  
HETATM   23  O   UNL     1     -10.006  10.516  62.445  1.00  0.00    -0.074 OA 
ENDBRANCH  12  13
ENDBRANCH  11  12
ENDBRANCH   8  11
ENDBRANCH   7   8
ENDBRANCH   5   7
TORSDOF 5
ENDMDL
MODEL      322
REMARK 921   NORMALIZED FREE ENERGY PREDICTED BY IDOCK:   19.04 KCAL/MOL
REMARK 922        TOTAL FREE ENERGY PREDICTED BY IDOCK:   23.88 KCAL/MOL
REMARK 923 INTER-LIGAND FREE ENERGY PREDICTED BY IDOCK:    7.66 KCAL/MOL
REMARK 924 INTRA-LIGAND FREE ENERGY PREDICTED BY IDOCK:   16.22 KCAL/MOL
REMARK 927      BINDING AFFINITY PREDICTED BY RF-SCORE:    0.00 PKD
ROOT
HETATM    1  C   UNL     1      -5.148  14.143  67.036  1.00  0.00     1.195 C  
HETATM    2  C   UNL     1      -6.418  15.003  67.154  1.00  0.00     0.395 C  
HETATM    3  C   UNL     1      -6.334  16.123  66.096  1.00  0.00     1.811 C  
HETATM    4  C   UNL     1      -6.494  15.657  68.541  1.00  0.00    -0.107 C  
HETATM    5  N   UNL     1      -7.637  14.222  66.851  1.00  0.00    -0.273 NA 
HETATM    6  H   UNL     1      -7.621  13.907  65.881  1.00  0.00     0.000 HD 
ENDROOT
BRANCH   5   7
HETATM    7  C   UNL     1      -7.891  13.085  67.748  1.00  0.00    -0.157 C  
BRANCH   7   8
HETATM    8  C   UNL     1      -9.304  12.477  67.633  1.00  0.00    -0.189 C  
HETATM    9  O   UNL     1      -9.483  12.012  66.286  1.00  0.00    -0.222 OA 
HETATM   10  H   UNL     1     -10.353  11.638  66.216  1.00  0.00     0.000 HD 
BRANCH   8  11
HETATM   11  C   UNL     1     -10.398  13.498  67.958  1.00  0.00    -0.241 C  
BRANCH  11  12
HETATM   12  O   UNL     1     -10.421  14.497  66.926  1.00  0.00    -0.266 OA 
BRANCH  12  13
HETATM   13  C   UNL     1     -10.017  15.742  67.345  1.00  0.00    -0.237 A  
HETATM   14  C   UNL     1     -10.421  16.924  66.709  1.00  0.00    -0.260 A  
HETATM   15  C   UNL     1      -9.936  18.158  67.136  1.00  0.00    -0.341 A  
HETATM   16  C   UNL     1      -9.076  18.219  68.228  1.00  0.00    -0.318 A  
HETATM   17  C   UNL     1      -8.720  17.048  68.907  1.00  0.00    -0.202 A  
HETATM   18  C   UNL     1      -9.176  15.791  68.469  1.00  0.00    -0.198 A  
HETATM   19  C   UNL     1      -8.809  14.526  69.210  1.00  0.00     0.113 C  
HETATM   20  C   UNL     1      -7.568  14.693  70.078  1.00  0.00     0.294 C  
HETATM   21  C   UNL     1      -7.686  15.922  70.960  1.00  0.00     3.319 C  
HETATM   22  C   UNL     1      -7.865  17.161  70.117  1.00  0.00     2.119 C  
HETATM   23  O   UNL     1      -7.383  18.241  70.444  1.00  0.00     1.430 OA 
ENDBRANCH  12  13
ENDBRANCH  11  12
ENDBRANCH   8  11
ENDBRANCH   7   8
ENDBRANCH   5   7
TORSDOF 5
ENDMDL
MODEL      323
REMARK 921   NORMALIZED FREE ENERGY PREDICTED BY IDOCK:   22.09 KCAL/MOL
REMARK 922        TOTAL FREE ENERGY PREDICTED BY IDOCK:   27.81 KCAL/MOL
REMARK 923 INTER-LIGAND FREE ENERGY PREDICTED BY IDOCK:   14.37 KCAL/MOL
REMARK 924 INTRA-LIGAND FREE ENERGY PREDICTED BY IDOCK:   13.44 KCAL/MOL
REMARK 927      BINDING AFFINITY PREDICTED BY RF-SCORE:    0.00 PKD
ROOT
HETATM    1  C   UNL     1      -5.147  14.139  67.028  1.00  0.00     1.195 C  
HETATM    2  C   UNL     1      -6.417  15.001  67.135  1.00  0.00     0.395 C  
HETATM    3  C   UNL     1      -6.325  16.117  66.074  1.00  0.00     2.295 C  
HETATM    4  C   UNL     1      -6.501  15.660  68.520  1.00  0.00    -0.107 C  
HETATM    5  N   UNL     1      -7.635  14.220  66.828  1.00  0.00    -0.210 NA 
HETATM    6  H   UNL     1      -7.613  13.901  65.859  1.00  0.00     0.000 HD 
ENDROOT
BRANCH   5   7
HETATM    7  C   UNL     1      -7.895  13.086  67.728  1.00  0.00    -0.157 C  
BRANCH   7   8
HETATM    8  C   UNL     1      -9.329  12.521  67.654  1.00  0.00    -0.189 C  
HETATM    9  O   UNL     1      -9.543  12.017  66.326  1.00  0.00    -0.222 OA 
HETATM   10  H   UNL     1     -10.426  11.669  66.281  1.00  0.00     0.000 HD 
BRANCH   8  11
HETATM   11  C   UNL     1     -10.384  13.588  67.958  1.00  0.00    -0.241 C  
BRANCH  11  12
HETATM   12  O   UNL     1     -10.460  14.495  66.847  1.00  0.00    -0.266 OA 
BRANCH  12  13
HETATM   13  C   UNL     1      -9.861  15.710  67.078  1.00  0.00    -0.233 A  
HETATM   14  C   UNL     1      -8.489  15.928  66.887  1.00  0.00    -0.275 A  
HETATM   15  C   UNL     1      -7.919  17.161  67.192  1.00  0.00    -0.216 A  
HETATM   16  C   UNL     1      -8.726  18.198  67.650  1.00  0.00    -0.249 A  
HETATM   17  C   UNL     1     -10.107  18.006  67.782  1.00  0.00    -0.359 A  
HETATM   18  C   UNL     1     -10.693  16.757  67.508  1.00  0.00    -0.275 A  
HETATM   19  C   UNL     1     -12.185  16.551  67.630  1.00  0.00     1.616 C  
HETATM   20  C   UNL     1     -12.850  17.593  68.521  1.00  0.00     6.449 C  
HETATM   21  C   UNL     1     -12.444  18.996  68.108  1.00  0.00     5.564 C  
HETATM   22  C   UNL     1     -10.946  19.160  68.197  1.00  0.00     0.183 C  
HETATM   23  O   UNL     1     -10.431  20.221  68.533  1.00  0.00    -0.325 OA 
ENDBRANCH  12  13
ENDBRANCH  11  12
ENDBRANCH   8  11
ENDBRANCH   7   8
ENDBRANCH   5   7
TORSDOF 5
ENDMDL
MODEL      324
REMARK 921   NORMALIZED FREE ENERGY PREDICTED BY IDOCK:   30.53 KCAL/MOL
REMARK 922        TOTAL FREE ENERGY PREDICTED BY IDOCK:   38.73 KCAL/MOL
REMARK 923 INTER-LIGAND FREE ENERGY PREDICTED BY IDOCK:   29.03 KCAL/MOL
REMARK 924 INTRA-LIGAND FREE ENERGY PREDICTED BY IDOCK:    9.70 KCAL/MOL
REMARK 927      BINDING AFFINITY PREDICTED BY RF-SCORE:    0.00 PKD
ROOT
HETATM    1  C   UNL     1     -11.521  12.523  66.912  1.00  0.00    -0.416 C  
HETATM    2  C   UNL     1     -12.538  11.950  67.915  1.00  0.00     1.721 C  
HETATM    3  C   UNL     1     -12.987  10.566  67.400  1.00  0.00     8.050 C  
HETATM    4  C   UNL     1     -13.775  12.856  67.998  1.00  0.00     8.628 C  
HETATM    5  N   UNL     1     -11.930  11.732  69.246  1.00  0.00    -0.307 NA 
HETATM    6  H   UNL     1     -11.194  11.029  69.186  1.00  0.00     0.000 HD 
ENDROOT
BRANCH   5   7
HETATM    7  C   UNL     1     -11.420  12.943  69.906  1.00  0.00    -0.077 C  
BRANCH   7   8
HETATM    8  C   UNL     1     -11.328  14.184  68.992  1.00  0.00    -0.275 C  
HETATM    9  O   UNL     1     -11.245  13.732  67.632  1.00  0.00    -0.275 OA 
HETATM   10  H   UNL     1     -11.188  14.496  67.070  1.00  0.00     0.000 HD 
BRANCH   8  11
HETATM   11  C   UNL     1     -10.100  15.042  69.308  1.00  0.00    -0.233 C  
BRANCH  11  12
HETATM   12  O   UNL     1     -10.190  16.269  68.567  1.00  0.00    -0.229 OA 
BRANCH  12  13
HETATM   13  C   UNL     1     -10.044  17.398  69.337  1.00  0.00    -0.075 A  
HETATM   14  C   UNL     1      -9.412  18.559  68.868  1.00  0.00    -0.277 A  
HETATM   15  C   UNL     1      -9.236  19.656  69.707  1.00  0.00     0.481 A  
HETATM   16  C   UNL     1      -9.728  19.614  71.008  1.00  0.00     2.024 A  
HETATM   17  C   UNL     1     -10.415  18.482  71.462  1.00  0.00     3.294 A  
HETATM   18  C   UNL     1     -10.574  17.354  70.637  1.00  0.00     1.353 A  
HETATM   19  C   UNL     1     -11.332  16.137  71.115  1.00  0.00    -0.368 C  
HETATM   20  C   UNL     1     -11.426  16.064  72.635  1.00  0.00    -0.156 C  
HETATM   21  C   UNL     1     -11.924  17.377  73.210  1.00  0.00     0.851 C  
HETATM   22  C   UNL     1     -10.995  18.505  72.829  1.00  0.00     3.096 C  
HETATM   23  O   UNL     1     -10.775  19.444  73.588  1.00  0.00     2.219 OA 
ENDBRANCH  12  13
ENDBRANCH  11  12
ENDBRANCH   8  11
ENDBRANCH   7   8
ENDBRANCH   5   7
TORSDOF 5
ENDMDL
MODEL      325
REMARK 921   NORMALIZED FREE ENERGY PREDICTED BY IDOCK:   51.02 KCAL/MOL
REMARK 922        TOTAL FREE ENERGY PREDICTED BY IDOCK:   65.20 KCAL/MOL
REMARK 923 INTER-LIGAND FREE ENERGY PREDICTED BY IDOCK:   29.36 KCAL/MOL
REMARK 924 INTRA-LIGAND FREE ENERGY PREDICTED BY IDOCK:   35.84 KCAL/MOL
REMARK 927      BINDING AFFINITY PREDICTED BY RF-SCORE:    0.00 PKD
ROOT
HETATM    1  C   UNL     1     -12.129  13.023  64.990  1.00  0.00    -0.470 C  
HETATM    2  C   UNL     1     -12.836  11.916  65.791  1.00  0.00     2.542 C  
HETATM    3  C   UNL     1     -13.488  12.566  67.029  1.00  0.00     6.416 C  
HETATM    4  C   UNL     1     -11.817  10.874  66.276  1.00  0.00     1.406 C  
HETATM    5  N   UNL     1     -13.928  11.291  65.014  1.00  0.00     5.362 NA 
HETATM    6  H   UNL     1     -14.655  11.977  64.814  1.00  0.00     0.000 HD 
ENDROOT
BRANCH   5   7
HETATM    7  C   UNL     1     -13.509  10.623  63.772  1.00  0.00     5.707 C  
BRANCH   7   8
HETATM    8  C   UNL     1     -11.981  10.510  63.586  1.00  0.00     3.516 C  
HETATM    9  O   UNL     1     -11.549   9.273  64.174  1.00  0.00     7.278 OA 
HETATM   10  H   UNL     1     -10.609   9.204  64.059  1.00  0.00     0.000 HD 
BRANCH   8  11
HETATM   11  C   UNL     1     -11.233  11.667  64.254  1.00  0.00    -0.319 C  
BRANCH  11  12
HETATM   12  O   UNL     1     -11.509  11.646  65.663  1.00  0.00    -0.246 OA 
BRANCH  12  13
HETATM   13  C   UNL     1     -10.409  11.883  66.451  1.00  0.00    -0.219 A  
HETATM   14  C   UNL     1     -10.380  12.885  67.431  1.00  0.00    -0.233 A  
HETATM   15  C   UNL     1      -9.221  13.127  68.163  1.00  0.00    -0.215 A  
HETATM   16  C   UNL     1      -8.095  12.338  67.948  1.00  0.00    -0.155 A  
HETATM   17  C   UNL     1      -8.137  11.294  67.016  1.00  0.00    -0.149 A  
HETATM   18  C   UNL     1      -9.291  11.058  66.246  1.00  0.00    -0.206 A  
HETATM   19  C   UNL     1      -9.348   9.921  65.253  1.00  0.00    -0.309 C  
HETATM   20  C   UNL     1      -7.964   9.443  64.827  1.00  0.00    -0.122 C  
HETATM   21  C   UNL     1      -7.089   9.173  66.038  1.00  0.00    -0.090 C  
HETATM   22  C   UNL     1      -6.942  10.424  66.871  1.00  0.00    -0.093 C  
HETATM   23  O   UNL     1      -5.900  10.685  67.465  1.00  0.00    -0.044 OA 
ENDBRANCH  12  13
ENDBRANCH  11  12
ENDBRANCH   8  11
ENDBRANCH   7   8
ENDBRANCH   5   7
TORSDOF 5
ENDMDL
