MODEL        1
REMARK 921   NORMALIZED FREE ENERGY PREDICTED BY IDOCK:   -6.17 KCAL/MOL
REMARK 922        TOTAL FREE ENERGY PREDICTED BY IDOCK:   -8.32 KCAL/MOL
REMARK 923 INTER-LIGAND FREE ENERGY PREDICTED BY IDOCK:   -7.61 KCAL/MOL
REMARK 924 INTRA-LIGAND FREE ENERGY PREDICTED BY IDOCK:   -0.71 KCAL/MOL
REMARK 927      BINDING AFFINITY PREDICTED BY RF-SCORE:    0.00 PKD
ROOT
HETATM    1  C   UNL     1     -13.481  13.272  72.568  1.00  0.00    -0.620 C  
HETATM    2  C   UNL     1     -12.673  14.421  71.943  1.00  0.00    -0.349 C  
HETATM    3  N   UNL     1     -11.729  13.920  70.922  1.00  0.00    -0.508 NA 
HETATM    4  C   UNL     1     -13.617  15.501  71.396  1.00  0.00    -0.561 C  
HETATM    5  C   UNL     1     -11.803  15.057  73.047  1.00  0.00    -0.366 C  
HETATM    6  H   UNL     1     -10.720  14.030  71.019  1.00  0.00     0.000 HD 
ENDROOT
BRANCH   3   7
HETATM    7  C   UNL     1     -12.332  13.251  69.754  1.00  0.00    -0.128 C  
BRANCH   7   8
HETATM    8  C   UNL     1     -11.550  12.009  69.224  1.00  0.00    -0.321 C  
HETATM    9  H   UNL     1     -11.639  10.920  67.624  1.00  0.00     0.000 HD 
HETATM   10  O   UNL     1     -12.115  11.676  67.947  1.00  0.00    -0.613 OA 
BRANCH   8  11
HETATM   11  C   UNL     1     -11.536  10.794  70.146  1.00  0.00    -0.424 A  
HETATM   12  C   UNL     1     -12.736  10.323  70.709  1.00  0.00    -0.434 A  
HETATM   13  C   UNL     1     -12.784   9.186  71.536  1.00  0.00    -0.409 A  
HETATM   14  C   UNL     1     -11.573   8.588  71.896  1.00  0.00    -0.341 A  
HETATM   15  H   UNL     1     -10.689   7.119  72.997  1.00  0.00     0.000 HD 
HETATM   16  C   UNL     1     -10.367   9.055  71.391  1.00  0.00    -0.396 A  
HETATM   17  O   UNL     1     -11.512   7.525  72.752  1.00  0.00    -0.334 OA 
HETATM   18  C   UNL     1     -10.349  10.132  70.499  1.00  0.00    -0.108 A  
BRANCH  13  19
HETATM   19  C   UNL     1     -14.122   8.705  72.031  1.00  0.00    -0.453 C  
HETATM   20  O   UNL     1     -14.214   8.845  73.447  1.00  0.00    -1.241 OA 
HETATM   21  H   UNL     1     -15.058   8.541  73.760  1.00  0.00     0.000 HD 
ENDBRANCH  13  19
ENDBRANCH   8  11
ENDBRANCH   7   8
ENDBRANCH   3   7
TORSDOF 4
ENDMDL
MODEL        2
REMARK 921   NORMALIZED FREE ENERGY PREDICTED BY IDOCK:   -6.00 KCAL/MOL
REMARK 922        TOTAL FREE ENERGY PREDICTED BY IDOCK:   -8.11 KCAL/MOL
REMARK 923 INTER-LIGAND FREE ENERGY PREDICTED BY IDOCK:   -7.36 KCAL/MOL
REMARK 924 INTRA-LIGAND FREE ENERGY PREDICTED BY IDOCK:   -0.75 KCAL/MOL
REMARK 927      BINDING AFFINITY PREDICTED BY RF-SCORE:    0.00 PKD
ROOT
HETATM    1  C   UNL     1     -10.104  14.755  65.574  1.00  0.00    -0.409 C  
HETATM    2  C   UNL     1     -10.891  13.440  65.449  1.00  0.00    -0.294 C  
HETATM    3  N   UNL     1     -10.214  12.339  66.166  1.00  0.00    -0.234 NA 
HETATM    4  C   UNL     1     -12.341  13.641  65.911  1.00  0.00    -0.516 C  
HETATM    5  C   UNL     1     -10.912  13.027  63.963  1.00  0.00    -0.422 C  
HETATM    6  H   UNL     1      -9.872  11.510  65.681  1.00  0.00     0.000 HD 
ENDROOT
BRANCH   3   7
HETATM    7  C   UNL     1     -10.061  12.510  67.622  1.00  0.00    -0.217 C  
BRANCH   7   8
HETATM    8  C   UNL     1     -10.767  11.426  68.495  1.00  0.00    -0.201 C  
HETATM    9  H   UNL     1     -11.969   9.950  68.133  1.00  0.00     0.000 HD 
HETATM   10  O   UNL     1     -11.539  10.610  67.602  1.00  0.00    -0.492 OA 
BRANCH   8  11
HETATM   11  C   UNL     1     -11.633  11.955  69.635  1.00  0.00    -0.387 A  
HETATM   12  C   UNL     1     -11.837  13.339  69.779  1.00  0.00    -0.394 A  
HETATM   13  C   UNL     1     -12.655  13.877  70.789  1.00  0.00    -0.424 A  
HETATM   14  C   UNL     1     -13.177  12.999  71.744  1.00  0.00    -0.392 A  
HETATM   15  H   UNL     1     -14.276  12.840  73.452  1.00  0.00     0.000 HD 
HETATM   16  C   UNL     1     -12.958  11.632  71.654  1.00  0.00    -0.483 A  
HETATM   17  O   UNL     1     -13.922  13.436  72.804  1.00  0.00    -0.724 OA 
HETATM   18  C   UNL     1     -12.216  11.108  70.590  1.00  0.00    -0.492 A  
BRANCH  13  19
HETATM   19  C   UNL     1     -12.883  15.365  70.822  1.00  0.00    -0.466 C  
HETATM   20  O   UNL     1     -14.278  15.660  70.804  1.00  0.00    -0.809 OA 
HETATM   21  H   UNL     1     -14.422  16.599  70.825  1.00  0.00     0.000 HD 
ENDBRANCH  13  19
ENDBRANCH   8  11
ENDBRANCH   7   8
ENDBRANCH   3   7
TORSDOF 4
ENDMDL
MODEL        3
REMARK 921   NORMALIZED FREE ENERGY PREDICTED BY IDOCK:   -5.75 KCAL/MOL
REMARK 922        TOTAL FREE ENERGY PREDICTED BY IDOCK:   -7.81 KCAL/MOL
REMARK 923 INTER-LIGAND FREE ENERGY PREDICTED BY IDOCK:   -7.49 KCAL/MOL
REMARK 924 INTRA-LIGAND FREE ENERGY PREDICTED BY IDOCK:   -0.32 KCAL/MOL
REMARK 927      BINDING AFFINITY PREDICTED BY RF-SCORE:    0.00 PKD
ROOT
HETATM    1  C   UNL     1     -14.159  15.219  71.219  1.00  0.00    -0.527 C  
HETATM    2  C   UNL     1     -13.063  14.404  71.924  1.00  0.00    -0.355 C  
HETATM    3  N   UNL     1     -11.905  14.179  71.035  1.00  0.00    -0.495 NA 
HETATM    4  C   UNL     1     -12.670  15.073  73.249  1.00  0.00    -0.635 C  
HETATM    5  C   UNL     1     -13.630  13.005  72.242  1.00  0.00    -0.643 C  
HETATM    6  H   UNL     1     -11.615  13.243  70.752  1.00  0.00     0.000 HD 
ENDROOT
BRANCH   3   7
HETATM    7  C   UNL     1     -11.193  15.387  70.580  1.00  0.00    -0.333 C  
BRANCH   7   8
HETATM    8  C   UNL     1     -10.154  15.155  69.438  1.00  0.00    -0.240 C  
HETATM    9  H   UNL     1      -8.764  16.226  68.618  1.00  0.00     0.000 HD 
HETATM   10  O   UNL     1      -9.396  16.368  69.312  1.00  0.00    -0.249 OA 
BRANCH   8  11
HETATM   11  C   UNL     1     -10.734  14.733  68.092  1.00  0.00    -0.247 A  
HETATM   12  C   UNL     1     -10.653  15.601  66.988  1.00  0.00    -0.311 A  
HETATM   13  C   UNL     1     -11.139  15.247  65.716  1.00  0.00    -0.301 A  
HETATM   14  C   UNL     1     -11.829  14.037  65.593  1.00  0.00    -0.377 A  
HETATM   15  H   UNL     1     -12.868  12.819  64.333  1.00  0.00     0.000 HD 
HETATM   16  C   UNL     1     -11.962  13.178  66.674  1.00  0.00    -0.451 A  
HETATM   17  O   UNL     1     -12.400  13.641  64.416  1.00  0.00    -0.527 OA 
HETATM   18  C   UNL     1     -11.394  13.508  67.909  1.00  0.00    -0.320 A  
BRANCH  13  19
HETATM   19  C   UNL     1     -10.940  16.205  64.572  1.00  0.00    -0.123 C  
HETATM   20  O   UNL     1     -12.080  16.207  63.714  1.00  0.00    -1.355 OA 
HETATM   21  H   UNL     1     -11.955  16.811  62.992  1.00  0.00     0.000 HD 
ENDBRANCH  13  19
ENDBRANCH   8  11
ENDBRANCH   7   8
ENDBRANCH   3   7
TORSDOF 4
ENDMDL
MODEL        4
REMARK 921   NORMALIZED FREE ENERGY PREDICTED BY IDOCK:   -5.72 KCAL/MOL
REMARK 922        TOTAL FREE ENERGY PREDICTED BY IDOCK:   -7.77 KCAL/MOL
REMARK 923 INTER-LIGAND FREE ENERGY PREDICTED BY IDOCK:   -7.46 KCAL/MOL
REMARK 924 INTRA-LIGAND FREE ENERGY PREDICTED BY IDOCK:   -0.31 KCAL/MOL
REMARK 927      BINDING AFFINITY PREDICTED BY RF-SCORE:    0.00 PKD
ROOT
HETATM    1  C   UNL     1      -9.921  18.534  68.612  1.00  0.00    -0.419 C  
HETATM    2  C   UNL     1      -9.288  18.963  67.278  1.00  0.00    -0.293 C  
HETATM    3  N   UNL     1      -9.349  17.874  66.281  1.00  0.00    -0.446 NA 
HETATM    4  C   UNL     1      -9.934  20.262  66.774  1.00  0.00    -0.587 C  
HETATM    5  C   UNL     1      -7.789  19.233  67.518  1.00  0.00    -0.284 C  
HETATM    6  H   UNL     1      -8.506  17.457  65.885  1.00  0.00     0.000 HD 
ENDROOT
BRANCH   3   7
HETATM    7  C   UNL     1     -10.699  17.426  65.890  1.00  0.00    -0.123 C  
BRANCH   7   8
HETATM    8  C   UNL     1     -10.737  16.239  64.879  1.00  0.00    -0.234 C  
HETATM    9  H   UNL     1     -11.757  15.837  63.282  1.00  0.00     0.000 HD 
HETATM   10  O   UNL     1     -11.734  16.560  63.897  1.00  0.00    -1.148 OA 
BRANCH   8  11
HETATM   11  C   UNL     1     -10.993  14.862  65.485  1.00  0.00    -0.355 A  
HETATM   12  C   UNL     1     -10.827  13.706  64.701  1.00  0.00    -0.416 A  
HETATM   13  C   UNL     1     -11.015  12.412  65.220  1.00  0.00    -0.335 A  
HETATM   14  C   UNL     1     -11.498  12.296  66.527  1.00  0.00    -0.381 A  
HETATM   15  H   UNL     1     -12.108  11.006  67.982  1.00  0.00     0.000 HD 
HETATM   16  C   UNL     1     -11.711  13.420  67.313  1.00  0.00    -0.424 A  
HETATM   17  O   UNL     1     -11.780  11.085  67.094  1.00  0.00    -0.456 OA 
HETATM   18  C   UNL     1     -11.434  14.694  66.807  1.00  0.00    -0.371 A  
BRANCH  13  19
HETATM   19  C   UNL     1     -10.739  11.228  64.333  1.00  0.00    -0.339 C  
HETATM   20  O   UNL     1     -11.558  11.273  63.166  1.00  0.00    -0.847 OA 
HETATM   21  H   UNL     1     -11.384  10.525  62.605  1.00  0.00     0.000 HD 
ENDBRANCH  13  19
ENDBRANCH   8  11
ENDBRANCH   7   8
ENDBRANCH   3   7
TORSDOF 4
ENDMDL
MODEL        5
REMARK 921   NORMALIZED FREE ENERGY PREDICTED BY IDOCK:   -5.68 KCAL/MOL
REMARK 922        TOTAL FREE ENERGY PREDICTED BY IDOCK:   -7.71 KCAL/MOL
REMARK 923 INTER-LIGAND FREE ENERGY PREDICTED BY IDOCK:   -7.29 KCAL/MOL
REMARK 924 INTRA-LIGAND FREE ENERGY PREDICTED BY IDOCK:   -0.42 KCAL/MOL
REMARK 927      BINDING AFFINITY PREDICTED BY RF-SCORE:    0.00 PKD
ROOT
HETATM    1  C   UNL     1     -10.305  11.079  64.623  1.00  0.00    -0.410 C  
HETATM    2  C   UNL     1     -11.283  12.226  64.926  1.00  0.00    -0.319 C  
HETATM    3  N   UNL     1     -11.962  12.023  66.223  1.00  0.00    -0.574 NA 
HETATM    4  C   UNL     1     -10.561  13.578  64.843  1.00  0.00    -0.409 C  
HETATM    5  C   UNL     1     -12.396  12.208  63.858  1.00  0.00    -0.587 C  
HETATM    6  H   UNL     1     -12.974  11.911  66.290  1.00  0.00     0.000 HD 
ENDROOT
BRANCH   3   7
HETATM    7  C   UNL     1     -11.093  11.991  67.413  1.00  0.00    -0.281 C  
BRANCH   7   8
HETATM    8  C   UNL     1     -11.821  12.225  68.773  1.00  0.00    -0.306 C  
HETATM    9  H   UNL     1     -11.738  13.583  70.152  1.00  0.00     0.000 HD 
HETATM   10  O   UNL     1     -11.294  13.441  69.324  1.00  0.00    -0.261 OA 
BRANCH   8  11
HETATM   11  C   UNL     1     -11.722  11.083  69.781  1.00  0.00    -0.410 A  
HETATM   12  C   UNL     1     -12.864  10.669  70.490  1.00  0.00    -0.356 A  
HETATM   13  C   UNL     1     -12.836   9.599  71.403  1.00  0.00    -0.471 A  
HETATM   14  C   UNL     1     -11.597   9.018  71.689  1.00  0.00    -0.356 A  
HETATM   15  H   UNL     1     -10.616   7.627  72.810  1.00  0.00     0.000 HD 
HETATM   16  C   UNL     1     -10.444   9.432  71.037  1.00  0.00    -0.392 A  
HETATM   17  O   UNL     1     -11.458   8.022  72.615  1.00  0.00    -0.381 OA 
HETATM   18  C   UNL     1     -10.509  10.438  70.068  1.00  0.00    -0.235 A  
BRANCH  13  19
HETATM   19  C   UNL     1     -14.121   9.171  72.058  1.00  0.00    -0.312 C  
HETATM   20  O   UNL     1     -13.915   8.907  73.445  1.00  0.00    -1.236 OA 
HETATM   21  H   UNL     1     -14.726   8.637  73.859  1.00  0.00     0.000 HD 
ENDBRANCH  13  19
ENDBRANCH   8  11
ENDBRANCH   7   8
ENDBRANCH   3   7
TORSDOF 4
ENDMDL
MODEL        6
REMARK 921   NORMALIZED FREE ENERGY PREDICTED BY IDOCK:   -5.67 KCAL/MOL
REMARK 922        TOTAL FREE ENERGY PREDICTED BY IDOCK:   -7.71 KCAL/MOL
REMARK 923 INTER-LIGAND FREE ENERGY PREDICTED BY IDOCK:   -7.26 KCAL/MOL
REMARK 924 INTRA-LIGAND FREE ENERGY PREDICTED BY IDOCK:   -0.45 KCAL/MOL
REMARK 927      BINDING AFFINITY PREDICTED BY RF-SCORE:    0.00 PKD
ROOT
HETATM    1  C   UNL     1     -11.933  14.933  72.577  1.00  0.00    -0.364 C  
HETATM    2  C   UNL     1     -13.133  14.434  71.756  1.00  0.00    -0.354 C  
HETATM    3  N   UNL     1     -12.893  14.589  70.306  1.00  0.00    -0.530 NA 
HETATM    4  C   UNL     1     -13.483  12.991  72.145  1.00  0.00    -0.638 C  
HETATM    5  C   UNL     1     -14.348  15.328  72.082  1.00  0.00    -0.651 C  
HETATM    6  H   UNL     1     -13.478  15.188  69.723  1.00  0.00     0.000 HD 
ENDROOT
BRANCH   3   7
HETATM    7  C   UNL     1     -11.759  13.828  69.751  1.00  0.00    -0.302 C  
BRANCH   7   8
HETATM    8  C   UNL     1     -12.151  12.584  68.893  1.00  0.00    -0.122 C  
HETATM    9  H   UNL     1     -11.966  10.667  69.102  1.00  0.00     0.000 HD 
HETATM   10  O   UNL     1     -11.727  11.424  69.624  1.00  0.00    -0.285 OA 
BRANCH   8  11
HETATM   11  C   UNL     1     -11.601  12.562  67.470  1.00  0.00    -0.424 A  
HETATM   12  C   UNL     1     -12.091  13.468  66.512  1.00  0.00    -0.460 A  
HETATM   13  C   UNL     1     -11.593  13.515  65.197  1.00  0.00    -0.333 A  
HETATM   14  C   UNL     1     -10.664  12.542  64.815  1.00  0.00    -0.302 A  
HETATM   15  H   UNL     1      -9.546  11.800  63.281  1.00  0.00     0.000 HD 
HETATM   16  C   UNL     1     -10.191  11.608  65.726  1.00  0.00    -0.281 A  
HETATM   17  O   UNL     1     -10.178  12.461  63.540  1.00  0.00    -0.414 OA 
HETATM   18  C   UNL     1     -10.633  11.635  67.053  1.00  0.00    -0.272 A  
BRANCH  13  19
HETATM   19  C   UNL     1     -12.119  14.568  64.260  1.00  0.00    -0.425 C  
HETATM   20  O   UNL     1     -12.403  14.006  62.980  1.00  0.00    -1.101 OA 
HETATM   21  H   UNL     1     -12.736  14.670  62.388  1.00  0.00     0.000 HD 
ENDBRANCH  13  19
ENDBRANCH   8  11
ENDBRANCH   7   8
ENDBRANCH   3   7
TORSDOF 4
ENDMDL
MODEL        7
REMARK 921   NORMALIZED FREE ENERGY PREDICTED BY IDOCK:   -5.65 KCAL/MOL
REMARK 922        TOTAL FREE ENERGY PREDICTED BY IDOCK:   -7.68 KCAL/MOL
REMARK 923 INTER-LIGAND FREE ENERGY PREDICTED BY IDOCK:   -7.17 KCAL/MOL
REMARK 924 INTRA-LIGAND FREE ENERGY PREDICTED BY IDOCK:   -0.51 KCAL/MOL
REMARK 927      BINDING AFFINITY PREDICTED BY RF-SCORE:    0.00 PKD
ROOT
HETATM    1  C   UNL     1      -8.527  18.712  66.690  1.00  0.00    -0.301 C  
HETATM    2  C   UNL     1      -9.935  19.167  67.106  1.00  0.00    -0.356 C  
HETATM    3  N   UNL     1     -10.746  18.029  67.586  1.00  0.00    -0.398 NA 
HETATM    4  C   UNL     1      -9.846  20.305  68.133  1.00  0.00    -0.403 C  
HETATM    5  C   UNL     1     -10.660  19.705  65.855  1.00  0.00    -0.566 C  
HETATM    6  H   UNL     1     -11.604  17.742  67.116  1.00  0.00     0.000 HD 
ENDROOT
BRANCH   3   7
HETATM    7  C   UNL     1     -10.243  17.334  68.786  1.00  0.00    -0.353 C  
BRANCH   7   8
HETATM    8  C   UNL     1     -10.412  15.783  68.774  1.00  0.00    -0.228 C  
HETATM    9  H   UNL     1     -11.044  14.487  67.479  1.00  0.00     0.000 HD 
HETATM   10  O   UNL     1     -10.941  15.432  67.486  1.00  0.00    -0.304 OA 
BRANCH   8  11
HETATM   11  C   UNL     1     -11.272  15.203  69.892  1.00  0.00    -0.305 A  
HETATM   12  C   UNL     1     -11.406  15.896  71.109  1.00  0.00    -0.435 A  
HETATM   13  C   UNL     1     -12.215  15.424  72.159  1.00  0.00    -0.465 A  
HETATM   14  C   UNL     1     -12.803  14.164  72.014  1.00  0.00    -0.338 A  
HETATM   15  H   UNL     1     -13.946  12.734  72.910  1.00  0.00     0.000 HD 
HETATM   16  C   UNL     1     -12.656  13.436  70.842  1.00  0.00    -0.406 A  
HETATM   17  O   UNL     1     -13.546  13.590  73.008  1.00  0.00    -0.533 OA 
HETATM   18  C   UNL     1     -11.920  13.963  69.776  1.00  0.00    -0.398 A  
BRANCH  13  19
HETATM   19  C   UNL     1     -12.364  16.269  73.395  1.00  0.00    -0.530 C  
HETATM   20  O   UNL     1     -13.720  16.281  73.836  1.00  0.00    -0.850 OA 
HETATM   21  H   UNL     1     -13.814  16.814  74.617  1.00  0.00     0.000 HD 
ENDBRANCH  13  19
ENDBRANCH   8  11
ENDBRANCH   7   8
ENDBRANCH   3   7
TORSDOF 4
ENDMDL
MODEL        8
REMARK 921   NORMALIZED FREE ENERGY PREDICTED BY IDOCK:   -5.63 KCAL/MOL
REMARK 922        TOTAL FREE ENERGY PREDICTED BY IDOCK:   -7.66 KCAL/MOL
REMARK 923 INTER-LIGAND FREE ENERGY PREDICTED BY IDOCK:   -7.22 KCAL/MOL
REMARK 924 INTRA-LIGAND FREE ENERGY PREDICTED BY IDOCK:   -0.43 KCAL/MOL
REMARK 927      BINDING AFFINITY PREDICTED BY RF-SCORE:    0.00 PKD
ROOT
HETATM    1  C   UNL     1     -12.111  12.407  65.822  1.00  0.00    -0.381 C  
HETATM    2  C   UNL     1     -11.564  12.476  64.386  1.00  0.00    -0.358 C  
HETATM    3  N   UNL     1     -11.404  13.875  63.940  1.00  0.00    -0.564 NA 
HETATM    4  C   UNL     1     -10.264  11.666  64.271  1.00  0.00    -0.357 C  
HETATM    5  C   UNL     1     -12.607  11.847  63.440  1.00  0.00    -0.555 C  
HETATM    6  H   UNL     1     -11.922  14.251  63.146  1.00  0.00     0.000 HD 
ENDROOT
BRANCH   3   7
HETATM    7  C   UNL     1     -10.450  14.696  64.709  1.00  0.00    -0.313 C  
BRANCH   7   8
HETATM    8  C   UNL     1     -10.991  16.086  65.169  1.00  0.00    -0.348 C  
HETATM    9  H   UNL     1     -11.669  17.656  64.260  1.00  0.00     0.000 HD 
HETATM   10  O   UNL     1     -11.340  16.811  63.980  1.00  0.00    -1.153 OA 
BRANCH   8  11
HETATM   11  C   UNL     1     -10.049  16.904  66.048  1.00  0.00    -0.336 A  
HETATM   12  C   UNL     1     -10.504  18.089  66.653  1.00  0.00    -0.332 A  
HETATM   13  C   UNL     1      -9.689  18.862  67.501  1.00  0.00    -0.360 A  
HETATM   14  C   UNL     1      -8.350  18.485  67.640  1.00  0.00    -0.255 A  
HETATM   15  H   UNL     1      -6.553  18.957  68.479  1.00  0.00     0.000 HD 
HETATM   16  C   UNL     1      -7.860  17.343  67.023  1.00  0.00    -0.238 A  
HETATM   17  O   UNL     1      -7.463  19.213  68.384  1.00  0.00    -0.281 OA 
HETATM   18  C   UNL     1      -8.710  16.540  66.255  1.00  0.00    -0.369 A  
BRANCH  13  19
HETATM   19  C   UNL     1     -10.281  20.073  68.169  1.00  0.00    -0.396 C  
HETATM   20  O   UNL     1     -10.314  19.901  69.585  1.00  0.00    -0.627 OA 
HETATM   21  H   UNL     1     -10.687  20.666  70.007  1.00  0.00     0.000 HD 
ENDBRANCH  13  19
ENDBRANCH   8  11
ENDBRANCH   7   8
ENDBRANCH   3   7
TORSDOF 4
ENDMDL
MODEL        9
REMARK 921   NORMALIZED FREE ENERGY PREDICTED BY IDOCK:   -5.60 KCAL/MOL
REMARK 922        TOTAL FREE ENERGY PREDICTED BY IDOCK:   -7.62 KCAL/MOL
REMARK 923 INTER-LIGAND FREE ENERGY PREDICTED BY IDOCK:   -7.17 KCAL/MOL
REMARK 924 INTRA-LIGAND FREE ENERGY PREDICTED BY IDOCK:   -0.45 KCAL/MOL
REMARK 927      BINDING AFFINITY PREDICTED BY RF-SCORE:    0.00 PKD
ROOT
HETATM    1  C   UNL     1      -9.330  17.859  68.730  1.00  0.00    -0.234 C  
HETATM    2  C   UNL     1      -9.097  18.827  67.559  1.00  0.00    -0.276 C  
HETATM    3  N   UNL     1      -9.279  18.149  66.258  1.00  0.00    -0.463 NA 
HETATM    4  C   UNL     1      -9.988  20.069  67.708  1.00  0.00    -0.560 C  
HETATM    5  C   UNL     1      -7.625  19.285  67.595  1.00  0.00    -0.275 C  
HETATM    6  H   UNL     1      -8.519  18.062  65.585  1.00  0.00     0.000 HD 
ENDROOT
BRANCH   3   7
HETATM    7  C   UNL     1     -10.624  17.607  65.992  1.00  0.00    -0.220 C  
BRANCH   7   8
HETATM    8  C   UNL     1     -10.663  16.353  65.065  1.00  0.00    -0.259 C  
HETATM    9  H   UNL     1     -11.599  15.888  63.433  1.00  0.00     0.000 HD 
HETATM   10  O   UNL     1     -11.575  16.651  63.998  1.00  0.00    -1.197 OA 
BRANCH   8  11
HETATM   11  C   UNL     1     -11.033  15.038  65.746  1.00  0.00    -0.351 A  
HETATM   12  C   UNL     1     -11.343  15.019  67.118  1.00  0.00    -0.323 A  
HETATM   13  C   UNL     1     -11.725  13.842  67.787  1.00  0.00    -0.401 A  
HETATM   14  C   UNL     1     -11.675  12.640  67.074  1.00  0.00    -0.369 A  
HETATM   15  H   UNL     1     -11.923  10.620  67.172  1.00  0.00     0.000 HD 
HETATM   16  C   UNL     1     -11.333  12.620  65.729  1.00  0.00    -0.370 A  
HETATM   17  O   UNL     1     -11.958  11.437  67.657  1.00  0.00    -0.630 OA 
HETATM   18  C   UNL     1     -11.042  13.814  65.060  1.00  0.00    -0.348 A  
BRANCH  13  19
HETATM   19  C   UNL     1     -12.116  13.927  69.237  1.00  0.00    -0.339 C  
HETATM   20  O   UNL     1     -12.479  15.263  69.583  1.00  0.00    -0.553 OA 
HETATM   21  H   UNL     1     -12.726  15.317  70.499  1.00  0.00     0.000 HD 
ENDBRANCH  13  19
ENDBRANCH   8  11
ENDBRANCH   7   8
ENDBRANCH   3   7
TORSDOF 4
ENDMDL
MODEL       10
REMARK 921   NORMALIZED FREE ENERGY PREDICTED BY IDOCK:   -5.51 KCAL/MOL
REMARK 922        TOTAL FREE ENERGY PREDICTED BY IDOCK:   -7.51 KCAL/MOL
REMARK 923 INTER-LIGAND FREE ENERGY PREDICTED BY IDOCK:   -7.35 KCAL/MOL
REMARK 924 INTRA-LIGAND FREE ENERGY PREDICTED BY IDOCK:   -0.15 KCAL/MOL
REMARK 927      BINDING AFFINITY PREDICTED BY RF-SCORE:    0.00 PKD
ROOT
HETATM    1  C   UNL     1     -10.621   8.217  69.441  1.00  0.00    -0.206 C  
HETATM    2  C   UNL     1     -10.316   9.303  70.485  1.00  0.00    -0.254 C  
HETATM    3  N   UNL     1      -9.971  10.586  69.839  1.00  0.00    -0.424 NA 
HETATM    4  C   UNL     1     -11.482   9.435  71.475  1.00  0.00    -0.467 C  
HETATM    5  C   UNL     1      -9.061   8.876  71.275  1.00  0.00    -0.323 C  
HETATM    6  H   UNL     1      -9.058  11.024  69.961  1.00  0.00     0.000 HD 
ENDROOT
BRANCH   3   7
HETATM    7  C   UNL     1     -11.024  11.198  69.008  1.00  0.00    -0.235 C  
BRANCH   7   8
HETATM    8  C   UNL     1     -10.783  12.691  68.624  1.00  0.00    -0.242 C  
HETATM    9  H   UNL     1     -11.342  14.397  69.353  1.00  0.00     0.000 HD 
HETATM   10  O   UNL     1     -11.489  13.488  69.587  1.00  0.00    -0.264 OA 
BRANCH   8  11
HETATM   11  C   UNL     1     -11.177  13.080  67.202  1.00  0.00    -0.322 A  
HETATM   12  C   UNL     1     -10.904  14.375  66.725  1.00  0.00    -0.301 A  
HETATM   13  C   UNL     1     -11.213  14.774  65.412  1.00  0.00    -0.347 A  
HETATM   14  C   UNL     1     -11.922  13.878  64.607  1.00  0.00    -0.419 A  
HETATM   15  H   UNL     1     -12.811  13.592  62.796  1.00  0.00     0.000 HD 
HETATM   16  C   UNL     1     -12.242  12.607  65.062  1.00  0.00    -0.535 A  
HETATM   17  O   UNL     1     -12.330  14.202  63.343  1.00  0.00    -0.714 OA 
HETATM   18  C   UNL     1     -11.848  12.199  66.341  1.00  0.00    -0.321 A  
BRANCH  13  19
HETATM   19  C   UNL     1     -10.814  16.154  64.961  1.00  0.00    -0.363 C  
HETATM   20  O   UNL     1     -11.567  16.545  63.814  1.00  0.00    -1.617 OA 
HETATM   21  H   UNL     1     -11.316  17.415  63.528  1.00  0.00     0.000 HD 
ENDBRANCH  13  19
ENDBRANCH   8  11
ENDBRANCH   7   8
ENDBRANCH   3   7
TORSDOF 4
ENDMDL
MODEL       11
REMARK 921   NORMALIZED FREE ENERGY PREDICTED BY IDOCK:   -5.50 KCAL/MOL
REMARK 922        TOTAL FREE ENERGY PREDICTED BY IDOCK:   -7.50 KCAL/MOL
REMARK 923 INTER-LIGAND FREE ENERGY PREDICTED BY IDOCK:   -7.01 KCAL/MOL
REMARK 924 INTRA-LIGAND FREE ENERGY PREDICTED BY IDOCK:   -0.49 KCAL/MOL
REMARK 927      BINDING AFFINITY PREDICTED BY RF-SCORE:    0.00 PKD
ROOT
HETATM    1  C   UNL     1      -7.925  19.208  66.203  1.00  0.00    -0.291 C  
HETATM    2  C   UNL     1      -9.308  18.665  66.597  1.00  0.00    -0.315 C  
HETATM    3  N   UNL     1      -9.607  17.398  65.898  1.00  0.00    -0.532 NA 
HETATM    4  C   UNL     1      -9.416  18.538  68.123  1.00  0.00    -0.341 C  
HETATM    5  C   UNL     1     -10.376  19.672  66.122  1.00  0.00    -0.627 C  
HETATM    6  H   UNL     1     -10.392  17.309  65.254  1.00  0.00     0.000 HD 
ENDROOT
BRANCH   3   7
HETATM    7  C   UNL     1      -8.702  16.269  66.186  1.00  0.00    -0.318 C  
BRANCH   7   8
HETATM    8  C   UNL     1      -9.337  15.103  67.005  1.00  0.00    -0.230 C  
HETATM    9  H   UNL     1      -8.646  13.540  67.918  1.00  0.00     0.000 HD 
HETATM   10  O   UNL     1      -8.259  14.250  67.420  1.00  0.00    -0.179 OA 
BRANCH   8  11
HETATM   11  C   UNL     1     -10.419  14.302  66.286  1.00  0.00    -0.291 A  
HETATM   12  C   UNL     1     -10.073  13.152  65.553  1.00  0.00    -0.271 A  
HETATM   13  C   UNL     1     -11.034  12.357  64.902  1.00  0.00    -0.341 A  
HETATM   14  C   UNL     1     -12.357  12.808  64.895  1.00  0.00    -0.490 A  
HETATM   15  H   UNL     1     -14.247  12.449  64.222  1.00  0.00     0.000 HD 
HETATM   16  C   UNL     1     -12.724  13.961  65.573  1.00  0.00    -0.536 A  
HETATM   17  O   UNL     1     -13.348  12.143  64.228  1.00  0.00    -0.761 OA 
HETATM   18  C   UNL     1     -11.767  14.689  66.289  1.00  0.00    -0.325 A  
BRANCH  13  19
HETATM   19  C   UNL     1     -10.585  11.100  64.207  1.00  0.00    -0.357 C  
HETATM   20  O   UNL     1     -11.017  11.095  62.848  1.00  0.00    -0.809 OA 
HETATM   21  H   UNL     1     -10.733  10.301  62.409  1.00  0.00     0.000 HD 
ENDBRANCH  13  19
ENDBRANCH   8  11
ENDBRANCH   7   8
ENDBRANCH   3   7
TORSDOF 4
ENDMDL
MODEL       12
REMARK 921   NORMALIZED FREE ENERGY PREDICTED BY IDOCK:   -5.47 KCAL/MOL
REMARK 922        TOTAL FREE ENERGY PREDICTED BY IDOCK:   -7.46 KCAL/MOL
REMARK 923 INTER-LIGAND FREE ENERGY PREDICTED BY IDOCK:   -6.96 KCAL/MOL
REMARK 924 INTRA-LIGAND FREE ENERGY PREDICTED BY IDOCK:   -0.50 KCAL/MOL
REMARK 927      BINDING AFFINITY PREDICTED BY RF-SCORE:    0.00 PKD
ROOT
HETATM    1  C   UNL     1     -12.397  11.997  63.459  1.00  0.00    -0.661 C  
HETATM    2  C   UNL     1     -11.009  12.179  64.096  1.00  0.00    -0.361 C  
HETATM    3  N   UNL     1     -10.702  13.608  64.315  1.00  0.00    -0.577 NA 
HETATM    4  C   UNL     1     -10.900  11.347  65.382  1.00  0.00    -0.292 C  
HETATM    5  C   UNL     1      -9.948  11.666  63.100  1.00  0.00    -0.400 C  
HETATM    6  H   UNL     1      -9.916  14.067  63.856  1.00  0.00     0.000 HD 
ENDROOT
BRANCH   3   7
HETATM    7  C   UNL     1     -11.599  14.330  65.237  1.00  0.00    -0.348 C  
BRANCH   7   8
HETATM    8  C   UNL     1     -10.885  15.084  66.402  1.00  0.00    -0.326 C  
HETATM    9  H   UNL     1      -9.045  15.288  66.973  1.00  0.00     0.000 HD 
HETATM   10  O   UNL     1      -9.479  14.829  66.264  1.00  0.00    -0.283 OA 
BRANCH   8  11
HETATM   11  C   UNL     1     -11.366  14.734  67.808  1.00  0.00    -0.344 A  
HETATM   12  C   UNL     1     -11.466  13.388  68.203  1.00  0.00    -0.339 A  
HETATM   13  C   UNL     1     -11.868  13.012  69.498  1.00  0.00    -0.385 A  
HETATM   14  C   UNL     1     -12.293  14.021  70.369  1.00  0.00    -0.359 A  
HETATM   15  H   UNL     1     -13.059  14.433  72.211  1.00  0.00     0.000 HD 
HETATM   16  C   UNL     1     -12.246  15.356  69.993  1.00  0.00    -0.392 A  
HETATM   17  O   UNL     1     -12.770  13.748  71.620  1.00  0.00    -0.340 OA 
HETATM   18  C   UNL     1     -11.758  15.715  68.733  1.00  0.00    -0.382 A  
BRANCH  13  19
HETATM   19  C   UNL     1     -11.871  11.552  69.861  1.00  0.00    -0.355 C  
HETATM   20  O   UNL     1     -12.312  10.761  68.759  1.00  0.00    -0.812 OA 
HETATM   21  H   UNL     1     -12.314   9.839  68.987  1.00  0.00     0.000 HD 
ENDBRANCH  13  19
ENDBRANCH   8  11
ENDBRANCH   7   8
ENDBRANCH   3   7
TORSDOF 4
ENDMDL
MODEL       13
REMARK 921   NORMALIZED FREE ENERGY PREDICTED BY IDOCK:   -5.47 KCAL/MOL
REMARK 922        TOTAL FREE ENERGY PREDICTED BY IDOCK:   -7.46 KCAL/MOL
REMARK 923 INTER-LIGAND FREE ENERGY PREDICTED BY IDOCK:   -7.14 KCAL/MOL
REMARK 924 INTRA-LIGAND FREE ENERGY PREDICTED BY IDOCK:   -0.31 KCAL/MOL
REMARK 927      BINDING AFFINITY PREDICTED BY RF-SCORE:    0.00 PKD
ROOT
HETATM    1  C   UNL     1     -10.502  13.344  66.394  1.00  0.00    -0.286 C  
HETATM    2  C   UNL     1     -11.414  14.555  66.141  1.00  0.00    -0.357 C  
HETATM    3  N   UNL     1     -12.157  14.932  67.362  1.00  0.00    -0.441 NA 
HETATM    4  C   UNL     1     -10.603  15.722  65.559  1.00  0.00    -0.424 C  
HETATM    5  C   UNL     1     -12.482  14.149  65.105  1.00  0.00    -0.453 C  
HETATM    6  H   UNL     1     -13.175  14.902  67.405  1.00  0.00     0.000 HD 
ENDROOT
BRANCH   3   7
HETATM    7  C   UNL     1     -11.339  15.354  68.514  1.00  0.00    -0.335 C  
BRANCH   7   8
HETATM    8  C   UNL     1     -12.074  15.338  69.891  1.00  0.00    -0.343 C  
HETATM    9  H   UNL     1     -11.738  16.128  71.628  1.00  0.00     0.000 HD 
HETATM   10  O   UNL     1     -11.291  16.138  70.790  1.00  0.00    -0.385 OA 
BRANCH   8  11
HETATM   11  C   UNL     1     -12.340  13.957  70.482  1.00  0.00    -0.439 A  
HETATM   12  C   UNL     1     -11.871  12.807  69.822  1.00  0.00    -0.380 A  
HETATM   13  C   UNL     1     -12.057  11.512  70.342  1.00  0.00    -0.471 A  
HETATM   14  C   UNL     1     -12.841  11.377  71.492  1.00  0.00    -0.403 A  
HETATM   15  H   UNL     1     -13.671  10.064  72.811  1.00  0.00     0.000 HD 
HETATM   16  C   UNL     1     -13.354  12.490  72.143  1.00  0.00    -0.540 A  
HETATM   17  O   UNL     1     -13.138  10.156  72.029  1.00  0.00    -0.440 OA 
HETATM   18  C   UNL     1     -13.082  13.774  71.659  1.00  0.00    -0.456 A  
BRANCH  13  19
HETATM   19  C   UNL     1     -11.453  10.344  69.611  1.00  0.00    -0.262 C  
HETATM   20  O   UNL     1     -12.019  10.219  68.308  1.00  0.00    -0.730 OA 
HETATM   21  H   UNL     1     -11.637   9.481  67.846  1.00  0.00     0.000 HD 
ENDBRANCH  13  19
ENDBRANCH   8  11
ENDBRANCH   7   8
ENDBRANCH   3   7
TORSDOF 4
ENDMDL
MODEL       14
REMARK 921   NORMALIZED FREE ENERGY PREDICTED BY IDOCK:   -5.46 KCAL/MOL
REMARK 922        TOTAL FREE ENERGY PREDICTED BY IDOCK:   -7.44 KCAL/MOL
REMARK 923 INTER-LIGAND FREE ENERGY PREDICTED BY IDOCK:   -6.89 KCAL/MOL
REMARK 924 INTRA-LIGAND FREE ENERGY PREDICTED BY IDOCK:   -0.55 KCAL/MOL
REMARK 927      BINDING AFFINITY PREDICTED BY RF-SCORE:    0.00 PKD
ROOT
HETATM    1  C   UNL     1     -11.443   6.562  71.929  1.00  0.00    -0.345 C  
HETATM    2  C   UNL     1     -10.919   7.201  70.632  1.00  0.00    -0.258 C  
HETATM    3  N   UNL     1     -11.605   8.478  70.347  1.00  0.00    -0.460 NA 
HETATM    4  C   UNL     1      -9.392   7.351  70.692  1.00  0.00    -0.160 C  
HETATM    5  C   UNL     1     -11.264   6.263  69.457  1.00  0.00    -0.500 C  
HETATM    6  H   UNL     1     -12.166   8.613  69.507  1.00  0.00     0.000 HD 
ENDROOT
BRANCH   3   7
HETATM    7  C   UNL     1     -11.431   9.546  71.349  1.00  0.00    -0.392 C  
BRANCH   7   8
HETATM    8  C   UNL     1     -12.748  10.242  71.813  1.00  0.00    -0.433 C  
HETATM    9  H   UNL     1     -14.637   9.930  71.514  1.00  0.00     0.000 HD 
HETATM   10  O   UNL     1     -13.835   9.506  71.232  1.00  0.00    -0.294 OA 
BRANCH   8  11
HETATM   11  C   UNL     1     -12.861  11.728  71.488  1.00  0.00    -0.450 A  
HETATM   12  C   UNL     1     -12.170  12.261  70.384  1.00  0.00    -0.371 A  
HETATM   13  C   UNL     1     -12.268  13.616  70.018  1.00  0.00    -0.395 A  
HETATM   14  C   UNL     1     -12.986  14.470  70.861  1.00  0.00    -0.361 A  
HETATM   15  H   UNL     1     -13.564  16.394  71.201  1.00  0.00     0.000 HD 
HETATM   16  C   UNL     1     -13.645  13.982  71.980  1.00  0.00    -0.552 A  
HETATM   17  O   UNL     1     -13.076  15.814  70.629  1.00  0.00    -0.497 OA 
HETATM   18  C   UNL     1     -13.608  12.616  72.277  1.00  0.00    -0.508 A  
BRANCH  13  19
HETATM   19  C   UNL     1     -11.557  14.085  68.777  1.00  0.00    -0.331 C  
HETATM   20  O   UNL     1     -12.484  14.648  67.850  1.00  0.00    -0.586 OA 
HETATM   21  H   UNL     1     -12.036  14.944  67.066  1.00  0.00     0.000 HD 
ENDBRANCH  13  19
ENDBRANCH   8  11
ENDBRANCH   7   8
ENDBRANCH   3   7
TORSDOF 4
ENDMDL
MODEL       15
REMARK 921   NORMALIZED FREE ENERGY PREDICTED BY IDOCK:   -5.43 KCAL/MOL
REMARK 922        TOTAL FREE ENERGY PREDICTED BY IDOCK:   -7.41 KCAL/MOL
REMARK 923 INTER-LIGAND FREE ENERGY PREDICTED BY IDOCK:   -7.00 KCAL/MOL
REMARK 924 INTRA-LIGAND FREE ENERGY PREDICTED BY IDOCK:   -0.41 KCAL/MOL
REMARK 927      BINDING AFFINITY PREDICTED BY RF-SCORE:    0.00 PKD
ROOT
HETATM    1  C   UNL     1     -10.189  20.065  68.772  1.00  0.00    -0.402 C  
HETATM    2  C   UNL     1      -9.489  19.351  67.605  1.00  0.00    -0.313 C  
HETATM    3  N   UNL     1      -9.006  18.014  68.006  1.00  0.00    -0.266 NA 
HETATM    4  C   UNL     1     -10.413  19.302  66.379  1.00  0.00    -0.563 C  
HETATM    5  C   UNL     1      -8.231  20.159  67.227  1.00  0.00    -0.381 C  
HETATM    6  H   UNL     1      -8.016  17.771  67.993  1.00  0.00     0.000 HD 
ENDROOT
BRANCH   3   7
HETATM    7  C   UNL     1     -10.040  17.049  68.427  1.00  0.00    -0.302 C  
BRANCH   7   8
HETATM    8  C   UNL     1      -9.652  15.547  68.262  1.00  0.00    -0.201 C  
HETATM    9  H   UNL     1      -8.066  14.601  67.677  1.00  0.00     0.000 HD 
HETATM   10  O   UNL     1      -8.301  15.516  67.777  1.00  0.00    -0.140 OA 
BRANCH   8  11
HETATM   11  C   UNL     1     -10.571  14.722  67.366  1.00  0.00    -0.268 A  
HETATM   12  C   UNL     1     -11.040  15.259  66.153  1.00  0.00    -0.280 A  
HETATM   13  C   UNL     1     -11.859  14.529  65.273  1.00  0.00    -0.358 A  
HETATM   14  C   UNL     1     -12.309  13.272  65.691  1.00  0.00    -0.465 A  
HETATM   15  H   UNL     1     -13.471  11.666  65.221  1.00  0.00     0.000 HD 
HETATM   16  C   UNL     1     -11.898  12.732  66.901  1.00  0.00    -0.440 A  
HETATM   17  O   UNL     1     -13.166  12.519  64.938  1.00  0.00    -0.787 OA 
HETATM   18  C   UNL     1     -11.012  13.437  67.721  1.00  0.00    -0.281 A  
BRANCH  13  19
HETATM   19  C   UNL     1     -12.249  15.152  63.960  1.00  0.00    -0.045 C  
HETATM   20  O   UNL     1     -11.702  16.464  63.844  1.00  0.00    -1.504 OA 
HETATM   21  H   UNL     1     -11.948  16.858  63.015  1.00  0.00     0.000 HD 
ENDBRANCH  13  19
ENDBRANCH   8  11
ENDBRANCH   7   8
ENDBRANCH   3   7
TORSDOF 4
ENDMDL
MODEL       16
REMARK 921   NORMALIZED FREE ENERGY PREDICTED BY IDOCK:   -5.41 KCAL/MOL
REMARK 922        TOTAL FREE ENERGY PREDICTED BY IDOCK:   -7.38 KCAL/MOL
REMARK 923 INTER-LIGAND FREE ENERGY PREDICTED BY IDOCK:   -7.10 KCAL/MOL
REMARK 924 INTRA-LIGAND FREE ENERGY PREDICTED BY IDOCK:   -0.27 KCAL/MOL
REMARK 927      BINDING AFFINITY PREDICTED BY RF-SCORE:    0.00 PKD
ROOT
HETATM    1  C   UNL     1     -10.479  11.071  64.313  1.00  0.00    -0.427 C  
HETATM    2  C   UNL     1     -11.432  12.234  64.634  1.00  0.00    -0.336 C  
HETATM    3  N   UNL     1     -12.015  12.092  65.984  1.00  0.00    -0.585 NA 
HETATM    4  C   UNL     1     -10.718  13.579  64.437  1.00  0.00    -0.402 C  
HETATM    5  C   UNL     1     -12.620  12.172  63.652  1.00  0.00    -0.616 C  
HETATM    6  H   UNL     1     -13.019  11.987  66.130  1.00  0.00     0.000 HD 
ENDROOT
BRANCH   3   7
HETATM    7  C   UNL     1     -11.061  12.112  67.108  1.00  0.00    -0.291 C  
BRANCH   7   8
HETATM    8  C   UNL     1     -11.023  13.442  67.924  1.00  0.00    -0.256 C  
HETATM    9  H   UNL     1      -9.616  14.571  68.631  1.00  0.00     0.000 HD 
HETATM   10  O   UNL     1      -9.639  13.762  68.134  1.00  0.00    -0.205 OA 
BRANCH   8  11
HETATM   11  C   UNL     1     -11.786  13.430  69.245  1.00  0.00    -0.385 A  
HETATM   12  C   UNL     1     -12.099  12.207  69.865  1.00  0.00    -0.324 A  
HETATM   13  C   UNL     1     -12.769  12.139  71.101  1.00  0.00    -0.351 A  
HETATM   14  C   UNL     1     -13.235  13.335  71.657  1.00  0.00    -0.359 A  
HETATM   15  H   UNL     1     -14.275  14.176  73.194  1.00  0.00     0.000 HD 
HETATM   16  C   UNL     1     -12.978  14.555  71.048  1.00  0.00    -0.423 A  
HETATM   17  O   UNL     1     -13.959  13.364  72.816  1.00  0.00    -0.724 OA 
HETATM   18  C   UNL     1     -12.233  14.607  69.865  1.00  0.00    -0.365 A  
BRANCH  13  19
HETATM   19  C   UNL     1     -12.994  10.791  71.731  1.00  0.00    -0.463 C  
HETATM   20  O   UNL     1     -13.389   9.836  70.748  1.00  0.00    -0.594 OA 
HETATM   21  H   UNL     1     -13.531   8.985  71.145  1.00  0.00     0.000 HD 
ENDBRANCH  13  19
ENDBRANCH   8  11
ENDBRANCH   7   8
ENDBRANCH   3   7
TORSDOF 4
ENDMDL
MODEL       17
REMARK 921   NORMALIZED FREE ENERGY PREDICTED BY IDOCK:   -5.40 KCAL/MOL
REMARK 922        TOTAL FREE ENERGY PREDICTED BY IDOCK:   -7.37 KCAL/MOL
REMARK 923 INTER-LIGAND FREE ENERGY PREDICTED BY IDOCK:   -6.82 KCAL/MOL
REMARK 924 INTRA-LIGAND FREE ENERGY PREDICTED BY IDOCK:   -0.54 KCAL/MOL
REMARK 927      BINDING AFFINITY PREDICTED BY RF-SCORE:    0.00 PKD
ROOT
HETATM    1  C   UNL     1     -10.195  11.680  63.763  1.00  0.00    -0.430 C  
HETATM    2  C   UNL     1     -11.362  12.421  64.437  1.00  0.00    -0.340 C  
HETATM    3  N   UNL     1     -11.639  11.875  65.781  1.00  0.00    -0.360 NA 
HETATM    4  C   UNL     1     -11.092  13.933  64.456  1.00  0.00    -0.374 C  
HETATM    5  C   UNL     1     -12.638  12.171  63.607  1.00  0.00    -0.616 C  
HETATM    6  H   UNL     1     -12.534  11.445  66.015  1.00  0.00     0.000 HD 
ENDROOT
BRANCH   3   7
HETATM    7  C   UNL     1     -10.548  11.990  66.766  1.00  0.00    -0.227 C  
BRANCH   7   8
HETATM    8  C   UNL     1     -10.944  11.658  68.239  1.00  0.00    -0.226 C  
HETATM    9  H   UNL     1     -12.099  10.351  69.081  1.00  0.00     0.000 HD 
HETATM   10  O   UNL     1     -11.858  10.552  68.185  1.00  0.00    -0.417 OA 
BRANCH   8  11
HETATM   11  C   UNL     1     -11.536  12.814  69.040  1.00  0.00    -0.360 A  
HETATM   12  C   UNL     1     -12.249  12.557  70.224  1.00  0.00    -0.345 A  
HETATM   13  C   UNL     1     -12.783  13.587  71.020  1.00  0.00    -0.399 A  
HETATM   14  C   UNL     1     -12.694  14.897  70.538  1.00  0.00    -0.347 A  
HETATM   15  H   UNL     1     -13.185  16.846  70.877  1.00  0.00     0.000 HD 
HETATM   16  C   UNL     1     -12.032  15.179  69.352  1.00  0.00    -0.337 A  
HETATM   17  O   UNL     1     -13.246  15.956  71.204  1.00  0.00    -0.518 OA 
HETATM   18  C   UNL     1     -11.431  14.150  68.621  1.00  0.00    -0.332 A  
BRANCH  13  19
HETATM   19  C   UNL     1     -13.464  13.226  72.312  1.00  0.00    -0.582 C  
HETATM   20  O   UNL     1     -13.218  14.221  73.305  1.00  0.00    -0.614 OA 
HETATM   21  H   UNL     1     -13.648  13.993  74.122  1.00  0.00     0.000 HD 
ENDBRANCH  13  19
ENDBRANCH   8  11
ENDBRANCH   7   8
ENDBRANCH   3   7
TORSDOF 4
ENDMDL
MODEL       18
REMARK 921   NORMALIZED FREE ENERGY PREDICTED BY IDOCK:   -5.39 KCAL/MOL
REMARK 922        TOTAL FREE ENERGY PREDICTED BY IDOCK:   -7.36 KCAL/MOL
REMARK 923 INTER-LIGAND FREE ENERGY PREDICTED BY IDOCK:   -6.85 KCAL/MOL
REMARK 924 INTRA-LIGAND FREE ENERGY PREDICTED BY IDOCK:   -0.51 KCAL/MOL
REMARK 927      BINDING AFFINITY PREDICTED BY RF-SCORE:    0.00 PKD
ROOT
HETATM    1  C   UNL     1      -9.502   9.232  70.851  1.00  0.00    -0.330 C  
HETATM    2  C   UNL     1     -10.970   8.786  70.746  1.00  0.00    -0.247 C  
HETATM    3  N   UNL     1     -11.821   9.864  70.203  1.00  0.00    -0.426 NA 
HETATM    4  C   UNL     1     -11.075   7.485  69.936  1.00  0.00    -0.185 C  
HETATM    5  C   UNL     1     -11.495   8.509  72.170  1.00  0.00    -0.446 C  
HETATM    6  H   UNL     1     -12.585  10.272  70.741  1.00  0.00     0.000 HD 
ENDROOT
BRANCH   3   7
HETATM    7  C   UNL     1     -11.502  10.316  68.835  1.00  0.00    -0.127 C  
BRANCH   7   8
HETATM    8  C   UNL     1     -11.177  11.836  68.698  1.00  0.00    -0.257 C  
HETATM    9  H   UNL     1     -11.630  13.427  69.705  1.00  0.00     0.000 HD 
HETATM   10  O   UNL     1     -11.828  12.502  69.790  1.00  0.00    -0.315 OA 
BRANCH   8  11
HETATM   11  C   UNL     1     -11.557  12.475  67.365  1.00  0.00    -0.434 A  
HETATM   12  C   UNL     1     -11.200  11.849  66.157  1.00  0.00    -0.387 A  
HETATM   13  C   UNL     1     -11.557  12.376  64.902  1.00  0.00    -0.392 A  
HETATM   14  C   UNL     1     -12.183  13.626  64.873  1.00  0.00    -0.414 A  
HETATM   15  H   UNL     1     -12.927  15.102  63.681  1.00  0.00     0.000 HD 
HETATM   16  C   UNL     1     -12.511  14.289  66.047  1.00  0.00    -0.392 A  
HETATM   17  O   UNL     1     -12.502  14.253  63.701  1.00  0.00    -0.816 OA 
HETATM   18  C   UNL     1     -12.227  13.706  67.287  1.00  0.00    -0.317 A  
BRANCH  13  19
HETATM   19  C   UNL     1     -11.203  11.600  63.663  1.00  0.00    -0.411 C  
HETATM   20  O   UNL     1     -12.352  11.420  62.837  1.00  0.00    -0.954 OA 
HETATM   21  H   UNL     1     -12.129  10.930  62.054  1.00  0.00     0.000 HD 
ENDBRANCH  13  19
ENDBRANCH   8  11
ENDBRANCH   7   8
ENDBRANCH   3   7
TORSDOF 4
ENDMDL
MODEL       19
REMARK 921   NORMALIZED FREE ENERGY PREDICTED BY IDOCK:   -5.39 KCAL/MOL
REMARK 922        TOTAL FREE ENERGY PREDICTED BY IDOCK:   -7.36 KCAL/MOL
REMARK 923 INTER-LIGAND FREE ENERGY PREDICTED BY IDOCK:   -6.78 KCAL/MOL
REMARK 924 INTRA-LIGAND FREE ENERGY PREDICTED BY IDOCK:   -0.58 KCAL/MOL
REMARK 927      BINDING AFFINITY PREDICTED BY RF-SCORE:    0.00 PKD
ROOT
HETATM    1  C   UNL     1     -12.811   9.501  72.106  1.00  0.00    -0.471 C  
HETATM    2  C   UNL     1     -11.827   8.553  71.401  1.00  0.00    -0.296 C  
HETATM    3  N   UNL     1     -11.647   8.925  69.982  1.00  0.00    -0.457 NA 
HETATM    4  C   UNL     1     -10.499   8.495  72.170  1.00  0.00    -0.412 C  
HETATM    5  C   UNL     1     -12.440   7.138  71.392  1.00  0.00    -0.427 C  
HETATM    6  H   UNL     1     -11.902   8.295  69.222  1.00  0.00     0.000 HD 
ENDROOT
BRANCH   3   7
HETATM    7  C   UNL     1     -11.075  10.261  69.729  1.00  0.00    -0.287 C  
BRANCH   7   8
HETATM    8  C   UNL     1     -12.086  11.326  69.202  1.00  0.00    -0.279 C  
HETATM    9  H   UNL     1     -12.543  12.030  67.456  1.00  0.00     0.000 HD 
HETATM   10  O   UNL     1     -11.928  11.382  67.776  1.00  0.00    -0.637 OA 
BRANCH   8  11
HETATM   11  C   UNL     1     -11.962  12.717  69.818  1.00  0.00    -0.362 A  
HETATM   12  C   UNL     1     -12.596  13.004  71.040  1.00  0.00    -0.386 A  
HETATM   13  C   UNL     1     -12.484  14.258  71.669  1.00  0.00    -0.419 A  
HETATM   14  C   UNL     1     -11.815  15.276  70.983  1.00  0.00    -0.345 A  
HETATM   15  H   UNL     1     -11.263  17.237  71.013  1.00  0.00     0.000 HD 
HETATM   16  C   UNL     1     -11.215  15.035  69.755  1.00  0.00    -0.301 A  
HETATM   17  O   UNL     1     -11.717  16.545  71.479  1.00  0.00    -0.395 OA 
HETATM   18  C   UNL     1     -11.261  13.757  69.188  1.00  0.00    -0.307 A  
BRANCH  13  19
HETATM   19  C   UNL     1     -13.129  14.454  73.015  1.00  0.00    -0.481 C  
HETATM   20  O   UNL     1     -14.089  15.508  72.963  1.00  0.00    -0.512 OA 
HETATM   21  H   UNL     1     -14.497  15.632  73.812  1.00  0.00     0.000 HD 
ENDBRANCH  13  19
ENDBRANCH   8  11
ENDBRANCH   7   8
ENDBRANCH   3   7
TORSDOF 4
ENDMDL
MODEL       20
REMARK 921   NORMALIZED FREE ENERGY PREDICTED BY IDOCK:   -5.38 KCAL/MOL
REMARK 922        TOTAL FREE ENERGY PREDICTED BY IDOCK:   -7.34 KCAL/MOL
REMARK 923 INTER-LIGAND FREE ENERGY PREDICTED BY IDOCK:   -6.89 KCAL/MOL
REMARK 924 INTRA-LIGAND FREE ENERGY PREDICTED BY IDOCK:   -0.46 KCAL/MOL
REMARK 927      BINDING AFFINITY PREDICTED BY RF-SCORE:    0.00 PKD
ROOT
HETATM    1  C   UNL     1     -13.185   9.688  71.978  1.00  0.00    -0.546 C  
HETATM    2  C   UNL     1     -12.119   8.771  71.355  1.00  0.00    -0.307 C  
HETATM    3  N   UNL     1     -11.832   9.154  69.958  1.00  0.00    -0.439 NA 
HETATM    4  C   UNL     1     -10.859   8.746  72.233  1.00  0.00    -0.328 C  
HETATM    5  C   UNL     1     -12.690   7.339  71.293  1.00  0.00    -0.400 C  
HETATM    6  H   UNL     1     -12.005   8.521  69.178  1.00  0.00     0.000 HD 
ENDROOT
BRANCH   3   7
HETATM    7  C   UNL     1     -11.279  10.507  69.757  1.00  0.00    -0.298 C  
BRANCH   7   8
HETATM    8  C   UNL     1     -10.408  10.684  68.474  1.00  0.00    -0.183 C  
HETATM    9  H   UNL     1      -8.600  11.286  68.123  1.00  0.00     0.000 HD 
HETATM   10  O   UNL     1      -9.130  11.178  68.903  1.00  0.00    -0.164 OA 
BRANCH   8  11
HETATM   11  C   UNL     1     -11.001  11.578  67.390  1.00  0.00    -0.317 A  
HETATM   12  C   UNL     1     -10.766  11.290  66.033  1.00  0.00    -0.301 A  
HETATM   13  C   UNL     1     -11.319  12.060  64.993  1.00  0.00    -0.365 A  
HETATM   14  C   UNL     1     -12.025  13.216  65.341  1.00  0.00    -0.406 A  
HETATM   15  H   UNL     1     -13.016  14.851  64.637  1.00  0.00     0.000 HD 
HETATM   16  C   UNL     1     -12.239  13.550  66.671  1.00  0.00    -0.411 A  
HETATM   17  O   UNL     1     -12.536  14.066  64.401  1.00  0.00    -0.651 OA 
HETATM   18  C   UNL     1     -11.756  12.722  67.690  1.00  0.00    -0.422 A  
BRANCH  13  19
HETATM   19  C   UNL     1     -11.080  11.634  63.570  1.00  0.00    -0.393 C  
HETATM   20  O   UNL     1     -12.318  11.461  62.883  1.00  0.00    -0.954 OA 
HETATM   21  H   UNL     1     -12.168  11.192  61.984  1.00  0.00     0.000 HD 
ENDBRANCH  13  19
ENDBRANCH   8  11
ENDBRANCH   7   8
ENDBRANCH   3   7
TORSDOF 4
ENDMDL
MODEL       21
REMARK 921   NORMALIZED FREE ENERGY PREDICTED BY IDOCK:   -5.36 KCAL/MOL
REMARK 922        TOTAL FREE ENERGY PREDICTED BY IDOCK:   -7.32 KCAL/MOL
REMARK 923 INTER-LIGAND FREE ENERGY PREDICTED BY IDOCK:   -6.85 KCAL/MOL
REMARK 924 INTRA-LIGAND FREE ENERGY PREDICTED BY IDOCK:   -0.47 KCAL/MOL
REMARK 927      BINDING AFFINITY PREDICTED BY RF-SCORE:    0.00 PKD
ROOT
HETATM    1  C   UNL     1     -10.198   7.144  72.992  1.00  0.00    -0.290 C  
HETATM    2  C   UNL     1     -11.243   6.267  72.283  1.00  0.00    -0.283 C  
HETATM    3  N   UNL     1     -12.540   6.966  72.169  1.00  0.00    -0.536 NA 
HETATM    4  C   UNL     1     -10.707   5.789  70.926  1.00  0.00    -0.333 C  
HETATM    5  C   UNL     1     -11.508   5.025  73.159  1.00  0.00    -0.362 C  
HETATM    6  H   UNL     1     -13.386   6.610  72.613  1.00  0.00     0.000 HD 
ENDROOT
BRANCH   3   7
HETATM    7  C   UNL     1     -12.540   8.208  71.374  1.00  0.00    -0.283 C  
BRANCH   7   8
HETATM    8  C   UNL     1     -12.989   9.489  72.144  1.00  0.00    -0.412 C  
HETATM    9  H   UNL     1     -14.655  10.103  72.920  1.00  0.00     0.000 HD 
HETATM   10  O   UNL     1     -14.382   9.323  72.451  1.00  0.00    -0.410 OA 
BRANCH   8  11
HETATM   11  C   UNL     1     -12.743  10.812  71.426  1.00  0.00    -0.544 A  
HETATM   12  C   UNL     1     -13.278  12.005  71.946  1.00  0.00    -0.469 A  
HETATM   13  C   UNL     1     -13.051  13.256  71.344  1.00  0.00    -0.361 A  
HETATM   14  C   UNL     1     -12.369  13.280  70.123  1.00  0.00    -0.236 A  
HETATM   15  H   UNL     1     -11.702  14.454  68.597  1.00  0.00     0.000 HD 
HETATM   16  C   UNL     1     -11.866  12.115  69.563  1.00  0.00    -0.386 A  
HETATM   17  O   UNL     1     -12.165  14.438  69.427  1.00  0.00    -0.317 OA 
HETATM   18  C   UNL     1     -12.025  10.892  70.223  1.00  0.00    -0.448 A  
BRANCH  13  19
HETATM   19  C   UNL     1     -13.594  14.491  72.011  1.00  0.00    -0.416 C  
HETATM   20  O   UNL     1     -14.132  15.391  71.043  1.00  0.00    -0.768 OA 
HETATM   21  H   UNL     1     -14.475  16.170  71.464  1.00  0.00     0.000 HD 
ENDBRANCH  13  19
ENDBRANCH   8  11
ENDBRANCH   7   8
ENDBRANCH   3   7
TORSDOF 4
ENDMDL
MODEL       22
REMARK 921   NORMALIZED FREE ENERGY PREDICTED BY IDOCK:   -5.33 KCAL/MOL
REMARK 922        TOTAL FREE ENERGY PREDICTED BY IDOCK:   -7.28 KCAL/MOL
REMARK 923 INTER-LIGAND FREE ENERGY PREDICTED BY IDOCK:   -6.81 KCAL/MOL
REMARK 924 INTRA-LIGAND FREE ENERGY PREDICTED BY IDOCK:   -0.47 KCAL/MOL
REMARK 927      BINDING AFFINITY PREDICTED BY RF-SCORE:    0.00 PKD
ROOT
HETATM    1  C   UNL     1     -11.633  16.209  68.801  1.00  0.00    -0.297 C  
HETATM    2  C   UNL     1     -10.439  15.271  68.563  1.00  0.00    -0.235 C  
HETATM    3  N   UNL     1     -10.432  14.154  69.531  1.00  0.00    -0.434 NA 
HETATM    4  C   UNL     1     -10.421  14.789  67.105  1.00  0.00    -0.265 C  
HETATM    5  C   UNL     1      -9.141  16.064  68.823  1.00  0.00    -0.222 C  
HETATM    6  H   UNL     1      -9.668  14.019  70.193  1.00  0.00     0.000 HD 
ENDROOT
BRANCH   3   7
HETATM    7  C   UNL     1     -11.594  13.247  69.483  1.00  0.00    -0.286 C  
BRANCH   7   8
HETATM    8  C   UNL     1     -11.292  11.809  68.958  1.00  0.00    -0.278 C  
HETATM    9  H   UNL     1     -12.004  10.693  67.544  1.00  0.00     0.000 HD 
HETATM   10  O   UNL     1     -12.188  11.568  67.863  1.00  0.00    -0.586 OA 
BRANCH   8  11
HETATM   11  C   UNL     1     -11.387  10.693  69.995  1.00  0.00    -0.400 A  
HETATM   12  C   UNL     1     -12.626  10.389  70.589  1.00  0.00    -0.435 A  
HETATM   13  C   UNL     1     -12.777   9.347  71.522  1.00  0.00    -0.444 A  
HETATM   14  C   UNL     1     -11.624   8.681  71.950  1.00  0.00    -0.350 A  
HETATM   15  H   UNL     1     -10.877   7.253  73.197  1.00  0.00     0.000 HD 
HETATM   16  C   UNL     1     -10.381   8.987  71.414  1.00  0.00    -0.396 A  
HETATM   17  O   UNL     1     -11.660   7.706  72.906  1.00  0.00    -0.325 OA 
HETATM   18  C   UNL     1     -10.266   9.966  70.421  1.00  0.00    -0.299 A  
BRANCH  13  19
HETATM   19  C   UNL     1     -14.152   9.039  72.048  1.00  0.00    -0.368 C  
HETATM   20  O   UNL     1     -14.122   8.866  73.464  1.00  0.00    -1.189 OA 
HETATM   21  H   UNL     1     -14.991   8.671  73.797  1.00  0.00     0.000 HD 
ENDBRANCH  13  19
ENDBRANCH   8  11
ENDBRANCH   7   8
ENDBRANCH   3   7
TORSDOF 4
ENDMDL
MODEL       23
REMARK 921   NORMALIZED FREE ENERGY PREDICTED BY IDOCK:   -5.31 KCAL/MOL
REMARK 922        TOTAL FREE ENERGY PREDICTED BY IDOCK:   -7.26 KCAL/MOL
REMARK 923 INTER-LIGAND FREE ENERGY PREDICTED BY IDOCK:   -6.56 KCAL/MOL
REMARK 924 INTRA-LIGAND FREE ENERGY PREDICTED BY IDOCK:   -0.70 KCAL/MOL
REMARK 927      BINDING AFFINITY PREDICTED BY RF-SCORE:    0.00 PKD
ROOT
HETATM    1  C   UNL     1     -12.252  14.536  64.692  1.00  0.00    -0.474 C  
HETATM    2  C   UNL     1     -11.200  13.673  65.407  1.00  0.00    -0.298 C  
HETATM    3  N   UNL     1     -10.278  14.504  66.208  1.00  0.00    -0.286 NA 
HETATM    4  C   UNL     1     -11.886  12.580  66.241  1.00  0.00    -0.453 C  
HETATM    5  C   UNL     1     -10.329  12.985  64.337  1.00  0.00    -0.397 C  
HETATM    6  H   UNL     1      -9.278  14.540  66.014  1.00  0.00     0.000 HD 
ENDROOT
BRANCH   3   7
HETATM    7  C   UNL     1     -10.889  15.278  67.305  1.00  0.00    -0.318 C  
BRANCH   7   8
HETATM    8  C   UNL     1     -10.309  14.988  68.725  1.00  0.00    -0.240 C  
HETATM    9  H   UNL     1      -8.897  13.858  69.419  1.00  0.00     0.000 HD 
HETATM   10  O   UNL     1      -9.250  14.035  68.555  1.00  0.00    -0.198 OA 
BRANCH   8  11
HETATM   11  C   UNL     1     -11.317  14.505  69.764  1.00  0.00    -0.305 A  
HETATM   12  C   UNL     1     -11.824  15.400  70.722  1.00  0.00    -0.394 A  
HETATM   13  C   UNL     1     -12.781  15.015  71.679  1.00  0.00    -0.413 A  
HETATM   14  C   UNL     1     -13.139  13.665  71.738  1.00  0.00    -0.382 A  
HETATM   15  H   UNL     1     -14.248  12.265  72.720  1.00  0.00     0.000 HD 
HETATM   16  C   UNL     1     -12.624  12.748  70.833  1.00  0.00    -0.342 A  
HETATM   17  O   UNL     1     -14.005  13.183  72.680  1.00  0.00    -0.708 OA 
HETATM   18  C   UNL     1     -11.741  13.169  69.833  1.00  0.00    -0.327 A  
BRANCH  13  19
HETATM   19  C   UNL     1     -13.329  16.058  72.616  1.00  0.00    -0.352 C  
HETATM   20  O   UNL     1     -13.088  15.690  73.973  1.00  0.00    -0.678 OA 
HETATM   21  H   UNL     1     -13.433  16.348  74.566  1.00  0.00     0.000 HD 
ENDBRANCH  13  19
ENDBRANCH   8  11
ENDBRANCH   7   8
ENDBRANCH   3   7
TORSDOF 4
ENDMDL
MODEL       24
REMARK 921   NORMALIZED FREE ENERGY PREDICTED BY IDOCK:   -5.30 KCAL/MOL
REMARK 922        TOTAL FREE ENERGY PREDICTED BY IDOCK:   -7.24 KCAL/MOL
REMARK 923 INTER-LIGAND FREE ENERGY PREDICTED BY IDOCK:   -6.80 KCAL/MOL
REMARK 924 INTRA-LIGAND FREE ENERGY PREDICTED BY IDOCK:   -0.45 KCAL/MOL
REMARK 927      BINDING AFFINITY PREDICTED BY RF-SCORE:    0.00 PKD
ROOT
HETATM    1  C   UNL     1     -13.528  12.919  72.306  1.00  0.00    -0.631 C  
HETATM    2  C   UNL     1     -12.943  14.312  72.023  1.00  0.00    -0.355 C  
HETATM    3  N   UNL     1     -11.820  14.237  71.065  1.00  0.00    -0.481 NA 
HETATM    4  C   UNL     1     -14.049  15.273  71.563  1.00  0.00    -0.625 C  
HETATM    5  C   UNL     1     -12.344  14.862  73.334  1.00  0.00    -0.513 C  
HETATM    6  H   UNL     1     -10.875  14.524  71.318  1.00  0.00     0.000 HD 
ENDROOT
BRANCH   3   7
HETATM    7  C   UNL     1     -12.147  13.724  69.721  1.00  0.00    -0.340 C  
BRANCH   7   8
HETATM    8  C   UNL     1     -11.134  14.111  68.599  1.00  0.00    -0.262 C  
HETATM    9  H   UNL     1     -10.500  15.779  67.847  1.00  0.00     0.000 HD 
HETATM   10  O   UNL     1     -11.116  15.544  68.530  1.00  0.00    -0.273 OA 
BRANCH   8  11
HETATM   11  C   UNL     1     -11.406  13.503  67.225  1.00  0.00    -0.339 A  
HETATM   12  C   UNL     1     -10.622  12.431  66.762  1.00  0.00    -0.250 A  
HETATM   13  C   UNL     1     -10.854  11.811  65.521  1.00  0.00    -0.348 A  
HETATM   14  C   UNL     1     -11.823  12.371  64.682  1.00  0.00    -0.380 A  
HETATM   15  H   UNL     1     -12.727  12.263  62.859  1.00  0.00     0.000 HD 
HETATM   16  C   UNL     1     -12.585  13.455  65.093  1.00  0.00    -0.495 A  
HETATM   17  O   UNL     1     -12.069  11.884  63.429  1.00  0.00    -0.502 OA 
HETATM   18  C   UNL     1     -12.400  14.001  66.368  1.00  0.00    -0.468 A  
BRANCH  13  19
HETATM   19  C   UNL     1     -10.018  10.620  65.138  1.00  0.00    -0.303 C  
HETATM   20  O   UNL     1      -9.516  10.763  63.811  1.00  0.00    -0.233 OA 
HETATM   21  H   UNL     1      -8.988  10.011  63.569  1.00  0.00     0.000 HD 
ENDBRANCH  13  19
ENDBRANCH   8  11
ENDBRANCH   7   8
ENDBRANCH   3   7
TORSDOF 4
ENDMDL
MODEL       25
REMARK 921   NORMALIZED FREE ENERGY PREDICTED BY IDOCK:   -5.29 KCAL/MOL
REMARK 922        TOTAL FREE ENERGY PREDICTED BY IDOCK:   -7.24 KCAL/MOL
REMARK 923 INTER-LIGAND FREE ENERGY PREDICTED BY IDOCK:   -6.74 KCAL/MOL
REMARK 924 INTRA-LIGAND FREE ENERGY PREDICTED BY IDOCK:   -0.49 KCAL/MOL
REMARK 927      BINDING AFFINITY PREDICTED BY RF-SCORE:    0.00 PKD
ROOT
HETATM    1  C   UNL     1     -12.963  11.622  71.686  1.00  0.00    -0.483 C  
HETATM    2  C   UNL     1     -12.690  10.408  70.783  1.00  0.00    -0.371 C  
HETATM    3  N   UNL     1     -12.903  10.740  69.359  1.00  0.00    -0.506 NA 
HETATM    4  C   UNL     1     -11.287   9.846  71.055  1.00  0.00    -0.460 C  
HETATM    5  C   UNL     1     -13.721   9.312  71.121  1.00  0.00    -0.165 C  
HETATM    6  H   UNL     1     -13.614  10.273  68.797  1.00  0.00     0.000 HD 
ENDROOT
BRANCH   3   7
HETATM    7  C   UNL     1     -12.028  11.787  68.799  1.00  0.00    -0.257 C  
BRANCH   7   8
HETATM    8  C   UNL     1     -11.540  11.533  67.339  1.00  0.00    -0.228 C  
HETATM    9  H   UNL     1      -9.924  10.818  66.544  1.00  0.00     0.000 HD 
HETATM   10  O   UNL     1     -10.221  10.973  67.432  1.00  0.00    -0.185 OA 
BRANCH   8  11
HETATM   11  C   UNL     1     -11.551  12.748  66.417  1.00  0.00    -0.435 A  
HETATM   12  C   UNL     1     -11.070  13.987  66.879  1.00  0.00    -0.310 A  
HETATM   13  C   UNL     1     -11.024  15.129  66.059  1.00  0.00    -0.332 A  
HETATM   14  C   UNL     1     -11.590  15.041  64.784  1.00  0.00    -0.395 A  
HETATM   15  H   UNL     1     -12.044  16.057  63.076  1.00  0.00     0.000 HD 
HETATM   16  C   UNL     1     -12.112  13.844  64.314  1.00  0.00    -0.477 A  
HETATM   17  O   UNL     1     -11.659  16.117  63.943  1.00  0.00    -0.834 OA 
HETATM   18  C   UNL     1     -12.067  12.697  65.112  1.00  0.00    -0.508 A  
BRANCH  13  19
HETATM   19  C   UNL     1     -10.420  16.393  66.610  1.00  0.00    -0.274 C  
HETATM   20  O   UNL     1      -9.511  16.966  65.671  1.00  0.00    -0.524 OA 
HETATM   21  H   UNL     1      -9.129  17.764  66.019  1.00  0.00     0.000 HD 
ENDBRANCH  13  19
ENDBRANCH   8  11
ENDBRANCH   7   8
ENDBRANCH   3   7
TORSDOF 4
ENDMDL
MODEL       26
REMARK 921   NORMALIZED FREE ENERGY PREDICTED BY IDOCK:   -5.28 KCAL/MOL
REMARK 922        TOTAL FREE ENERGY PREDICTED BY IDOCK:   -7.22 KCAL/MOL
REMARK 923 INTER-LIGAND FREE ENERGY PREDICTED BY IDOCK:   -6.69 KCAL/MOL
REMARK 924 INTRA-LIGAND FREE ENERGY PREDICTED BY IDOCK:   -0.53 KCAL/MOL
REMARK 927      BINDING AFFINITY PREDICTED BY RF-SCORE:    0.00 PKD
ROOT
HETATM    1  C   UNL     1     -11.883   6.244  72.036  1.00  0.00    -0.370 C  
HETATM    2  C   UNL     1     -11.044   6.943  70.953  1.00  0.00    -0.272 C  
HETATM    3  N   UNL     1     -11.582   8.283  70.639  1.00  0.00    -0.413 NA 
HETATM    4  C   UNL     1      -9.565   6.982  71.366  1.00  0.00    -0.162 C  
HETATM    5  C   UNL     1     -11.158   6.125  69.650  1.00  0.00    -0.489 C  
HETATM    6  H   UNL     1     -11.929   8.521  69.710  1.00  0.00     0.000 HD 
ENDROOT
BRANCH   3   7
HETATM    7  C   UNL     1     -11.588   9.256  71.747  1.00  0.00    -0.388 C  
BRANCH   7   8
HETATM    8  C   UNL     1     -12.864  10.149  71.838  1.00  0.00    -0.427 C  
HETATM    9  H   UNL     1     -14.675  10.019  71.162  1.00  0.00     0.000 HD 
HETATM   10  O   UNL     1     -13.899   9.475  71.106  1.00  0.00    -0.266 OA 
BRANCH   8  11
HETATM   11  C   UNL     1     -12.701  11.586  71.351  1.00  0.00    -0.469 A  
HETATM   12  C   UNL     1     -13.295  12.643  72.065  1.00  0.00    -0.555 A  
HETATM   13  C   UNL     1     -13.145  13.988  71.681  1.00  0.00    -0.435 A  
HETATM   14  C   UNL     1     -12.481  14.254  70.480  1.00  0.00    -0.361 A  
HETATM   15  H   UNL     1     -11.898  15.703  69.171  1.00  0.00     0.000 HD 
HETATM   16  C   UNL     1     -11.920  13.230  69.731  1.00  0.00    -0.391 A  
HETATM   17  O   UNL     1     -12.350  15.522  69.987  1.00  0.00    -0.369 OA 
HETATM   18  C   UNL     1     -12.003  11.906  70.177  1.00  0.00    -0.413 A  
BRANCH  13  19
HETATM   19  C   UNL     1     -13.748  15.061  72.547  1.00  0.00    -0.469 C  
HETATM   20  O   UNL     1     -12.803  16.100  72.792  1.00  0.00    -0.442 OA 
HETATM   21  H   UNL     1     -13.183  16.778  73.338  1.00  0.00     0.000 HD 
ENDBRANCH  13  19
ENDBRANCH   8  11
ENDBRANCH   7   8
ENDBRANCH   3   7
TORSDOF 4
ENDMDL
MODEL       27
REMARK 921   NORMALIZED FREE ENERGY PREDICTED BY IDOCK:   -5.26 KCAL/MOL
REMARK 922        TOTAL FREE ENERGY PREDICTED BY IDOCK:   -7.20 KCAL/MOL
REMARK 923 INTER-LIGAND FREE ENERGY PREDICTED BY IDOCK:   -6.57 KCAL/MOL
REMARK 924 INTRA-LIGAND FREE ENERGY PREDICTED BY IDOCK:   -0.63 KCAL/MOL
REMARK 927      BINDING AFFINITY PREDICTED BY RF-SCORE:    0.00 PKD
ROOT
HETATM    1  C   UNL     1      -9.527   9.938  64.779  1.00  0.00    -0.356 C  
HETATM    2  C   UNL     1      -9.616  11.130  65.746  1.00  0.00    -0.221 C  
HETATM    3  N   UNL     1      -9.692  12.411  65.014  1.00  0.00    -0.459 NA 
HETATM    4  C   UNL     1     -10.784  10.937  66.724  1.00  0.00    -0.309 C  
HETATM    5  C   UNL     1      -8.309  11.187  66.565  1.00  0.00    -0.166 C  
HETATM    6  H   UNL     1      -8.974  13.129  65.107  1.00  0.00     0.000 HD 
ENDROOT
BRANCH   3   7
HETATM    7  C   UNL     1     -10.867  12.591  64.142  1.00  0.00    -0.382 C  
BRANCH   7   8
HETATM    8  C   UNL     1     -11.976  13.532  64.708  1.00  0.00    -0.390 C  
HETATM    9  H   UNL     1     -13.247  14.769  63.928  1.00  0.00     0.000 HD 
HETATM   10  O   UNL     1     -12.572  14.196  63.583  1.00  0.00    -0.831 OA 
BRANCH   8  11
HETATM   11  C   UNL     1     -11.515  14.541  65.755  1.00  0.00    -0.342 A  
HETATM   12  C   UNL     1     -11.915  14.397  67.096  1.00  0.00    -0.419 A  
HETATM   13  C   UNL     1     -11.490  15.277  68.107  1.00  0.00    -0.357 A  
HETATM   14  C   UNL     1     -10.742  16.396  67.727  1.00  0.00    -0.328 A  
HETATM   15  H   UNL     1      -9.836  18.105  68.369  1.00  0.00     0.000 HD 
HETATM   16  C   UNL     1     -10.366  16.589  66.405  1.00  0.00    -0.316 A  
HETATM   17  O   UNL     1     -10.345  17.345  68.627  1.00  0.00    -0.332 OA 
HETATM   18  C   UNL     1     -10.724  15.654  65.429  1.00  0.00    -0.424 A  
BRANCH  13  19
HETATM   19  C   UNL     1     -11.902  15.003  69.528  1.00  0.00    -0.330 C  
HETATM   20  O   UNL     1     -12.827  15.989  69.984  1.00  0.00    -0.611 OA 
HETATM   21  H   UNL     1     -13.087  15.816  70.881  1.00  0.00     0.000 HD 
ENDBRANCH  13  19
ENDBRANCH   8  11
ENDBRANCH   7   8
ENDBRANCH   3   7
TORSDOF 4
ENDMDL
MODEL       28
REMARK 921   NORMALIZED FREE ENERGY PREDICTED BY IDOCK:   -5.25 KCAL/MOL
REMARK 922        TOTAL FREE ENERGY PREDICTED BY IDOCK:   -7.19 KCAL/MOL
REMARK 923 INTER-LIGAND FREE ENERGY PREDICTED BY IDOCK:   -6.69 KCAL/MOL
REMARK 924 INTRA-LIGAND FREE ENERGY PREDICTED BY IDOCK:   -0.50 KCAL/MOL
REMARK 927      BINDING AFFINITY PREDICTED BY RF-SCORE:    0.00 PKD
ROOT
HETATM    1  C   UNL     1     -12.393  12.760  65.202  1.00  0.00    -0.555 C  
HETATM    2  C   UNL     1     -10.933  12.704  64.723  1.00  0.00    -0.302 C  
HETATM    3  N   UNL     1     -10.393  14.060  64.490  1.00  0.00    -0.643 NA 
HETATM    4  C   UNL     1     -10.081  11.889  65.706  1.00  0.00    -0.272 C  
HETATM    5  C   UNL     1     -10.900  11.995  63.354  1.00  0.00    -0.471 C  
HETATM    6  H   UNL     1     -10.080  14.365  63.569  1.00  0.00     0.000 HD 
ENDROOT
BRANCH   3   7
HETATM    7  C   UNL     1     -10.333  14.945  65.668  1.00  0.00    -0.349 C  
BRANCH   7   8
HETATM    8  C   UNL     1     -11.022  16.334  65.490  1.00  0.00    -0.149 C  
HETATM    9  H   UNL     1     -11.744  17.318  63.985  1.00  0.00     0.000 HD 
HETATM   10  O   UNL     1     -11.324  16.473  64.093  1.00  0.00    -1.060 OA 
BRANCH   8  11
HETATM   11  C   UNL     1     -10.230  17.536  65.997  1.00  0.00    -0.306 A  
HETATM   12  C   UNL     1      -9.100  17.340  66.811  1.00  0.00    -0.269 A  
HETATM   13  C   UNL     1      -8.313  18.410  67.277  1.00  0.00    -0.251 A  
HETATM   14  C   UNL     1      -8.754  19.709  67.008  1.00  0.00    -0.316 A  
HETATM   15  H   UNL     1      -8.397  21.694  67.298  1.00  0.00     0.000 HD 
HETATM   16  C   UNL     1      -9.889  19.936  66.243  1.00  0.00    -0.570 A  
HETATM   17  O   UNL     1      -8.098  20.811  67.480  1.00  0.00    -0.279 OA 
HETATM   18  C   UNL     1     -10.607  18.858  65.715  1.00  0.00    -0.358 A  
BRANCH  13  19
HETATM   19  C   UNL     1      -7.076  18.105  68.077  1.00  0.00    -0.222 C  
HETATM   20  O   UNL     1      -6.965  18.992  69.189  1.00  0.00    -0.316 OA 
HETATM   21  H   UNL     1      -6.184  18.800  69.694  1.00  0.00     0.000 HD 
ENDBRANCH  13  19
ENDBRANCH   8  11
ENDBRANCH   7   8
ENDBRANCH   3   7
TORSDOF 4
ENDMDL
MODEL       29
REMARK 921   NORMALIZED FREE ENERGY PREDICTED BY IDOCK:   -5.24 KCAL/MOL
REMARK 922        TOTAL FREE ENERGY PREDICTED BY IDOCK:   -7.17 KCAL/MOL
REMARK 923 INTER-LIGAND FREE ENERGY PREDICTED BY IDOCK:   -6.87 KCAL/MOL
REMARK 924 INTRA-LIGAND FREE ENERGY PREDICTED BY IDOCK:   -0.30 KCAL/MOL
REMARK 927      BINDING AFFINITY PREDICTED BY RF-SCORE:    0.00 PKD
ROOT
HETATM    1  C   UNL     1      -8.925   7.658  68.851  1.00  0.00    -0.137 C  
HETATM    2  C   UNL     1     -10.365   7.448  68.357  1.00  0.00    -0.194 C  
HETATM    3  N   UNL     1     -11.153   8.695  68.452  1.00  0.00    -0.374 NA 
HETATM    4  C   UNL     1     -10.362   6.857  66.940  1.00  0.00    -0.332 C  
HETATM    5  C   UNL     1     -11.057   6.438  69.297  1.00  0.00    -0.437 C  
HETATM    6  H   UNL     1     -11.979   8.767  69.046  1.00  0.00     0.000 HD 
ENDROOT
BRANCH   3   7
HETATM    7  C   UNL     1     -10.674   9.828  67.639  1.00  0.00    -0.274 C  
BRANCH   7   8
HETATM    8  C   UNL     1     -11.124  11.237  68.135  1.00  0.00    -0.259 C  
HETATM    9  H   UNL     1     -12.478  11.888  69.358  1.00  0.00     0.000 HD 
HETATM   10  O   UNL     1     -12.205  11.030  69.056  1.00  0.00    -0.483 OA 
BRANCH   8  11
HETATM   11  C   UNL     1     -11.522  12.227  67.043  1.00  0.00    -0.419 A  
HETATM   12  C   UNL     1     -11.308  11.905  65.690  1.00  0.00    -0.339 A  
HETATM   13  C   UNL     1     -11.690  12.764  64.643  1.00  0.00    -0.405 A  
HETATM   14  C   UNL     1     -12.187  14.026  64.983  1.00  0.00    -0.433 A  
HETATM   15  H   UNL     1     -12.853  15.814  64.267  1.00  0.00     0.000 HD 
HETATM   16  C   UNL     1     -12.370  14.390  66.309  1.00  0.00    -0.325 A  
HETATM   17  O   UNL     1     -12.515  14.957  64.037  1.00  0.00    -0.807 OA 
HETATM   18  C   UNL     1     -12.068  13.486  67.333  1.00  0.00    -0.360 A  
BRANCH  13  19
HETATM   19  C   UNL     1     -11.496  12.306  63.223  1.00  0.00    -0.340 C  
HETATM   20  O   UNL     1     -12.557  11.440  62.825  1.00  0.00    -0.952 OA 
HETATM   21  H   UNL     1     -12.435  11.151  61.928  1.00  0.00     0.000 HD 
ENDBRANCH  13  19
ENDBRANCH   8  11
ENDBRANCH   7   8
ENDBRANCH   3   7
TORSDOF 4
ENDMDL
MODEL       30
REMARK 921   NORMALIZED FREE ENERGY PREDICTED BY IDOCK:   -5.22 KCAL/MOL
REMARK 922        TOTAL FREE ENERGY PREDICTED BY IDOCK:   -7.15 KCAL/MOL
REMARK 923 INTER-LIGAND FREE ENERGY PREDICTED BY IDOCK:   -6.70 KCAL/MOL
REMARK 924 INTRA-LIGAND FREE ENERGY PREDICTED BY IDOCK:   -0.45 KCAL/MOL
REMARK 927      BINDING AFFINITY PREDICTED BY RF-SCORE:    0.00 PKD
ROOT
HETATM    1  C   UNL     1     -10.637  15.514  67.433  1.00  0.00    -0.292 C  
HETATM    2  C   UNL     1     -10.232  16.792  68.186  1.00  0.00    -0.301 C  
HETATM    3  N   UNL     1     -11.122  17.040  69.339  1.00  0.00    -0.268 NA 
HETATM    4  C   UNL     1      -8.751  16.729  68.586  1.00  0.00    -0.255 C  
HETATM    5  C   UNL     1     -10.423  17.994  67.238  1.00  0.00    -0.390 C  
HETATM    6  H   UNL     1     -11.702  17.877  69.402  1.00  0.00     0.000 HD 
ENDROOT
BRANCH   3   7
HETATM    7  C   UNL     1     -11.123  16.008  70.392  1.00  0.00    -0.364 C  
BRANCH   7   8
HETATM    8  C   UNL     1     -12.533  15.488  70.811  1.00  0.00    -0.440 C  
HETATM    9  H   UNL     1     -13.755  15.874  72.264  1.00  0.00     0.000 HD 
HETATM   10  O   UNL     1     -12.897  16.190  72.009  1.00  0.00    -0.409 OA 
BRANCH   8  11
HETATM   11  C   UNL     1     -12.650  13.979  71.007  1.00  0.00    -0.437 A  
HETATM   12  C   UNL     1     -12.054  13.102  70.084  1.00  0.00    -0.392 A  
HETATM   13  C   UNL     1     -12.101  11.704  70.237  1.00  0.00    -0.443 A  
HETATM   14  C   UNL     1     -12.871  11.187  71.283  1.00  0.00    -0.412 A  
HETATM   15  H   UNL     1     -13.559   9.491  72.180  1.00  0.00     0.000 HD 
HETATM   16  C   UNL     1     -13.506  12.027  72.187  1.00  0.00    -0.338 A  
HETATM   17  O   UNL     1     -13.036   9.843  71.469  1.00  0.00    -0.359 OA 
HETATM   18  C   UNL     1     -13.374  13.414  72.069  1.00  0.00    -0.569 A  
BRANCH  13  19
HETATM   19  C   UNL     1     -11.369  10.841  69.245  1.00  0.00    -0.286 C  
HETATM   20  O   UNL     1     -12.025  10.863  67.979  1.00  0.00    -0.744 OA 
HETATM   21  H   UNL     1     -11.563  10.318  67.352  1.00  0.00     0.000 HD 
ENDBRANCH  13  19
ENDBRANCH   8  11
ENDBRANCH   7   8
ENDBRANCH   3   7
TORSDOF 4
ENDMDL
MODEL       31
REMARK 921   NORMALIZED FREE ENERGY PREDICTED BY IDOCK:   -5.20 KCAL/MOL
REMARK 922        TOTAL FREE ENERGY PREDICTED BY IDOCK:   -7.12 KCAL/MOL
REMARK 923 INTER-LIGAND FREE ENERGY PREDICTED BY IDOCK:   -6.61 KCAL/MOL
REMARK 924 INTRA-LIGAND FREE ENERGY PREDICTED BY IDOCK:   -0.51 KCAL/MOL
REMARK 927      BINDING AFFINITY PREDICTED BY RF-SCORE:    0.00 PKD
ROOT
HETATM    1  C   UNL     1     -10.354  13.656  65.399  1.00  0.00    -0.345 C  
HETATM    2  C   UNL     1     -11.712  12.937  65.455  1.00  0.00    -0.375 C  
HETATM    3  N   UNL     1     -11.746  11.938  66.543  1.00  0.00    -0.562 NA 
HETATM    4  C   UNL     1     -12.853  13.960  65.555  1.00  0.00    -0.471 C  
HETATM    5  C   UNL     1     -11.893  12.142  64.145  1.00  0.00    -0.490 C  
HETATM    6  H   UNL     1     -11.877  10.944  66.359  1.00  0.00     0.000 HD 
ENDROOT
BRANCH   3   7
HETATM    7  C   UNL     1     -11.581  12.464  67.911  1.00  0.00    -0.356 C  
BRANCH   7   8
HETATM    8  C   UNL     1     -10.792  11.536  68.887  1.00  0.00    -0.218 C  
HETATM    9  H   UNL     1      -9.688   9.958  68.679  1.00  0.00     0.000 HD 
HETATM   10  O   UNL     1     -10.168  10.522  68.085  1.00  0.00    -0.153 OA 
BRANCH   8  11
HETATM   11  C   UNL     1     -11.611  10.912  70.013  1.00  0.00    -0.424 A  
HETATM   12  C   UNL     1     -11.511   9.534  70.276  1.00  0.00    -0.256 A  
HETATM   13  C   UNL     1     -12.216   8.914  71.324  1.00  0.00    -0.351 A  
HETATM   14  C   UNL     1     -13.132   9.689  72.042  1.00  0.00    -0.445 A  
HETATM   15  H   UNL     1     -14.537   9.686  73.518  1.00  0.00     0.000 HD 
HETATM   16  C   UNL     1     -13.284  11.043  71.780  1.00  0.00    -0.505 A  
HETATM   17  O   UNL     1     -13.915   9.160  73.030  1.00  0.00    -0.365 OA 
HETATM   18  C   UNL     1     -12.509  11.659  70.792  1.00  0.00    -0.425 A  
BRANCH  13  19
HETATM   19  C   UNL     1     -11.989   7.449  71.584  1.00  0.00    -0.307 C  
HETATM   20  O   UNL     1     -11.726   7.219  72.967  1.00  0.00    -0.564 OA 
HETATM   21  H   UNL     1     -11.583   6.294  73.131  1.00  0.00     0.000 HD 
ENDBRANCH  13  19
ENDBRANCH   8  11
ENDBRANCH   7   8
ENDBRANCH   3   7
TORSDOF 4
ENDMDL
MODEL       32
REMARK 921   NORMALIZED FREE ENERGY PREDICTED BY IDOCK:   -5.18 KCAL/MOL
REMARK 922        TOTAL FREE ENERGY PREDICTED BY IDOCK:   -7.10 KCAL/MOL
REMARK 923 INTER-LIGAND FREE ENERGY PREDICTED BY IDOCK:   -6.65 KCAL/MOL
REMARK 924 INTRA-LIGAND FREE ENERGY PREDICTED BY IDOCK:   -0.45 KCAL/MOL
REMARK 927      BINDING AFFINITY PREDICTED BY RF-SCORE:    0.00 PKD
ROOT
HETATM    1  C   UNL     1      -8.292   9.248  63.934  1.00  0.00    -0.179 C  
HETATM    2  C   UNL     1      -8.804  10.126  65.088  1.00  0.00    -0.183 C  
HETATM    3  N   UNL     1      -9.311  11.422  64.592  1.00  0.00    -0.385 NA 
HETATM    4  C   UNL     1      -9.845   9.362  65.918  1.00  0.00    -0.362 C  
HETATM    5  C   UNL     1      -7.610  10.462  66.006  1.00  0.00    -0.137 C  
HETATM    6  H   UNL     1      -8.889  12.308  64.869  1.00  0.00     0.000 HD 
ENDROOT
BRANCH   3   7
HETATM    7  C   UNL     1     -10.463  11.359  63.674  1.00  0.00    -0.414 C  
BRANCH   7   8
HETATM    8  C   UNL     1     -11.806  11.900  64.256  1.00  0.00    -0.279 C  
HETATM    9  H   UNL     1     -13.400  12.700  63.499  1.00  0.00     0.000 HD 
HETATM   10  O   UNL     1     -12.582  12.371  63.144  1.00  0.00    -0.591 OA 
BRANCH   8  11
HETATM   11  C   UNL     1     -11.676  12.980  65.326  1.00  0.00    -0.388 A  
HETATM   12  C   UNL     1     -11.235  14.269  64.974  1.00  0.00    -0.364 A  
HETATM   13  C   UNL     1     -11.132  15.311  65.914  1.00  0.00    -0.287 A  
HETATM   14  C   UNL     1     -11.365  15.004  67.258  1.00  0.00    -0.332 A  
HETATM   15  H   UNL     1     -11.377  15.722  69.165  1.00  0.00     0.000 HD 
HETATM   16  C   UNL     1     -11.761  13.731  67.642  1.00  0.00    -0.402 A  
HETATM   17  O   UNL     1     -11.218  15.931  68.252  1.00  0.00    -0.334 OA 
HETATM   18  C   UNL     1     -11.944  12.731  66.681  1.00  0.00    -0.411 A  
BRANCH  13  19
HETATM   19  C   UNL     1     -10.727  16.680  65.437  1.00  0.00    -0.215 C  
HETATM   20  O   UNL     1     -11.237  16.927  64.128  1.00  0.00    -1.386 OA 
HETATM   21  H   UNL     1     -10.982  17.791  63.826  1.00  0.00     0.000 HD 
ENDBRANCH  13  19
ENDBRANCH   8  11
ENDBRANCH   7   8
ENDBRANCH   3   7
TORSDOF 4
ENDMDL
MODEL       33
REMARK 921   NORMALIZED FREE ENERGY PREDICTED BY IDOCK:   -5.16 KCAL/MOL
REMARK 922        TOTAL FREE ENERGY PREDICTED BY IDOCK:   -7.07 KCAL/MOL
REMARK 923 INTER-LIGAND FREE ENERGY PREDICTED BY IDOCK:   -6.57 KCAL/MOL
REMARK 924 INTRA-LIGAND FREE ENERGY PREDICTED BY IDOCK:   -0.50 KCAL/MOL
REMARK 927      BINDING AFFINITY PREDICTED BY RF-SCORE:    0.00 PKD
ROOT
HETATM    1  C   UNL     1     -10.343  11.096  64.403  1.00  0.00    -0.407 C  
HETATM    2  C   UNL     1     -11.302  12.248  64.746  1.00  0.00    -0.323 C  
HETATM    3  N   UNL     1     -11.904  12.065  66.082  1.00  0.00    -0.555 NA 
HETATM    4  C   UNL     1     -10.586  13.599  64.601  1.00  0.00    -0.446 C  
HETATM    5  C   UNL     1     -12.474  12.216  63.745  1.00  0.00    -0.620 C  
HETATM    6  H   UNL     1     -12.910  11.955  66.210  1.00  0.00     0.000 HD 
ENDROOT
BRANCH   3   7
HETATM    7  C   UNL     1     -10.967  12.050  67.221  1.00  0.00    -0.262 C  
BRANCH   7   8
HETATM    8  C   UNL     1     -11.497  12.721  68.526  1.00  0.00    -0.309 C  
HETATM    9  H   UNL     1     -10.813  14.059  69.749  1.00  0.00     0.000 HD 
HETATM   10  O   UNL     1     -10.490  13.651  68.954  1.00  0.00    -0.226 OA 
BRANCH   8  11
HETATM   11  C   UNL     1     -11.872  11.766  69.655  1.00  0.00    -0.407 A  
HETATM   12  C   UNL     1     -11.458  10.423  69.608  1.00  0.00    -0.326 A  
HETATM   13  C   UNL     1     -11.745   9.510  70.639  1.00  0.00    -0.330 A  
HETATM   14  C   UNL     1     -12.572   9.941  71.681  1.00  0.00    -0.424 A  
HETATM   15  H   UNL     1     -13.528   9.398  73.397  1.00  0.00     0.000 HD 
HETATM   16  C   UNL     1     -13.032  11.249  71.735  1.00  0.00    -0.519 A  
HETATM   17  O   UNL     1     -12.966   9.106  72.689  1.00  0.00    -0.388 OA 
HETATM   18  C   UNL     1     -12.661  12.165  70.745  1.00  0.00    -0.220 A  
BRANCH  13  19
HETATM   19  C   UNL     1     -11.195   8.112  70.544  1.00  0.00    -0.247 C  
HETATM   20  O   UNL     1     -12.252   7.154  70.568  1.00  0.00    -0.559 OA 
HETATM   21  H   UNL     1     -11.905   6.271  70.508  1.00  0.00     0.000 HD 
ENDBRANCH  13  19
ENDBRANCH   8  11
ENDBRANCH   7   8
ENDBRANCH   3   7
TORSDOF 4
ENDMDL
MODEL       34
REMARK 921   NORMALIZED FREE ENERGY PREDICTED BY IDOCK:   -5.13 KCAL/MOL
REMARK 922        TOTAL FREE ENERGY PREDICTED BY IDOCK:   -7.04 KCAL/MOL
REMARK 923 INTER-LIGAND FREE ENERGY PREDICTED BY IDOCK:   -6.47 KCAL/MOL
REMARK 924 INTRA-LIGAND FREE ENERGY PREDICTED BY IDOCK:   -0.57 KCAL/MOL
REMARK 927      BINDING AFFINITY PREDICTED BY RF-SCORE:    0.00 PKD
ROOT
HETATM    1  C   UNL     1      -9.642  17.449  66.403  1.00  0.00    -0.291 C  
HETATM    2  C   UNL     1      -9.841  18.488  67.519  1.00  0.00    -0.310 C  
HETATM    3  N   UNL     1     -10.860  18.041  68.492  1.00  0.00    -0.242 NA 
HETATM    4  C   UNL     1      -8.497  18.823  68.182  1.00  0.00    -0.335 C  
HETATM    5  C   UNL     1     -10.399  19.778  66.884  1.00  0.00    -0.601 C  
HETATM    6  H   UNL     1     -11.724  18.560  68.645  1.00  0.00     0.000 HD 
ENDROOT
BRANCH   3   7
HETATM    7  C   UNL     1     -10.553  16.802  69.230  1.00  0.00    -0.336 C  
BRANCH   7   8
HETATM    8  C   UNL     1     -11.794  15.955  69.650  1.00  0.00    -0.290 C  
HETATM    9  H   UNL     1     -12.634  15.506  71.337  1.00  0.00     0.000 HD 
HETATM   10  O   UNL     1     -11.879  16.022  71.081  1.00  0.00    -0.402 OA 
BRANCH   8  11
HETATM   11  C   UNL     1     -11.798  14.506  69.171  1.00  0.00    -0.354 A  
HETATM   12  C   UNL     1     -11.916  13.458  70.102  1.00  0.00    -0.396 A  
HETATM   13  C   UNL     1     -11.961  12.107  69.712  1.00  0.00    -0.372 A  
HETATM   14  C   UNL     1     -11.763  11.811  68.360  1.00  0.00    -0.325 A  
HETATM   15  H   UNL     1     -11.582  10.324  66.977  1.00  0.00     0.000 HD 
HETATM   16  C   UNL     1     -11.602  12.821  67.422  1.00  0.00    -0.415 A  
HETATM   17  O   UNL     1     -11.717  10.526  67.896  1.00  0.00    -0.453 OA 
HETATM   18  C   UNL     1     -11.649  14.161  67.819  1.00  0.00    -0.379 A  
BRANCH  13  19
HETATM   19  C   UNL     1     -12.168  11.054  70.767  1.00  0.00    -0.380 C  
HETATM   20  O   UNL     1     -13.154  10.111  70.350  1.00  0.00    -0.590 OA 
HETATM   21  H   UNL     1     -13.285   9.446  71.016  1.00  0.00     0.000 HD 
ENDBRANCH  13  19
ENDBRANCH   8  11
ENDBRANCH   7   8
ENDBRANCH   3   7
TORSDOF 4
ENDMDL
MODEL       35
REMARK 921   NORMALIZED FREE ENERGY PREDICTED BY IDOCK:   -5.12 KCAL/MOL
REMARK 922        TOTAL FREE ENERGY PREDICTED BY IDOCK:   -7.03 KCAL/MOL
REMARK 923 INTER-LIGAND FREE ENERGY PREDICTED BY IDOCK:   -6.53 KCAL/MOL
REMARK 924 INTRA-LIGAND FREE ENERGY PREDICTED BY IDOCK:   -0.50 KCAL/MOL
REMARK 927      BINDING AFFINITY PREDICTED BY RF-SCORE:    0.00 PKD
ROOT
HETATM    1  C   UNL     1     -12.335  13.036  63.344  1.00  0.00    -0.478 C  
HETATM    2  C   UNL     1     -11.094  12.602  64.140  1.00  0.00    -0.382 C  
HETATM    3  N   UNL     1     -10.124  13.709  64.268  1.00  0.00    -0.763 NA 
HETATM    4  C   UNL     1     -11.508  12.019  65.498  1.00  0.00    -0.368 C  
HETATM    5  C   UNL     1     -10.371  11.496  63.343  1.00  0.00    -0.469 C  
HETATM    6  H   UNL     1      -9.184  13.651  63.877  1.00  0.00     0.000 HD 
ENDROOT
BRANCH   3   7
HETATM    7  C   UNL     1     -10.595  14.903  64.994  1.00  0.00    -0.422 C  
BRANCH   7   8
HETATM    8  C   UNL     1      -9.879  15.179  66.353  1.00  0.00    -0.280 C  
HETATM    9  H   UNL     1     -10.441  15.237  68.206  1.00  0.00     0.000 HD 
HETATM   10  O   UNL     1     -10.877  15.070  67.379  1.00  0.00    -0.290 OA 
BRANCH   8  11
HETATM   11  C   UNL     1      -9.139  16.509  66.453  1.00  0.00    -0.332 A  
HETATM   12  C   UNL     1      -9.824  17.715  66.217  1.00  0.00    -0.297 A  
HETATM   13  C   UNL     1      -9.199  18.970  66.331  1.00  0.00    -0.350 A  
HETATM   14  C   UNL     1      -7.821  18.995  66.571  1.00  0.00    -0.268 A  
HETATM   15  H   UNL     1      -6.178  20.179  66.788  1.00  0.00     0.000 HD 
HETATM   16  C   UNL     1      -7.109  17.820  66.766  1.00  0.00    -0.236 A  
HETATM   17  O   UNL     1      -7.114  20.162  66.625  1.00  0.00    -0.230 OA 
HETATM   18  C   UNL     1      -7.766  16.586  66.737  1.00  0.00    -0.294 A  
BRANCH  13  19
HETATM   19  C   UNL     1     -10.027  20.212  66.139  1.00  0.00    -0.414 C  
HETATM   20  O   UNL     1      -9.724  21.178  67.144  1.00  0.00    -0.655 OA 
HETATM   21  H   UNL     1     -10.246  21.963  67.023  1.00  0.00     0.000 HD 
ENDBRANCH  13  19
ENDBRANCH   8  11
ENDBRANCH   7   8
ENDBRANCH   3   7
TORSDOF 4
ENDMDL
MODEL       36
REMARK 921   NORMALIZED FREE ENERGY PREDICTED BY IDOCK:   -5.09 KCAL/MOL
REMARK 922        TOTAL FREE ENERGY PREDICTED BY IDOCK:   -6.99 KCAL/MOL
REMARK 923 INTER-LIGAND FREE ENERGY PREDICTED BY IDOCK:   -6.56 KCAL/MOL
REMARK 924 INTRA-LIGAND FREE ENERGY PREDICTED BY IDOCK:   -0.43 KCAL/MOL
REMARK 927      BINDING AFFINITY PREDICTED BY RF-SCORE:    0.00 PKD
ROOT
HETATM    1  C   UNL     1      -9.983   7.741  71.403  1.00  0.00    -0.207 C  
HETATM    2  C   UNL     1     -11.300   7.592  70.624  1.00  0.00    -0.281 C  
HETATM    3  N   UNL     1     -11.680   8.858  69.965  1.00  0.00    -0.444 NA 
HETATM    4  C   UNL     1     -11.206   6.418  69.639  1.00  0.00    -0.483 C  
HETATM    5  C   UNL     1     -12.426   7.285  71.632  1.00  0.00    -0.394 C  
HETATM    6  H   UNL     1     -12.542   9.350  70.197  1.00  0.00     0.000 HD 
ENDROOT
BRANCH   3   7
HETATM    7  C   UNL     1     -10.739   9.370  68.951  1.00  0.00    -0.178 C  
BRANCH   7   8
HETATM    8  C   UNL     1     -11.029  10.818  68.446  1.00  0.00    -0.248 C  
HETATM    9  H   UNL     1     -12.555  12.010  68.520  1.00  0.00     0.000 HD 
HETATM   10  O   UNL     1     -12.378  11.129  68.827  1.00  0.00    -0.539 OA 
BRANCH   8  11
HETATM   11  C   UNL     1     -10.818  11.052  66.953  1.00  0.00    -0.324 A  
HETATM   12  C   UNL     1     -11.346  12.202  66.339  1.00  0.00    -0.411 A  
HETATM   13  C   UNL     1     -11.149  12.485  64.975  1.00  0.00    -0.335 A  
HETATM   14  C   UNL     1     -10.506  11.520  64.194  1.00  0.00    -0.353 A  
HETATM   15  H   UNL     1      -9.896  11.016  62.316  1.00  0.00     0.000 HD 
HETATM   16  C   UNL     1     -10.010  10.355  64.762  1.00  0.00    -0.409 A  
HETATM   17  O   UNL     1     -10.333  11.672  62.847  1.00  0.00    -0.262 OA 
HETATM   18  C   UNL     1     -10.137  10.134  66.138  1.00  0.00    -0.314 A  
BRANCH  13  19
HETATM   19  C   UNL     1     -11.683  13.777  64.419  1.00  0.00    -0.408 C  
HETATM   20  O   UNL     1     -12.324  13.558  63.163  1.00  0.00    -0.968 OA 
HETATM   21  H   UNL     1     -12.661  14.373  62.812  1.00  0.00     0.000 HD 
ENDBRANCH  13  19
ENDBRANCH   8  11
ENDBRANCH   7   8
ENDBRANCH   3   7
TORSDOF 4
ENDMDL
MODEL       37
REMARK 921   NORMALIZED FREE ENERGY PREDICTED BY IDOCK:   -5.08 KCAL/MOL
REMARK 922        TOTAL FREE ENERGY PREDICTED BY IDOCK:   -6.98 KCAL/MOL
REMARK 923 INTER-LIGAND FREE ENERGY PREDICTED BY IDOCK:   -6.59 KCAL/MOL
REMARK 924 INTRA-LIGAND FREE ENERGY PREDICTED BY IDOCK:   -0.39 KCAL/MOL
REMARK 927      BINDING AFFINITY PREDICTED BY RF-SCORE:    0.00 PKD
ROOT
HETATM    1  C   UNL     1     -10.404   8.208  72.676  1.00  0.00    -0.398 C  
HETATM    2  C   UNL     1     -10.974   7.579  71.394  1.00  0.00    -0.231 C  
HETATM    3  N   UNL     1     -11.616   8.596  70.537  1.00  0.00    -0.431 NA 
HETATM    4  C   UNL     1      -9.882   6.788  70.658  1.00  0.00    -0.191 C  
HETATM    5  C   UNL     1     -12.093   6.595  71.794  1.00  0.00    -0.400 C  
HETATM    6  H   UNL     1     -12.609   8.559  70.308  1.00  0.00     0.000 HD 
ENDROOT
BRANCH   3   7
HETATM    7  C   UNL     1     -10.737   9.666  70.030  1.00  0.00    -0.259 C  
BRANCH   7   8
HETATM    8  C   UNL     1     -11.472  10.857  69.338  1.00  0.00    -0.302 C  
HETATM    9  H   UNL     1     -10.957  12.229  68.072  1.00  0.00     0.000 HD 
HETATM   10  O   UNL     1     -10.510  11.505  68.493  1.00  0.00    -0.194 OA 
BRANCH   8  11
HETATM   11  C   UNL     1     -12.135  11.860  70.277  1.00  0.00    -0.409 A  
HETATM   12  C   UNL     1     -11.978  13.240  70.056  1.00  0.00    -0.399 A  
HETATM   13  C   UNL     1     -12.598  14.207  70.869  1.00  0.00    -0.433 A  
HETATM   14  C   UNL     1     -13.290  13.764  72.000  1.00  0.00    -0.447 A  
HETATM   15  H   UNL     1     -14.333  14.329  73.657  1.00  0.00     0.000 HD 
HETATM   16  C   UNL     1     -13.427  12.409  72.269  1.00  0.00    -0.428 A  
HETATM   17  O   UNL     1     -13.863  14.630  72.889  1.00  0.00    -0.534 OA 
HETATM   18  C   UNL     1     -12.879  11.461  71.398  1.00  0.00    -0.502 A  
BRANCH  13  19
HETATM   19  C   UNL     1     -12.441  15.661  70.514  1.00  0.00    -0.398 C  
HETATM   20  O   UNL     1     -12.054  16.420  71.658  1.00  0.00    -0.632 OA 
HETATM   21  H   UNL     1     -11.955  17.338  71.434  1.00  0.00     0.000 HD 
ENDBRANCH  13  19
ENDBRANCH   8  11
ENDBRANCH   7   8
ENDBRANCH   3   7
TORSDOF 4
ENDMDL
MODEL       38
REMARK 921   NORMALIZED FREE ENERGY PREDICTED BY IDOCK:   -5.08 KCAL/MOL
REMARK 922        TOTAL FREE ENERGY PREDICTED BY IDOCK:   -6.98 KCAL/MOL
REMARK 923 INTER-LIGAND FREE ENERGY PREDICTED BY IDOCK:   -6.35 KCAL/MOL
REMARK 924 INTRA-LIGAND FREE ENERGY PREDICTED BY IDOCK:   -0.63 KCAL/MOL
REMARK 927      BINDING AFFINITY PREDICTED BY RF-SCORE:    0.00 PKD
ROOT
HETATM    1  C   UNL     1     -13.142  13.782  71.879  1.00  0.00    -0.474 C  
HETATM    2  C   UNL     1     -12.144  14.645  71.089  1.00  0.00    -0.342 C  
HETATM    3  N   UNL     1     -11.258  13.810  70.253  1.00  0.00    -0.465 NA 
HETATM    4  C   UNL     1     -12.890  15.714  70.277  1.00  0.00    -0.160 C  
HETATM    5  C   UNL     1     -11.223  15.363  72.096  1.00  0.00    -0.320 C  
HETATM    6  H   UNL     1     -10.248  13.790  70.391  1.00  0.00     0.000 HD 
ENDROOT
BRANCH   3   7
HETATM    7  C   UNL     1     -11.919  13.008  69.206  1.00  0.00    -0.278 C  
BRANCH   7   8
HETATM    8  C   UNL     1     -11.064  12.754  67.926  1.00  0.00    -0.246 C  
HETATM    9  H   UNL     1      -9.203  12.336  67.586  1.00  0.00     0.000 HD 
HETATM   10  O   UNL     1      -9.723  12.491  68.365  1.00  0.00    -0.221 OA 
BRANCH   8  11
HETATM   11  C   UNL     1     -11.087  13.868  66.884  1.00  0.00    -0.309 A  
HETATM   12  C   UNL     1     -10.442  15.090  67.146  1.00  0.00    -0.277 A  
HETATM   13  C   UNL     1     -10.401  16.137  66.207  1.00  0.00    -0.337 A  
HETATM   14  C   UNL     1     -11.133  15.982  65.025  1.00  0.00    -0.336 A  
HETATM   15  H   UNL     1     -11.711  16.867  63.283  1.00  0.00     0.000 HD 
HETATM   16  C   UNL     1     -11.814  14.804  64.755  1.00  0.00    -0.425 A  
HETATM   17  O   UNL     1     -11.214  16.971  64.086  1.00  0.00    -1.130 OA 
HETATM   18  C   UNL     1     -11.769  13.742  65.663  1.00  0.00    -0.360 A  
BRANCH  13  19
HETATM   19  C   UNL     1      -9.622  17.380  66.540  1.00  0.00    -0.280 C  
HETATM   20  O   UNL     1     -10.478  18.521  66.557  1.00  0.00    -0.389 OA 
HETATM   21  H   UNL     1      -9.987  19.306  66.767  1.00  0.00     0.000 HD 
ENDBRANCH  13  19
ENDBRANCH   8  11
ENDBRANCH   7   8
ENDBRANCH   3   7
TORSDOF 4
ENDMDL
MODEL       39
REMARK 921   NORMALIZED FREE ENERGY PREDICTED BY IDOCK:   -5.08 KCAL/MOL
REMARK 922        TOTAL FREE ENERGY PREDICTED BY IDOCK:   -6.97 KCAL/MOL
REMARK 923 INTER-LIGAND FREE ENERGY PREDICTED BY IDOCK:   -6.76 KCAL/MOL
REMARK 924 INTRA-LIGAND FREE ENERGY PREDICTED BY IDOCK:   -0.21 KCAL/MOL
REMARK 927      BINDING AFFINITY PREDICTED BY RF-SCORE:    0.00 PKD
ROOT
HETATM    1  C   UNL     1      -9.400   9.587  70.511  1.00  0.00    -0.296 C  
HETATM    2  C   UNL     1     -10.742   9.198  69.870  1.00  0.00    -0.231 C  
HETATM    3  N   UNL     1     -11.055  10.062  68.714  1.00  0.00    -0.390 NA 
HETATM    4  C   UNL     1     -10.748   7.705  69.511  1.00  0.00    -0.211 C  
HETATM    5  C   UNL     1     -11.861   9.448  70.901  1.00  0.00    -0.365 C  
HETATM    6  H   UNL     1     -11.879  10.664  68.697  1.00  0.00     0.000 HD 
ENDROOT
BRANCH   3   7
HETATM    7  C   UNL     1     -10.108  10.004  67.585  1.00  0.00    -0.190 C  
BRANCH   7   8
HETATM    8  C   UNL     1      -9.540  11.383  67.124  1.00  0.00    -0.179 C  
HETATM    9  H   UNL     1      -8.988  13.005  68.028  1.00  0.00     0.000 HD 
HETATM   10  O   UNL     1      -9.333  12.166  68.309  1.00  0.00    -0.198 OA 
BRANCH   8  11
HETATM   11  C   UNL     1     -10.391  12.143  66.111  1.00  0.00    -0.264 A  
HETATM   12  C   UNL     1     -10.291  13.543  66.017  1.00  0.00    -0.303 A  
HETATM   13  C   UNL     1     -11.025  14.289  65.077  1.00  0.00    -0.394 A  
HETATM   14  C   UNL     1     -11.969  13.611  64.299  1.00  0.00    -0.445 A  
HETATM   15  H   UNL     1     -13.422  13.799  62.882  1.00  0.00     0.000 HD 
HETATM   16  C   UNL     1     -12.122  12.235  64.398  1.00  0.00    -0.481 A  
HETATM   17  O   UNL     1     -12.781  14.260  63.411  1.00  0.00    -0.733 OA 
HETATM   18  C   UNL     1     -11.319  11.500  65.276  1.00  0.00    -0.150 A  
BRANCH  13  19
HETATM   19  C   UNL     1     -10.798  15.774  64.992  1.00  0.00    -0.443 C  
HETATM   20  O   UNL     1     -11.460  16.320  63.853  1.00  0.00    -1.484 OA 
HETATM   21  H   UNL     1     -11.317  17.258  63.799  1.00  0.00     0.000 HD 
ENDBRANCH  13  19
ENDBRANCH   8  11
ENDBRANCH   7   8
ENDBRANCH   3   7
TORSDOF 4
ENDMDL
MODEL       40
REMARK 921   NORMALIZED FREE ENERGY PREDICTED BY IDOCK:   -5.06 KCAL/MOL
REMARK 922        TOTAL FREE ENERGY PREDICTED BY IDOCK:   -6.96 KCAL/MOL
REMARK 923 INTER-LIGAND FREE ENERGY PREDICTED BY IDOCK:   -6.34 KCAL/MOL
REMARK 924 INTRA-LIGAND FREE ENERGY PREDICTED BY IDOCK:   -0.62 KCAL/MOL
REMARK 927      BINDING AFFINITY PREDICTED BY RF-SCORE:    0.00 PKD
ROOT
HETATM    1  C   UNL     1     -12.896   9.625  71.796  1.00  0.00    -0.514 C  
HETATM    2  C   UNL     1     -11.999   8.446  71.386  1.00  0.00    -0.297 C  
HETATM    3  N   UNL     1     -11.580   8.556  69.973  1.00  0.00    -0.451 NA 
HETATM    4  C   UNL     1     -10.809   8.321  72.348  1.00  0.00    -0.421 C  
HETATM    5  C   UNL     1     -12.830   7.149  71.480  1.00  0.00    -0.434 C  
HETATM    6  H   UNL     1     -11.836   7.856  69.278  1.00  0.00     0.000 HD 
ENDROOT
BRANCH   3   7
HETATM    7  C   UNL     1     -10.769   9.739  69.628  1.00  0.00    -0.242 C  
BRANCH   7   8
HETATM    8  C   UNL     1     -11.190  10.472  68.317  1.00  0.00    -0.291 C  
HETATM    9  H   UNL     1     -10.495  10.549  66.510  1.00  0.00     0.000 HD 
HETATM   10  O   UNL     1     -10.238  10.102  67.308  1.00  0.00    -0.197 OA 
BRANCH   8  11
HETATM   11  C   UNL     1     -11.314  11.990  68.418  1.00  0.00    -0.332 A  
HETATM   12  C   UNL     1     -11.909  12.573  69.551  1.00  0.00    -0.375 A  
HETATM   13  C   UNL     1     -12.015  13.967  69.712  1.00  0.00    -0.398 A  
HETATM   14  C   UNL     1     -11.617  14.779  68.647  1.00  0.00    -0.319 A  
HETATM   15  H   UNL     1     -11.478  16.692  67.956  1.00  0.00     0.000 HD 
HETATM   16  C   UNL     1     -11.063  14.232  67.498  1.00  0.00    -0.309 A  
HETATM   17  O   UNL     1     -11.749  16.139  68.680  1.00  0.00    -0.362 OA 
HETATM   18  C   UNL     1     -10.885  12.849  67.395  1.00  0.00    -0.272 A  
BRANCH  13  19
HETATM   19  C   UNL     1     -12.595  14.507  70.992  1.00  0.00    -0.340 C  
HETATM   20  O   UNL     1     -13.463  15.607  70.725  1.00  0.00    -0.785 OA 
HETATM   21  H   UNL     1     -13.830  15.948  71.532  1.00  0.00     0.000 HD 
ENDBRANCH  13  19
ENDBRANCH   8  11
ENDBRANCH   7   8
ENDBRANCH   3   7
TORSDOF 4
ENDMDL
MODEL       41
REMARK 921   NORMALIZED FREE ENERGY PREDICTED BY IDOCK:   -5.05 KCAL/MOL
REMARK 922        TOTAL FREE ENERGY PREDICTED BY IDOCK:   -6.94 KCAL/MOL
REMARK 923 INTER-LIGAND FREE ENERGY PREDICTED BY IDOCK:   -6.62 KCAL/MOL
REMARK 924 INTRA-LIGAND FREE ENERGY PREDICTED BY IDOCK:   -0.31 KCAL/MOL
REMARK 927      BINDING AFFINITY PREDICTED BY RF-SCORE:    0.00 PKD
ROOT
HETATM    1  C   UNL     1      -8.605  18.415  66.362  1.00  0.00    -0.264 C  
HETATM    2  C   UNL     1     -10.139  18.491  66.285  1.00  0.00    -0.398 C  
HETATM    3  N   UNL     1     -10.679  17.488  65.345  1.00  0.00    -0.586 NA 
HETATM    4  C   UNL     1     -10.749  18.375  67.689  1.00  0.00    -0.390 C  
HETATM    5  C   UNL     1     -10.526  19.867  65.705  1.00  0.00    -0.518 C  
HETATM    6  H   UNL     1     -11.199  17.757  64.510  1.00  0.00     0.000 HD 
ENDROOT
BRANCH   3   7
HETATM    7  C   UNL     1     -10.424  16.076  65.685  1.00  0.00    -0.397 C  
BRANCH   7   8
HETATM    8  C   UNL     1     -10.843  15.044  64.592  1.00  0.00    -0.269 C  
HETATM    9  H   UNL     1     -12.435  14.753  63.527  1.00  0.00     0.000 HD 
HETATM   10  O   UNL     1     -12.180  15.381  64.192  1.00  0.00    -0.598 OA 
BRANCH   8  11
HETATM   11  C   UNL     1     -10.750  13.576  64.998  1.00  0.00    -0.366 A  
HETATM   12  C   UNL     1     -11.043  13.192  66.319  1.00  0.00    -0.308 A  
HETATM   13  C   UNL     1     -11.008  11.849  66.737  1.00  0.00    -0.337 A  
HETATM   14  C   UNL     1     -10.549  10.893  65.826  1.00  0.00    -0.163 A  
HETATM   15  H   UNL     1     -10.099   8.926  65.542  1.00  0.00     0.000 HD 
HETATM   16  C   UNL     1     -10.212  11.247  64.527  1.00  0.00    -0.370 A  
HETATM   17  O   UNL     1     -10.411   9.575  66.162  1.00  0.00    -0.233 OA 
HETATM   18  C   UNL     1     -10.340  12.574  64.105  1.00  0.00    -0.416 A  
BRANCH  13  19
HETATM   19  C   UNL     1     -11.412  11.518  68.148  1.00  0.00    -0.315 C  
HETATM   20  O   UNL     1     -11.889  10.176  68.233  1.00  0.00    -0.697 OA 
HETATM   21  H   UNL     1     -12.144   9.967  69.124  1.00  0.00     0.000 HD 
ENDBRANCH  13  19
ENDBRANCH   8  11
ENDBRANCH   7   8
ENDBRANCH   3   7
TORSDOF 4
ENDMDL
MODEL       42
REMARK 921   NORMALIZED FREE ENERGY PREDICTED BY IDOCK:   -5.03 KCAL/MOL
REMARK 922        TOTAL FREE ENERGY PREDICTED BY IDOCK:   -6.91 KCAL/MOL
REMARK 923 INTER-LIGAND FREE ENERGY PREDICTED BY IDOCK:   -6.58 KCAL/MOL
REMARK 924 INTRA-LIGAND FREE ENERGY PREDICTED BY IDOCK:   -0.33 KCAL/MOL
REMARK 927      BINDING AFFINITY PREDICTED BY RF-SCORE:    0.00 PKD
ROOT
HETATM    1  C   UNL     1     -10.263  19.960  68.103  1.00  0.00    -0.564 C  
HETATM    2  C   UNL     1      -8.953  19.180  67.900  1.00  0.00    -0.303 C  
HETATM    3  N   UNL     1      -9.094  17.774  68.329  1.00  0.00    -0.274 NA 
HETATM    4  C   UNL     1      -8.477  19.310  66.446  1.00  0.00    -0.342 C  
HETATM    5  C   UNL     1      -7.876  19.797  68.815  1.00  0.00    -0.262 C  
HETATM    6  H   UNL     1      -8.535  17.383  69.088  1.00  0.00     0.000 HD 
ENDROOT
BRANCH   3   7
HETATM    7  C   UNL     1     -10.089  16.968  67.597  1.00  0.00    -0.298 C  
BRANCH   7   8
HETATM    8  C   UNL     1     -11.213  16.340  68.479  1.00  0.00    -0.359 C  
HETATM    9  H   UNL     1     -11.602  16.306  70.377  1.00  0.00     0.000 HD 
HETATM   10  O   UNL     1     -10.918  16.689  69.840  1.00  0.00    -0.347 OA 
BRANCH   8  11
HETATM   11  C   UNL     1     -11.405  14.833  68.332  1.00  0.00    -0.317 A  
HETATM   12  C   UNL     1     -11.574  14.267  67.056  1.00  0.00    -0.406 A  
HETATM   13  C   UNL     1     -11.718  12.881  66.861  1.00  0.00    -0.445 A  
HETATM   14  C   UNL     1     -11.812  12.068  67.995  1.00  0.00    -0.269 A  
HETATM   15  H   UNL     1     -12.090  10.169  68.679  1.00  0.00     0.000 HD 
HETATM   16  C   UNL     1     -11.691  12.603  69.270  1.00  0.00    -0.379 A  
HETATM   17  O   UNL     1     -12.026  10.721  67.909  1.00  0.00    -0.518 OA 
HETATM   18  C   UNL     1     -11.459  13.972  69.439  1.00  0.00    -0.343 A  
BRANCH  13  19
HETATM   19  C   UNL     1     -11.814  12.352  65.455  1.00  0.00    -0.412 C  
HETATM   20  O   UNL     1     -12.941  12.913  64.784  1.00  0.00    -0.743 OA 
HETATM   21  H   UNL     1     -13.002  12.580  63.896  1.00  0.00     0.000 HD 
ENDBRANCH  13  19
ENDBRANCH   8  11
ENDBRANCH   7   8
ENDBRANCH   3   7
TORSDOF 4
ENDMDL
MODEL       43
REMARK 921   NORMALIZED FREE ENERGY PREDICTED BY IDOCK:   -5.00 KCAL/MOL
REMARK 922        TOTAL FREE ENERGY PREDICTED BY IDOCK:   -6.88 KCAL/MOL
REMARK 923 INTER-LIGAND FREE ENERGY PREDICTED BY IDOCK:   -6.34 KCAL/MOL
REMARK 924 INTRA-LIGAND FREE ENERGY PREDICTED BY IDOCK:   -0.54 KCAL/MOL
REMARK 927      BINDING AFFINITY PREDICTED BY RF-SCORE:    0.00 PKD
ROOT
HETATM    1  C   UNL     1     -11.474   7.353  72.185  1.00  0.00    -0.322 C  
HETATM    2  C   UNL     1     -10.921   7.434  70.752  1.00  0.00    -0.255 C  
HETATM    3  N   UNL     1     -11.362   8.672  70.076  1.00  0.00    -0.448 NA 
HETATM    4  C   UNL     1      -9.393   7.277  70.761  1.00  0.00    -0.160 C  
HETATM    5  C   UNL     1     -11.519   6.270  69.936  1.00  0.00    -0.459 C  
HETATM    6  H   UNL     1     -11.940   8.651  69.237  1.00  0.00     0.000 HD 
ENDROOT
BRANCH   3   7
HETATM    7  C   UNL     1     -10.917   9.938  70.687  1.00  0.00    -0.337 C  
BRANCH   7   8
HETATM    8  C   UNL     1     -11.993  11.067  70.732  1.00  0.00    -0.333 C  
HETATM    9  H   UNL     1     -13.930  11.108  70.755  1.00  0.00     0.000 HD 
HETATM   10  O   UNL     1     -13.275  10.421  70.727  1.00  0.00    -0.375 OA 
BRANCH   8  11
HETATM   11  C   UNL     1     -11.905  12.110  69.621  1.00  0.00    -0.391 A  
HETATM   12  C   UNL     1     -11.782  11.701  68.281  1.00  0.00    -0.374 A  
HETATM   13  C   UNL     1     -11.733  12.619  67.215  1.00  0.00    -0.435 A  
HETATM   14  C   UNL     1     -11.688  13.981  67.529  1.00  0.00    -0.387 A  
HETATM   15  H   UNL     1     -11.537  15.870  66.779  1.00  0.00     0.000 HD 
HETATM   16  C   UNL     1     -11.766  14.415  68.844  1.00  0.00    -0.357 A  
HETATM   17  O   UNL     1     -11.567  14.944  66.567  1.00  0.00    -0.339 OA 
HETATM   18  C   UNL     1     -11.904  13.488  69.883  1.00  0.00    -0.386 A  
BRANCH  13  19
HETATM   19  C   UNL     1     -11.680  12.092  65.807  1.00  0.00    -0.327 C  
HETATM   20  O   UNL     1     -12.694  12.696  65.006  1.00  0.00    -0.658 OA 
HETATM   21  H   UNL     1     -12.661  12.364  64.116  1.00  0.00     0.000 HD 
ENDBRANCH  13  19
ENDBRANCH   8  11
ENDBRANCH   7   8
ENDBRANCH   3   7
TORSDOF 4
ENDMDL
MODEL       44
REMARK 921   NORMALIZED FREE ENERGY PREDICTED BY IDOCK:   -5.00 KCAL/MOL
REMARK 922        TOTAL FREE ENERGY PREDICTED BY IDOCK:   -6.87 KCAL/MOL
REMARK 923 INTER-LIGAND FREE ENERGY PREDICTED BY IDOCK:   -6.42 KCAL/MOL
REMARK 924 INTRA-LIGAND FREE ENERGY PREDICTED BY IDOCK:   -0.45 KCAL/MOL
REMARK 927      BINDING AFFINITY PREDICTED BY RF-SCORE:    0.00 PKD
ROOT
HETATM    1  C   UNL     1     -11.765  15.567  72.423  1.00  0.00    -0.570 C  
HETATM    2  C   UNL     1     -12.696  15.221  71.249  1.00  0.00    -0.401 C  
HETATM    3  N   UNL     1     -12.515  16.164  70.126  1.00  0.00    -0.440 NA 
HETATM    4  C   UNL     1     -12.503  13.757  70.830  1.00  0.00    -0.441 C  
HETATM    5  C   UNL     1     -14.154  15.399  71.720  1.00  0.00    -0.630 C  
HETATM    6  H   UNL     1     -13.271  16.764  69.798  1.00  0.00     0.000 HD 
ENDROOT
BRANCH   3   7
HETATM    7  C   UNL     1     -11.177  16.185  69.506  1.00  0.00    -0.337 C  
BRANCH   7   8
HETATM    8  C   UNL     1     -11.112  16.836  68.089  1.00  0.00    -0.254 C  
HETATM    9  H   UNL     1     -10.693  16.196  66.310  1.00  0.00     0.000 HD 
HETATM   10  O   UNL     1     -10.732  15.799  67.172  1.00  0.00    -0.314 OA 
BRANCH   8  11
HETATM   11  C   UNL     1     -10.189  18.044  67.958  1.00  0.00    -0.390 A  
HETATM   12  C   UNL     1      -8.811  17.907  68.204  1.00  0.00    -0.265 A  
HETATM   13  C   UNL     1      -7.911  18.979  68.062  1.00  0.00    -0.322 A  
HETATM   14  C   UNL     1      -8.440  20.243  67.783  1.00  0.00    -0.205 A  
HETATM   15  H   UNL     1      -8.013  22.217  67.509  1.00  0.00     0.000 HD 
HETATM   16  C   UNL     1      -9.801  20.419  67.576  1.00  0.00    -0.564 A  
HETATM   17  O   UNL     1      -7.654  21.358  67.699  1.00  0.00    -0.292 OA 
HETATM   18  C   UNL     1     -10.668  19.323  67.634  1.00  0.00    -0.533 A  
BRANCH  13  19
HETATM   19  C   UNL     1      -6.442  18.725  68.268  1.00  0.00    -0.222 C  
HETATM   20  O   UNL     1      -5.947  19.496  69.361  1.00  0.00    -0.241 OA 
HETATM   21  H   UNL     1      -5.019  19.335  69.491  1.00  0.00     0.000 HD 
ENDBRANCH  13  19
ENDBRANCH   8  11
ENDBRANCH   7   8
ENDBRANCH   3   7
TORSDOF 4
ENDMDL
MODEL       45
REMARK 921   NORMALIZED FREE ENERGY PREDICTED BY IDOCK:   -4.98 KCAL/MOL
REMARK 922        TOTAL FREE ENERGY PREDICTED BY IDOCK:   -6.86 KCAL/MOL
REMARK 923 INTER-LIGAND FREE ENERGY PREDICTED BY IDOCK:   -6.19 KCAL/MOL
REMARK 924 INTRA-LIGAND FREE ENERGY PREDICTED BY IDOCK:   -0.67 KCAL/MOL
REMARK 927      BINDING AFFINITY PREDICTED BY RF-SCORE:    0.00 PKD
ROOT
HETATM    1  C   UNL     1      -9.498   9.674  70.122  1.00  0.00    -0.298 C  
HETATM    2  C   UNL     1     -10.562  10.431  69.309  1.00  0.00    -0.232 C  
HETATM    3  N   UNL     1     -10.162  11.834  69.077  1.00  0.00    -0.408 NA 
HETATM    4  C   UNL     1     -10.869   9.680  68.005  1.00  0.00    -0.250 C  
HETATM    5  C   UNL     1     -11.857  10.492  70.144  1.00  0.00    -0.404 C  
HETATM    6  H   UNL     1     -10.709  12.617  69.436  1.00  0.00     0.000 HD 
ENDROOT
BRANCH   3   7
HETATM    7  C   UNL     1      -8.927  12.037  68.297  1.00  0.00    -0.186 C  
BRANCH   7   8
HETATM    8  C   UNL     1      -8.816  13.418  67.578  1.00  0.00    -0.210 C  
HETATM    9  H   UNL     1      -8.842  15.266  68.157  1.00  0.00     0.000 HD 
HETATM   10  O   UNL     1      -8.910  14.426  68.595  1.00  0.00    -0.183 OA 
BRANCH   8  11
HETATM   11  C   UNL     1      -9.832  13.668  66.467  1.00  0.00    -0.295 A  
HETATM   12  C   UNL     1     -10.043  12.695  65.474  1.00  0.00    -0.279 A  
HETATM   13  C   UNL     1     -10.993  12.859  64.449  1.00  0.00    -0.400 A  
HETATM   14  C   UNL     1     -11.654  14.088  64.363  1.00  0.00    -0.369 A  
HETATM   15  H   UNL     1     -12.989  15.203  63.302  1.00  0.00     0.000 HD 
HETATM   16  C   UNL     1     -11.437  15.085  65.303  1.00  0.00    -0.308 A  
HETATM   17  O   UNL     1     -12.540  14.369  63.360  1.00  0.00    -0.729 OA 
HETATM   18  C   UNL     1     -10.554  14.867  66.366  1.00  0.00    -0.307 A  
BRANCH  13  19
HETATM   19  C   UNL     1     -11.210  11.733  63.474  1.00  0.00    -0.408 C  
HETATM   20  O   UNL     1     -12.597  11.593  63.169  1.00  0.00    -0.926 OA 
HETATM   21  H   UNL     1     -12.734  10.882  62.554  1.00  0.00     0.000 HD 
ENDBRANCH  13  19
ENDBRANCH   8  11
ENDBRANCH   7   8
ENDBRANCH   3   7
TORSDOF 4
ENDMDL
MODEL       46
REMARK 921   NORMALIZED FREE ENERGY PREDICTED BY IDOCK:   -4.98 KCAL/MOL
REMARK 922        TOTAL FREE ENERGY PREDICTED BY IDOCK:   -6.86 KCAL/MOL
REMARK 923 INTER-LIGAND FREE ENERGY PREDICTED BY IDOCK:   -6.49 KCAL/MOL
REMARK 924 INTRA-LIGAND FREE ENERGY PREDICTED BY IDOCK:   -0.37 KCAL/MOL
REMARK 927      BINDING AFFINITY PREDICTED BY RF-SCORE:    0.00 PKD
ROOT
HETATM    1  C   UNL     1     -10.699  14.657  64.660  1.00  0.00    -0.309 C  
HETATM    2  C   UNL     1     -11.662  13.477  64.872  1.00  0.00    -0.357 C  
HETATM    3  N   UNL     1     -11.026  12.399  65.657  1.00  0.00    -0.277 NA 
HETATM    4  C   UNL     1     -12.976  13.968  65.497  1.00  0.00    -0.353 C  
HETATM    5  C   UNL     1     -11.986  12.863  63.494  1.00  0.00    -0.629 C  
HETATM    6  H   UNL     1     -10.882  11.466  65.274  1.00  0.00     0.000 HD 
ENDROOT
BRANCH   3   7
HETATM    7  C   UNL     1     -10.611  12.753  67.028  1.00  0.00    -0.240 C  
BRANCH   7   8
HETATM    8  C   UNL     1     -10.845  11.643  68.099  1.00  0.00    -0.217 C  
HETATM    9  H   UNL     1     -11.638   9.875  68.084  1.00  0.00     0.000 HD 
HETATM   10  O   UNL     1     -11.495  10.551  67.432  1.00  0.00    -0.405 OA 
BRANCH   8  11
HETATM   11  C   UNL     1     -11.631  12.072  69.335  1.00  0.00    -0.393 A  
HETATM   12  C   UNL     1     -12.223  11.102  70.163  1.00  0.00    -0.417 A  
HETATM   13  C   UNL     1     -12.927  11.440  71.334  1.00  0.00    -0.468 A  
HETATM   14  C   UNL     1     -13.135  12.797  71.601  1.00  0.00    -0.331 A  
HETATM   15  H   UNL     1     -14.010  14.144  72.855  1.00  0.00     0.000 HD 
HETATM   16  C   UNL     1     -12.599  13.778  70.780  1.00  0.00    -0.410 A  
HETATM   17  O   UNL     1     -13.868  13.223  72.673  1.00  0.00    -0.712 OA 
HETATM   18  C   UNL     1     -11.826  13.420  69.670  1.00  0.00    -0.394 A  
BRANCH  13  19
HETATM   19  C   UNL     1     -13.461  10.335  72.204  1.00  0.00    -0.226 C  
HETATM   20  O   UNL     1     -12.720   9.133  72.001  1.00  0.00    -0.348 OA 
HETATM   21  H   UNL     1     -13.057   8.435  72.551  1.00  0.00     0.000 HD 
ENDBRANCH  13  19
ENDBRANCH   8  11
ENDBRANCH   7   8
ENDBRANCH   3   7
TORSDOF 4
ENDMDL
MODEL       47
REMARK 921   NORMALIZED FREE ENERGY PREDICTED BY IDOCK:   -4.96 KCAL/MOL
REMARK 922        TOTAL FREE ENERGY PREDICTED BY IDOCK:   -6.83 KCAL/MOL
REMARK 923 INTER-LIGAND FREE ENERGY PREDICTED BY IDOCK:   -6.20 KCAL/MOL
REMARK 924 INTRA-LIGAND FREE ENERGY PREDICTED BY IDOCK:   -0.63 KCAL/MOL
REMARK 927      BINDING AFFINITY PREDICTED BY RF-SCORE:    0.00 PKD
ROOT
HETATM    1  C   UNL     1      -9.935  14.185  67.527  1.00  0.00    -0.236 C  
HETATM    2  C   UNL     1     -11.388  14.478  67.936  1.00  0.00    -0.310 C  
HETATM    3  N   UNL     1     -12.272  14.558  66.755  1.00  0.00    -0.474 NA 
HETATM    4  C   UNL     1     -11.870  13.447  68.967  1.00  0.00    -0.378 C  
HETATM    5  C   UNL     1     -11.434  15.872  68.594  1.00  0.00    -0.391 C  
HETATM    6  H   UNL     1     -12.775  15.411  66.514  1.00  0.00     0.000 HD 
ENDROOT
BRANCH   3   7
HETATM    7  C   UNL     1     -12.386  13.330  65.946  1.00  0.00    -0.418 C  
BRANCH   7   8
HETATM    8  C   UNL     1     -11.543  13.321  64.632  1.00  0.00    -0.350 C  
HETATM    9  H   UNL     1     -11.945  13.545  62.750  1.00  0.00     0.000 HD 
HETATM   10  O   UNL     1     -12.458  13.551  63.550  1.00  0.00    -0.745 OA 
BRANCH   8  11
HETATM   11  C   UNL     1     -10.715  12.063  64.387  1.00  0.00    -0.369 A  
HETATM   12  C   UNL     1     -10.472  11.164  65.441  1.00  0.00    -0.321 A  
HETATM   13  C   UNL     1      -9.746   9.972  65.261  1.00  0.00    -0.373 A  
HETATM   14  C   UNL     1      -9.153   9.751  64.014  1.00  0.00    -0.237 A  
HETATM   15  H   UNL     1      -7.967   8.508  62.919  1.00  0.00     0.000 HD 
HETATM   16  C   UNL     1      -9.339  10.640  62.966  1.00  0.00    -0.342 A  
HETATM   17  O   UNL     1      -8.370   8.659  63.766  1.00  0.00    -0.167 OA 
HETATM   18  C   UNL     1     -10.139  11.774  63.140  1.00  0.00    -0.386 A  
BRANCH  13  19
HETATM   19  C   UNL     1      -9.601   9.029  66.425  1.00  0.00    -0.244 C  
HETATM   20  O   UNL     1     -10.123   7.742  66.097  1.00  0.00    -0.461 OA 
HETATM   21  H   UNL     1     -10.032   7.146  66.831  1.00  0.00     0.000 HD 
ENDBRANCH  13  19
ENDBRANCH   8  11
ENDBRANCH   7   8
ENDBRANCH   3   7
TORSDOF 4
ENDMDL
MODEL       48
REMARK 921   NORMALIZED FREE ENERGY PREDICTED BY IDOCK:   -4.96 KCAL/MOL
REMARK 922        TOTAL FREE ENERGY PREDICTED BY IDOCK:   -6.82 KCAL/MOL
REMARK 923 INTER-LIGAND FREE ENERGY PREDICTED BY IDOCK:   -6.40 KCAL/MOL
REMARK 924 INTRA-LIGAND FREE ENERGY PREDICTED BY IDOCK:   -0.43 KCAL/MOL
REMARK 927      BINDING AFFINITY PREDICTED BY RF-SCORE:    0.00 PKD
ROOT
HETATM    1  C   UNL     1      -9.366  19.134  68.498  1.00  0.00    -0.426 C  
HETATM    2  C   UNL     1      -9.438  18.469  67.114  1.00  0.00    -0.289 C  
HETATM    3  N   UNL     1      -9.582  17.003  67.230  1.00  0.00    -0.240 NA 
HETATM    4  C   UNL     1     -10.551  19.108  66.272  1.00  0.00    -0.521 C  
HETATM    5  C   UNL     1      -8.094  18.706  66.394  1.00  0.00    -0.300 C  
HETATM    6  H   UNL     1      -8.879  16.361  66.866  1.00  0.00     0.000 HD 
ENDROOT
BRANCH   3   7
HETATM    7  C   UNL     1     -10.803  16.523  67.903  1.00  0.00    -0.326 C  
BRANCH   7   8
HETATM    8  C   UNL     1     -11.057  14.986  67.803  1.00  0.00    -0.310 C  
HETATM    9  H   UNL     1     -12.012  13.837  66.570  1.00  0.00     0.000 HD 
HETATM   10  O   UNL     1     -11.858  14.772  66.631  1.00  0.00    -0.342 OA 
BRANCH   8  11
HETATM   11  C   UNL     1     -11.699  14.340  69.027  1.00  0.00    -0.352 A  
HETATM   12  C   UNL     1     -11.627  12.947  69.206  1.00  0.00    -0.368 A  
HETATM   13  C   UNL     1     -12.170  12.305  70.334  1.00  0.00    -0.371 A  
HETATM   14  C   UNL     1     -12.905  13.081  71.236  1.00  0.00    -0.281 A  
HETATM   15  H   UNL     1     -14.031  13.062  72.935  1.00  0.00     0.000 HD 
HETATM   16  C   UNL     1     -13.030  14.452  71.065  1.00  0.00    -0.416 A  
HETATM   17  O   UNL     1     -13.531  12.535  72.322  1.00  0.00    -0.556 OA 
HETATM   18  C   UNL     1     -12.407  15.084  69.984  1.00  0.00    -0.353 A  
BRANCH  13  19
HETATM   19  C   UNL     1     -11.979  10.820  70.485  1.00  0.00    -0.361 C  
HETATM   20  O   UNL     1     -13.236  10.146  70.458  1.00  0.00    -0.585 OA 
HETATM   21  H   UNL     1     -13.116   9.208  70.553  1.00  0.00     0.000 HD 
ENDBRANCH  13  19
ENDBRANCH   8  11
ENDBRANCH   7   8
ENDBRANCH   3   7
TORSDOF 4
ENDMDL
MODEL       49
REMARK 921   NORMALIZED FREE ENERGY PREDICTED BY IDOCK:   -4.95 KCAL/MOL
REMARK 922        TOTAL FREE ENERGY PREDICTED BY IDOCK:   -6.81 KCAL/MOL
REMARK 923 INTER-LIGAND FREE ENERGY PREDICTED BY IDOCK:   -6.51 KCAL/MOL
REMARK 924 INTRA-LIGAND FREE ENERGY PREDICTED BY IDOCK:   -0.30 KCAL/MOL
REMARK 927      BINDING AFFINITY PREDICTED BY RF-SCORE:    0.00 PKD
ROOT
HETATM    1  C   UNL     1     -11.976  14.983  72.504  1.00  0.00    -0.432 C  
HETATM    2  C   UNL     1     -12.902  14.430  71.408  1.00  0.00    -0.339 C  
HETATM    3  N   UNL     1     -12.878  15.286  70.204  1.00  0.00    -0.650 NA 
HETATM    4  C   UNL     1     -12.551  12.967  71.101  1.00  0.00    -0.388 C  
HETATM    5  C   UNL     1     -14.353  14.477  71.931  1.00  0.00    -0.647 C  
HETATM    6  H   UNL     1     -13.713  15.763  69.864  1.00  0.00     0.000 HD 
ENDROOT
BRANCH   3   7
HETATM    7  C   UNL     1     -11.576  15.410  69.522  1.00  0.00    -0.332 C  
BRANCH   7   8
HETATM    8  C   UNL     1     -11.654  15.660  67.983  1.00  0.00    -0.239 C  
HETATM    9  H   UNL     1     -11.947  14.539  66.430  1.00  0.00     0.000 HD 
HETATM   10  O   UNL     1     -11.900  14.387  67.366  1.00  0.00    -0.382 OA 
BRANCH   8  11
HETATM   11  C   UNL     1     -10.438  16.340  67.362  1.00  0.00    -0.304 A  
HETATM   12  C   UNL     1     -10.361  17.744  67.322  1.00  0.00    -0.364 A  
HETATM   13  C   UNL     1      -9.247  18.422  66.794  1.00  0.00    -0.293 A  
HETATM   14  C   UNL     1      -8.247  17.659  66.185  1.00  0.00    -0.169 A  
HETATM   15  H   UNL     1      -6.483  17.712  65.166  1.00  0.00     0.000 HD 
HETATM   16  C   UNL     1      -8.314  16.273  66.170  1.00  0.00    -0.260 A  
HETATM   17  O   UNL     1      -7.163  18.230  65.580  1.00  0.00    -0.536 OA 
HETATM   18  C   UNL     1      -9.387  15.615  66.780  1.00  0.00    -0.268 A  
BRANCH  13  19
HETATM   19  C   UNL     1      -9.213  19.925  66.863  1.00  0.00    -0.370 C  
HETATM   20  O   UNL     1      -8.476  20.463  65.767  1.00  0.00    -0.538 OA 
HETATM   21  H   UNL     1      -8.454  21.412  65.810  1.00  0.00     0.000 HD 
ENDBRANCH  13  19
ENDBRANCH   8  11
ENDBRANCH   7   8
ENDBRANCH   3   7
TORSDOF 4
ENDMDL
MODEL       50
REMARK 921   NORMALIZED FREE ENERGY PREDICTED BY IDOCK:   -4.93 KCAL/MOL
REMARK 922        TOTAL FREE ENERGY PREDICTED BY IDOCK:   -6.79 KCAL/MOL
REMARK 923 INTER-LIGAND FREE ENERGY PREDICTED BY IDOCK:   -6.00 KCAL/MOL
REMARK 924 INTRA-LIGAND FREE ENERGY PREDICTED BY IDOCK:   -0.79 KCAL/MOL
REMARK 927      BINDING AFFINITY PREDICTED BY RF-SCORE:    0.00 PKD
ROOT
HETATM    1  C   UNL     1     -10.491  13.563  64.335  1.00  0.00    -0.366 C  
HETATM    2  C   UNL     1     -11.616  12.699  64.928  1.00  0.00    -0.334 C  
HETATM    3  N   UNL     1     -11.072  11.550  65.681  1.00  0.00    -0.246 NA 
HETATM    4  C   UNL     1     -12.563  13.564  65.773  1.00  0.00    -0.490 C  
HETATM    5  C   UNL     1     -12.428  12.096  63.764  1.00  0.00    -0.620 C  
HETATM    6  H   UNL     1     -11.261  10.587  65.406  1.00  0.00     0.000 HD 
ENDROOT
BRANCH   3   7
HETATM    7  C   UNL     1     -10.239  11.879  66.853  1.00  0.00    -0.208 C  
BRANCH   7   8
HETATM    8  C   UNL     1     -10.908  11.614  68.238  1.00  0.00    -0.219 C  
HETATM    9  H   UNL     1     -12.535  10.741  68.824  1.00  0.00     0.000 HD 
HETATM   10  O   UNL     1     -12.128  10.902  67.981  1.00  0.00    -0.563 OA 
BRANCH   8  11
HETATM   11  C   UNL     1     -11.169  12.851  69.093  1.00  0.00    -0.293 A  
HETATM   12  C   UNL     1     -10.409  14.017  68.894  1.00  0.00    -0.183 A  
HETATM   13  C   UNL     1     -10.633  15.196  69.629  1.00  0.00    -0.274 A  
HETATM   14  C   UNL     1     -11.566  15.149  70.669  1.00  0.00    -0.309 A  
HETATM   15  H   UNL     1     -12.434  16.189  72.191  1.00  0.00     0.000 HD 
HETATM   16  C   UNL     1     -12.303  14.000  70.918  1.00  0.00    -0.443 A  
HETATM   17  O   UNL     1     -11.800  16.221  71.485  1.00  0.00    -0.458 OA 
HETATM   18  C   UNL     1     -12.129  12.866  70.117  1.00  0.00    -0.373 A  
BRANCH  13  19
HETATM   19  C   UNL     1      -9.826  16.422  69.297  1.00  0.00    -0.240 C  
HETATM   20  O   UNL     1     -10.664  17.575  69.240  1.00  0.00    -0.379 OA 
HETATM   21  H   UNL     1     -10.155  18.349  69.030  1.00  0.00     0.000 HD 
ENDBRANCH  13  19
ENDBRANCH   8  11
ENDBRANCH   7   8
ENDBRANCH   3   7
TORSDOF 4
ENDMDL
MODEL       51
REMARK 921   NORMALIZED FREE ENERGY PREDICTED BY IDOCK:   -4.92 KCAL/MOL
REMARK 922        TOTAL FREE ENERGY PREDICTED BY IDOCK:   -6.78 KCAL/MOL
REMARK 923 INTER-LIGAND FREE ENERGY PREDICTED BY IDOCK:   -6.30 KCAL/MOL
REMARK 924 INTRA-LIGAND FREE ENERGY PREDICTED BY IDOCK:   -0.48 KCAL/MOL
REMARK 927      BINDING AFFINITY PREDICTED BY RF-SCORE:    0.00 PKD
ROOT
HETATM    1  C   UNL     1      -8.260  18.741  66.988  1.00  0.00    -0.271 C  
HETATM    2  C   UNL     1      -9.792  18.874  67.022  1.00  0.00    -0.324 C  
HETATM    3  N   UNL     1     -10.449  17.588  66.710  1.00  0.00    -0.303 NA 
HETATM    4  C   UNL     1     -10.247  19.460  68.366  1.00  0.00    -0.516 C  
HETATM    5  C   UNL     1     -10.218  19.848  65.904  1.00  0.00    -0.552 C  
HETATM    6  H   UNL     1     -11.052  17.473  65.896  1.00  0.00     0.000 HD 
ENDROOT
BRANCH   3   7
HETATM    7  C   UNL     1     -10.181  16.479  67.645  1.00  0.00    -0.279 C  
BRANCH   7   8
HETATM    8  C   UNL     1     -11.313  15.409  67.747  1.00  0.00    -0.306 C  
HETATM    9  H   UNL     1     -12.178  14.471  69.204  1.00  0.00     0.000 HD 
HETATM   10  O   UNL     1     -11.489  15.122  69.142  1.00  0.00    -0.270 OA 
BRANCH   8  11
HETATM   11  C   UNL     1     -11.084  14.127  66.952  1.00  0.00    -0.312 A  
HETATM   12  C   UNL     1     -11.549  14.028  65.628  1.00  0.00    -0.332 A  
HETATM   13  C   UNL     1     -11.333  12.884  64.838  1.00  0.00    -0.340 A  
HETATM   14  C   UNL     1     -10.740  11.773  65.446  1.00  0.00    -0.283 A  
HETATM   15  H   UNL     1     -10.152   9.838  65.195  1.00  0.00     0.000 HD 
HETATM   16  C   UNL     1     -10.308  11.825  66.764  1.00  0.00    -0.251 A  
HETATM   17  O   UNL     1     -10.555  10.593  64.782  1.00  0.00    -0.291 OA 
HETATM   18  C   UNL     1     -10.451  13.003  67.504  1.00  0.00    -0.229 A  
BRANCH  13  19
HETATM   19  C   UNL     1     -11.795  12.893  63.406  1.00  0.00    -0.507 C  
HETATM   20  O   UNL     1     -12.506  11.696  63.099  1.00  0.00    -0.937 OA 
HETATM   21  H   UNL     1     -12.798  11.701  62.195  1.00  0.00     0.000 HD 
ENDBRANCH  13  19
ENDBRANCH   8  11
ENDBRANCH   7   8
ENDBRANCH   3   7
TORSDOF 4
ENDMDL
MODEL       52
REMARK 921   NORMALIZED FREE ENERGY PREDICTED BY IDOCK:   -4.92 KCAL/MOL
REMARK 922        TOTAL FREE ENERGY PREDICTED BY IDOCK:   -6.78 KCAL/MOL
REMARK 923 INTER-LIGAND FREE ENERGY PREDICTED BY IDOCK:   -6.47 KCAL/MOL
REMARK 924 INTRA-LIGAND FREE ENERGY PREDICTED BY IDOCK:   -0.31 KCAL/MOL
REMARK 927      BINDING AFFINITY PREDICTED BY RF-SCORE:    0.00 PKD
ROOT
HETATM    1  C   UNL     1     -11.558   7.646  70.465  1.00  0.00    -0.195 C  
HETATM    2  C   UNL     1     -11.417   8.786  71.486  1.00  0.00    -0.305 C  
HETATM    3  N   UNL     1     -10.803   9.982  70.873  1.00  0.00    -0.350 NA 
HETATM    4  C   UNL     1     -12.774   9.087  72.140  1.00  0.00    -0.470 C  
HETATM    5  C   UNL     1     -10.443   8.330  72.591  1.00  0.00    -0.373 C  
HETATM    6  H   UNL     1      -9.911  10.356  71.196  1.00  0.00     0.000 HD 
ENDROOT
BRANCH   3   7
HETATM    7  C   UNL     1     -11.556  10.604  69.768  1.00  0.00    -0.309 C  
BRANCH   7   8
HETATM    8  C   UNL     1     -10.905  10.457  68.357  1.00  0.00    -0.245 C  
HETATM    9  H   UNL     1      -9.092  10.274  67.701  1.00  0.00     0.000 HD 
HETATM   10  O   UNL     1      -9.488  10.363  68.560  1.00  0.00    -0.147 OA 
BRANCH   8  11
HETATM   11  C   UNL     1     -11.241  11.559  67.356  1.00  0.00    -0.367 A  
HETATM   12  C   UNL     1     -10.990  11.365  65.986  1.00  0.00    -0.286 A  
HETATM   13  C   UNL     1     -11.313  12.333  65.017  1.00  0.00    -0.376 A  
HETATM   14  C   UNL     1     -11.790  13.569  65.464  1.00  0.00    -0.363 A  
HETATM   15  H   UNL     1     -12.386  15.437  64.908  1.00  0.00     0.000 HD 
HETATM   16  C   UNL     1     -12.009  13.806  66.813  1.00  0.00    -0.465 A  
HETATM   17  O   UNL     1     -12.062  14.597  64.605  1.00  0.00    -0.439 OA 
HETATM   18  C   UNL     1     -11.765  12.799  67.752  1.00  0.00    -0.412 A  
BRANCH  13  19
HETATM   19  C   UNL     1     -11.083  12.011  63.565  1.00  0.00    -0.443 C  
HETATM   20  O   UNL     1     -12.314  11.685  62.922  1.00  0.00    -0.923 OA 
HETATM   21  H   UNL     1     -12.169  11.482  62.005  1.00  0.00     0.000 HD 
ENDBRANCH  13  19
ENDBRANCH   8  11
ENDBRANCH   7   8
ENDBRANCH   3   7
TORSDOF 4
ENDMDL
MODEL       53
REMARK 921   NORMALIZED FREE ENERGY PREDICTED BY IDOCK:   -4.91 KCAL/MOL
REMARK 922        TOTAL FREE ENERGY PREDICTED BY IDOCK:   -6.77 KCAL/MOL
REMARK 923 INTER-LIGAND FREE ENERGY PREDICTED BY IDOCK:   -6.26 KCAL/MOL
REMARK 924 INTRA-LIGAND FREE ENERGY PREDICTED BY IDOCK:   -0.51 KCAL/MOL
REMARK 927      BINDING AFFINITY PREDICTED BY RF-SCORE:    0.00 PKD
ROOT
HETATM    1  C   UNL     1     -10.633   8.444  72.222  1.00  0.00    -0.412 C  
HETATM    2  C   UNL     1     -11.538   8.055  71.042  1.00  0.00    -0.283 C  
HETATM    3  N   UNL     1     -11.937   9.243  70.259  1.00  0.00    -0.467 NA 
HETATM    4  C   UNL     1     -10.859   6.980  70.181  1.00  0.00    -0.285 C  
HETATM    5  C   UNL     1     -12.844   7.463  71.608  1.00  0.00    -0.406 C  
HETATM    6  H   UNL     1     -12.913   9.525  70.167  1.00  0.00     0.000 HD 
ENDROOT
BRANCH   3   7
HETATM    7  C   UNL     1     -10.843   9.996  69.617  1.00  0.00    -0.260 C  
BRANCH   7   8
HETATM    8  C   UNL     1     -10.800   9.906  68.060  1.00  0.00    -0.243 C  
HETATM    9  H   UNL     1      -9.476   9.348  66.760  1.00  0.00     0.000 HD 
HETATM   10  O   UNL     1      -9.503   9.402  67.708  1.00  0.00    -0.132 OA 
BRANCH   8  11
HETATM   11  C   UNL     1     -11.101  11.203  67.314  1.00  0.00    -0.366 A  
HETATM   12  C   UNL     1     -10.773  11.324  65.952  1.00  0.00    -0.291 A  
HETATM   13  C   UNL     1     -11.062  12.483  65.209  1.00  0.00    -0.332 A  
HETATM   14  C   UNL     1     -11.585  13.584  65.893  1.00  0.00    -0.335 A  
HETATM   15  H   UNL     1     -12.185  15.526  65.738  1.00  0.00     0.000 HD 
HETATM   16  C   UNL     1     -11.880  13.510  67.247  1.00  0.00    -0.427 A  
HETATM   17  O   UNL     1     -11.830  14.777  65.273  1.00  0.00    -0.340 OA 
HETATM   18  C   UNL     1     -11.669  12.319  67.949  1.00  0.00    -0.410 A  
BRANCH  13  19
HETATM   19  C   UNL     1     -10.749  12.497  63.737  1.00  0.00    -0.445 C  
HETATM   20  O   UNL     1     -11.901  12.865  62.981  1.00  0.00    -0.827 OA 
HETATM   21  H   UNL     1     -11.703  12.874  62.051  1.00  0.00     0.000 HD 
ENDBRANCH  13  19
ENDBRANCH   8  11
ENDBRANCH   7   8
ENDBRANCH   3   7
TORSDOF 4
ENDMDL
MODEL       54
REMARK 921   NORMALIZED FREE ENERGY PREDICTED BY IDOCK:   -4.91 KCAL/MOL
REMARK 922        TOTAL FREE ENERGY PREDICTED BY IDOCK:   -6.76 KCAL/MOL
REMARK 923 INTER-LIGAND FREE ENERGY PREDICTED BY IDOCK:   -6.43 KCAL/MOL
REMARK 924 INTRA-LIGAND FREE ENERGY PREDICTED BY IDOCK:   -0.34 KCAL/MOL
REMARK 927      BINDING AFFINITY PREDICTED BY RF-SCORE:    0.00 PKD
ROOT
HETATM    1  C   UNL     1     -10.179   8.786  71.372  1.00  0.00    -0.350 C  
HETATM    2  C   UNL     1     -11.415   8.014  71.860  1.00  0.00    -0.291 C  
HETATM    3  N   UNL     1     -12.461   8.933  72.354  1.00  0.00    -0.364 NA 
HETATM    4  C   UNL     1     -11.926   7.074  70.758  1.00  0.00    -0.392 C  
HETATM    5  C   UNL     1     -11.002   7.153  73.072  1.00  0.00    -0.357 C  
HETATM    6  H   UNL     1     -12.782   8.916  73.322  1.00  0.00     0.000 HD 
ENDROOT
BRANCH   3   7
HETATM    7  C   UNL     1     -13.016   9.877  71.365  1.00  0.00    -0.407 C  
BRANCH   7   8
HETATM    8  C   UNL     1     -12.440  11.325  71.435  1.00  0.00    -0.287 C  
HETATM    9  H   UNL     1     -13.016  12.987  72.246  1.00  0.00     0.000 HD 
HETATM   10  O   UNL     1     -13.367  12.105  72.204  1.00  0.00    -0.522 OA 
BRANCH   8  11
HETATM   11  C   UNL     1     -12.154  11.988  70.091  1.00  0.00    -0.377 A  
HETATM   12  C   UNL     1     -12.193  13.390  69.975  1.00  0.00    -0.367 A  
HETATM   13  C   UNL     1     -11.902  14.053  68.769  1.00  0.00    -0.396 A  
HETATM   14  C   UNL     1     -11.686  13.272  67.629  1.00  0.00    -0.366 A  
HETATM   15  H   UNL     1     -11.321  13.296  65.625  1.00  0.00     0.000 HD 
HETATM   16  C   UNL     1     -11.682  11.887  67.702  1.00  0.00    -0.346 A  
HETATM   17  O   UNL     1     -11.468  13.826  66.399  1.00  0.00    -0.316 OA 
HETATM   18  C   UNL     1     -11.885  11.247  68.930  1.00  0.00    -0.413 A  
BRANCH  13  19
HETATM   19  C   UNL     1     -11.890  15.558  68.754  1.00  0.00    -0.317 C  
HETATM   20  O   UNL     1     -12.805  16.078  69.717  1.00  0.00    -0.562 OA 
HETATM   21  H   UNL     1     -12.798  17.028  69.708  1.00  0.00     0.000 HD 
ENDBRANCH  13  19
ENDBRANCH   8  11
ENDBRANCH   7   8
ENDBRANCH   3   7
TORSDOF 4
ENDMDL
MODEL       55
REMARK 921   NORMALIZED FREE ENERGY PREDICTED BY IDOCK:   -4.91 KCAL/MOL
REMARK 922        TOTAL FREE ENERGY PREDICTED BY IDOCK:   -6.76 KCAL/MOL
REMARK 923 INTER-LIGAND FREE ENERGY PREDICTED BY IDOCK:   -6.37 KCAL/MOL
REMARK 924 INTRA-LIGAND FREE ENERGY PREDICTED BY IDOCK:   -0.39 KCAL/MOL
REMARK 927      BINDING AFFINITY PREDICTED BY RF-SCORE:    0.00 PKD
ROOT
HETATM    1  C   UNL     1      -8.188   9.823  63.666  1.00  0.00    -0.158 C  
HETATM    2  C   UNL     1      -8.760  10.434  64.956  1.00  0.00    -0.182 C  
HETATM    3  N   UNL     1      -9.385  11.747  64.696  1.00  0.00    -0.427 NA 
HETATM    4  C   UNL     1      -9.721   9.446  65.633  1.00  0.00    -0.336 C  
HETATM    5  C   UNL     1      -7.589  10.706  65.922  1.00  0.00    -0.138 C  
HETATM    6  H   UNL     1      -9.038  12.604  65.127  1.00  0.00     0.000 HD 
ENDROOT
BRANCH   3   7
HETATM    7  C   UNL     1     -10.538  11.747  63.777  1.00  0.00    -0.415 C  
BRANCH   7   8
HETATM    8  C   UNL     1     -11.892  12.194  64.412  1.00  0.00    -0.358 C  
HETATM    9  H   UNL     1     -13.324  13.386  63.878  1.00  0.00     0.000 HD 
HETATM   10  O   UNL     1     -12.500  13.113  63.492  1.00  0.00    -0.714 OA 
BRANCH   8  11
HETATM   11  C   UNL     1     -11.799  12.803  65.808  1.00  0.00    -0.484 A  
HETATM   12  C   UNL     1     -11.744  11.968  66.938  1.00  0.00    -0.342 A  
HETATM   13  C   UNL     1     -11.621  12.476  68.244  1.00  0.00    -0.376 A  
HETATM   14  C   UNL     1     -11.676  13.862  68.413  1.00  0.00    -0.356 A  
HETATM   15  H   UNL     1     -11.675  15.389  69.764  1.00  0.00     0.000 HD 
HETATM   16  C   UNL     1     -11.772  14.713  67.321  1.00  0.00    -0.406 A  
HETATM   17  O   UNL     1     -11.638  14.446  69.649  1.00  0.00    -0.262 OA 
HETATM   18  C   UNL     1     -11.803  14.190  66.024  1.00  0.00    -0.409 A  
BRANCH  13  19
HETATM   19  C   UNL     1     -11.490  11.508  69.389  1.00  0.00    -0.309 C  
HETATM   20  O   UNL     1     -12.550  10.554  69.365  1.00  0.00    -0.701 OA 
HETATM   21  H   UNL     1     -12.468   9.942  70.087  1.00  0.00     0.000 HD 
ENDBRANCH  13  19
ENDBRANCH   8  11
ENDBRANCH   7   8
ENDBRANCH   3   7
TORSDOF 4
ENDMDL
MODEL       56
REMARK 921   NORMALIZED FREE ENERGY PREDICTED BY IDOCK:   -4.85 KCAL/MOL
REMARK 922        TOTAL FREE ENERGY PREDICTED BY IDOCK:   -6.69 KCAL/MOL
REMARK 923 INTER-LIGAND FREE ENERGY PREDICTED BY IDOCK:   -6.38 KCAL/MOL
REMARK 924 INTRA-LIGAND FREE ENERGY PREDICTED BY IDOCK:   -0.31 KCAL/MOL
REMARK 927      BINDING AFFINITY PREDICTED BY RF-SCORE:    0.00 PKD
ROOT
HETATM    1  C   UNL     1      -9.727   6.489  72.698  1.00  0.00    -0.168 C  
HETATM    2  C   UNL     1     -11.176   6.228  72.256  1.00  0.00    -0.283 C  
HETATM    3  N   UNL     1     -12.088   7.276  72.760  1.00  0.00    -0.519 NA 
HETATM    4  C   UNL     1     -11.248   6.065  70.731  1.00  0.00    -0.340 C  
HETATM    5  C   UNL     1     -11.649   4.909  72.903  1.00  0.00    -0.227 C  
HETATM    6  H   UNL     1     -12.853   7.063  73.400  1.00  0.00     0.000 HD 
ENDROOT
BRANCH   3   7
HETATM    7  C   UNL     1     -11.827   8.647  72.283  1.00  0.00    -0.366 C  
BRANCH   7   8
HETATM    8  C   UNL     1     -13.094   9.540  72.105  1.00  0.00    -0.436 C  
HETATM    9  H   UNL     1     -14.799   9.330  71.209  1.00  0.00     0.000 HD 
HETATM   10  O   UNL     1     -14.028   8.786  71.317  1.00  0.00    -0.309 OA 
BRANCH   8  11
HETATM   11  C   UNL     1     -12.852  10.917  71.494  1.00  0.00    -0.560 A  
HETATM   12  C   UNL     1     -12.215  11.030  70.245  1.00  0.00    -0.447 A  
HETATM   13  C   UNL     1     -12.000  12.272  69.620  1.00  0.00    -0.347 A  
HETATM   14  C   UNL     1     -12.330  13.428  70.334  1.00  0.00    -0.312 A  
HETATM   15  H   UNL     1     -12.316  15.466  70.326  1.00  0.00     0.000 HD 
HETATM   16  C   UNL     1     -12.922  13.351  71.587  1.00  0.00    -0.445 A  
HETATM   17  O   UNL     1     -12.091  14.681  69.841  1.00  0.00    -0.302 OA 
HETATM   18  C   UNL     1     -13.209  12.104  72.152  1.00  0.00    -0.438 A  
BRANCH  13  19
HETATM   19  C   UNL     1     -11.383  12.296  68.248  1.00  0.00    -0.289 C  
HETATM   20  O   UNL     1     -11.903  11.239  67.444  1.00  0.00    -0.590 OA 
HETATM   21  H   UNL     1     -11.513  11.254  66.578  1.00  0.00     0.000 HD 
ENDBRANCH  13  19
ENDBRANCH   8  11
ENDBRANCH   7   8
ENDBRANCH   3   7
TORSDOF 4
ENDMDL
MODEL       57
REMARK 921   NORMALIZED FREE ENERGY PREDICTED BY IDOCK:   -4.84 KCAL/MOL
REMARK 922        TOTAL FREE ENERGY PREDICTED BY IDOCK:   -6.68 KCAL/MOL
REMARK 923 INTER-LIGAND FREE ENERGY PREDICTED BY IDOCK:   -6.96 KCAL/MOL
REMARK 924 INTRA-LIGAND FREE ENERGY PREDICTED BY IDOCK:    0.27 KCAL/MOL
REMARK 927      BINDING AFFINITY PREDICTED BY RF-SCORE:    0.00 PKD
ROOT
HETATM    1  C   UNL     1     -12.702  14.099  73.203  1.00  0.00    -0.227 C  
HETATM    2  C   UNL     1     -12.561  14.851  71.870  1.00  0.00    -0.331 C  
HETATM    3  N   UNL     1     -11.736  14.090  70.909  1.00  0.00    -0.516 NA 
HETATM    4  C   UNL     1     -13.946  15.206  71.309  1.00  0.00    -0.548 C  
HETATM    5  C   UNL     1     -11.798  16.166  72.134  1.00  0.00    -0.626 C  
HETATM    6  H   UNL     1     -10.855  14.455  70.547  1.00  0.00     0.000 HD 
ENDROOT
BRANCH   3   7
HETATM    7  C   UNL     1     -12.260  12.773  70.504  1.00  0.00    -0.307 C  
BRANCH   7   8
HETATM    8  C   UNL     1     -11.778  12.267  69.109  1.00  0.00    -0.323 C  
HETATM    9  H   UNL     1     -10.419  11.029  68.500  1.00  0.00     0.000 HD 
HETATM   10  O   UNL     1     -10.712  11.337  69.349  1.00  0.00    -0.213 OA 
BRANCH   8  11
HETATM   11  C   UNL     1     -11.345  13.351  68.126  1.00  0.00    -0.321 A  
HETATM   12  C   UNL     1     -11.825  13.335  66.804  1.00  0.00    -0.448 A  
HETATM   13  C   UNL     1     -11.486  14.329  65.869  1.00  0.00    -0.335 A  
HETATM   14  C   UNL     1     -10.545  15.291  66.250  1.00  0.00    -0.309 A  
HETATM   15  H   UNL     1      -9.460  16.907  65.647  1.00  0.00     0.000 HD 
HETATM   16  C   UNL     1     -10.021  15.309  67.535  1.00  0.00    -0.226 A  
HETATM   17  O   UNL     1     -10.099  16.253  65.388  1.00  0.00    -0.519 OA 
HETATM   18  C   UNL     1     -10.439  14.364  68.477  1.00  0.00    -0.254 A  
BRANCH  13  19
HETATM   19  C   UNL     1     -12.108  14.278  64.499  1.00  0.00    -0.480 C  
HETATM   20  O   UNL     1     -12.028  15.553  63.863  1.00  0.00    -0.974 OA 
HETATM   21  H   UNL     1     -12.420  15.521  62.998  1.00  0.00     0.000 HD 
ENDBRANCH  13  19
ENDBRANCH   8  11
ENDBRANCH   7   8
ENDBRANCH   3   7
TORSDOF 4
ENDMDL
MODEL       58
REMARK 921   NORMALIZED FREE ENERGY PREDICTED BY IDOCK:   -4.82 KCAL/MOL
REMARK 922        TOTAL FREE ENERGY PREDICTED BY IDOCK:   -6.66 KCAL/MOL
REMARK 923 INTER-LIGAND FREE ENERGY PREDICTED BY IDOCK:   -5.87 KCAL/MOL
REMARK 924 INTRA-LIGAND FREE ENERGY PREDICTED BY IDOCK:   -0.79 KCAL/MOL
REMARK 927      BINDING AFFINITY PREDICTED BY RF-SCORE:    0.00 PKD
ROOT
HETATM    1  C   UNL     1      -9.830  18.321  68.158  1.00  0.00    -0.356 C  
HETATM    2  C   UNL     1      -9.377  16.852  68.172  1.00  0.00    -0.240 C  
HETATM    3  N   UNL     1     -10.197  16.047  69.101  1.00  0.00    -0.226 NA 
HETATM    4  C   UNL     1      -9.369  16.283  66.746  1.00  0.00    -0.258 C  
HETATM    5  C   UNL     1      -7.937  16.795  68.721  1.00  0.00    -0.250 C  
HETATM    6  H   UNL     1      -9.793  15.580  69.912  1.00  0.00     0.000 HD 
ENDROOT
BRANCH   3   7
HETATM    7  C   UNL     1     -11.636  15.959  68.787  1.00  0.00    -0.386 C  
BRANCH   7   8
HETATM    8  C   UNL     1     -12.250  14.528  68.887  1.00  0.00    -0.159 C  
HETATM    9  H   UNL     1     -12.283  13.147  70.245  1.00  0.00     0.000 HD 
HETATM   10  O   UNL     1     -11.909  14.018  70.185  1.00  0.00    -0.287 OA 
BRANCH   8  11
HETATM   11  C   UNL     1     -11.833  13.551  67.791  1.00  0.00    -0.398 A  
HETATM   12  C   UNL     1     -12.108  13.846  66.444  1.00  0.00    -0.489 A  
HETATM   13  C   UNL     1     -11.713  12.998  65.392  1.00  0.00    -0.401 A  
HETATM   14  C   UNL     1     -11.134  11.770  65.726  1.00  0.00    -0.297 A  
HETATM   15  H   UNL     1     -10.391  10.015  65.005  1.00  0.00     0.000 HD 
HETATM   16  C   UNL     1     -10.887  11.432  67.049  1.00  0.00    -0.331 A  
HETATM   17  O   UNL     1     -10.784  10.850  64.778  1.00  0.00    -0.292 OA 
HETATM   18  C   UNL     1     -11.207  12.327  68.075  1.00  0.00    -0.321 A  
BRANCH  13  19
HETATM   19  C   UNL     1     -11.978  13.429  63.975  1.00  0.00    -0.464 C  
HETATM   20  O   UNL     1     -12.664  12.404  63.258  1.00  0.00    -0.710 OA 
HETATM   21  H   UNL     1     -12.831  12.676  62.363  1.00  0.00     0.000 HD 
ENDBRANCH  13  19
ENDBRANCH   8  11
ENDBRANCH   7   8
ENDBRANCH   3   7
TORSDOF 4
ENDMDL
MODEL       59
REMARK 921   NORMALIZED FREE ENERGY PREDICTED BY IDOCK:   -4.82 KCAL/MOL
REMARK 922        TOTAL FREE ENERGY PREDICTED BY IDOCK:   -6.66 KCAL/MOL
REMARK 923 INTER-LIGAND FREE ENERGY PREDICTED BY IDOCK:   -6.14 KCAL/MOL
REMARK 924 INTRA-LIGAND FREE ENERGY PREDICTED BY IDOCK:   -0.51 KCAL/MOL
REMARK 927      BINDING AFFINITY PREDICTED BY RF-SCORE:    0.00 PKD
ROOT
HETATM    1  C   UNL     1     -10.311  11.989  64.210  1.00  0.00    -0.357 C  
HETATM    2  C   UNL     1     -11.074  12.574  65.409  1.00  0.00    -0.302 C  
HETATM    3  N   UNL     1     -10.311  13.665  66.051  1.00  0.00    -0.297 NA 
HETATM    4  C   UNL     1     -12.484  13.011  64.984  1.00  0.00    -0.534 C  
HETATM    5  C   UNL     1     -11.215  11.471  66.478  1.00  0.00    -0.324 C  
HETATM    6  H   UNL     1      -9.993  13.604  67.018  1.00  0.00     0.000 HD 
ENDROOT
BRANCH   3   7
HETATM    7  C   UNL     1     -10.037  14.846  65.211  1.00  0.00    -0.345 C  
BRANCH   7   8
HETATM    8  C   UNL     1     -10.762  16.156  65.652  1.00  0.00    -0.310 C  
HETATM    9  H   UNL     1     -11.573  17.647  64.719  1.00  0.00     0.000 HD 
HETATM   10  O   UNL     1     -11.132  16.850  64.451  1.00  0.00    -1.128 OA 
BRANCH   8  11
HETATM   11  C   UNL     1      -9.971  17.067  66.586  1.00  0.00    -0.307 A  
HETATM   12  C   UNL     1      -8.605  16.824  66.816  1.00  0.00    -0.264 A  
HETATM   13  C   UNL     1      -7.821  17.653  67.639  1.00  0.00    -0.212 A  
HETATM   14  C   UNL     1      -8.467  18.679  68.336  1.00  0.00    -0.338 A  
HETATM   15  H   UNL     1      -8.242  20.188  69.687  1.00  0.00     0.000 HD 
HETATM   16  C   UNL     1      -9.822  18.919  68.162  1.00  0.00    -0.420 A  
HETATM   17  O   UNL     1      -7.804  19.491  69.213  1.00  0.00    -0.308 OA 
HETATM   18  C   UNL     1     -10.565  18.138  67.271  1.00  0.00    -0.384 A  
BRANCH  13  19
HETATM   19  C   UNL     1      -6.349  17.365  67.767  1.00  0.00    -0.149 C  
HETATM   20  O   UNL     1      -6.025  16.991  69.105  1.00  0.00    -0.165 OA 
HETATM   21  H   UNL     1      -5.096  16.809  69.187  1.00  0.00     0.000 HD 
ENDBRANCH  13  19
ENDBRANCH   8  11
ENDBRANCH   7   8
ENDBRANCH   3   7
TORSDOF 4
ENDMDL
MODEL       60
REMARK 921   NORMALIZED FREE ENERGY PREDICTED BY IDOCK:   -4.81 KCAL/MOL
REMARK 922        TOTAL FREE ENERGY PREDICTED BY IDOCK:   -6.64 KCAL/MOL
REMARK 923 INTER-LIGAND FREE ENERGY PREDICTED BY IDOCK:   -6.31 KCAL/MOL
REMARK 924 INTRA-LIGAND FREE ENERGY PREDICTED BY IDOCK:   -0.33 KCAL/MOL
REMARK 927      BINDING AFFINITY PREDICTED BY RF-SCORE:    0.00 PKD
ROOT
HETATM    1  C   UNL     1      -9.728   9.056  71.109  1.00  0.00    -0.369 C  
HETATM    2  C   UNL     1     -11.152   8.816  70.583  1.00  0.00    -0.246 C  
HETATM    3  N   UNL     1     -11.390   9.547  69.322  1.00  0.00    -0.446 NA 
HETATM    4  C   UNL     1     -11.425   7.310  70.454  1.00  0.00    -0.279 C  
HETATM    5  C   UNL     1     -12.150   9.399  71.605  1.00  0.00    -0.462 C  
HETATM    6  H   UNL     1     -12.103  10.272  69.245  1.00  0.00     0.000 HD 
ENDROOT
BRANCH   3   7
HETATM    7  C   UNL     1     -10.536   9.168  68.181  1.00  0.00    -0.211 C  
BRANCH   7   8
HETATM    8  C   UNL     1      -9.720  10.337  67.545  1.00  0.00    -0.169 C  
HETATM    9  H   UNL     1      -8.932  11.975  68.214  1.00  0.00     0.000 HD 
HETATM   10  O   UNL     1      -9.428  11.264  68.601  1.00  0.00    -0.186 OA 
BRANCH   8  11
HETATM   11  C   UNL     1     -10.387  11.044  66.368  1.00  0.00    -0.302 A  
HETATM   12  C   UNL     1     -11.215  12.158  66.595  1.00  0.00    -0.375 A  
HETATM   13  C   UNL     1     -11.825  12.868  65.544  1.00  0.00    -0.455 A  
HETATM   14  C   UNL     1     -11.686  12.363  64.248  1.00  0.00    -0.380 A  
HETATM   15  H   UNL     1     -12.206  12.599  62.291  1.00  0.00     0.000 HD 
HETATM   16  C   UNL     1     -10.909  11.242  63.997  1.00  0.00    -0.414 A  
HETATM   17  O   UNL     1     -12.300  12.942  63.172  1.00  0.00    -0.614 OA 
HETATM   18  C   UNL     1     -10.239  10.602  65.045  1.00  0.00    -0.380 A  
BRANCH  13  19
HETATM   19  C   UNL     1     -12.631  14.096  65.871  1.00  0.00    -0.417 C  
HETATM   20  O   UNL     1     -12.483  14.443  67.247  1.00  0.00    -0.601 OA 
HETATM   21  H   UNL     1     -12.992  15.218  67.454  1.00  0.00     0.000 HD 
ENDBRANCH  13  19
ENDBRANCH   8  11
ENDBRANCH   7   8
ENDBRANCH   3   7
TORSDOF 4
ENDMDL
MODEL       61
REMARK 921   NORMALIZED FREE ENERGY PREDICTED BY IDOCK:   -4.80 KCAL/MOL
REMARK 922        TOTAL FREE ENERGY PREDICTED BY IDOCK:   -6.63 KCAL/MOL
REMARK 923 INTER-LIGAND FREE ENERGY PREDICTED BY IDOCK:   -6.12 KCAL/MOL
REMARK 924 INTRA-LIGAND FREE ENERGY PREDICTED BY IDOCK:   -0.51 KCAL/MOL
REMARK 927      BINDING AFFINITY PREDICTED BY RF-SCORE:    0.00 PKD
ROOT
HETATM    1  C   UNL     1     -10.692   8.621  68.998  1.00  0.00    -0.122 C  
HETATM    2  C   UNL     1     -10.451   9.784  69.974  1.00  0.00    -0.270 C  
HETATM    3  N   UNL     1     -10.198  11.048  69.251  1.00  0.00    -0.384 NA 
HETATM    4  C   UNL     1     -11.615   9.895  70.969  1.00  0.00    -0.470 C  
HETATM    5  C   UNL     1      -9.164   9.488  70.771  1.00  0.00    -0.195 C  
HETATM    6  H   UNL     1      -9.315  11.551  69.336  1.00  0.00     0.000 HD 
ENDROOT
BRANCH   3   7
HETATM    7  C   UNL     1     -11.297  11.538  68.399  1.00  0.00    -0.279 C  
BRANCH   7   8
HETATM    8  C   UNL     1     -10.997  11.545  66.867  1.00  0.00    -0.296 C  
HETATM    9  H   UNL     1      -9.515  10.966  65.763  1.00  0.00     0.000 HD 
HETATM   10  O   UNL     1      -9.697  10.961  66.695  1.00  0.00    -0.181 OA 
BRANCH   8  11
HETATM   11  C   UNL     1     -11.077  12.908  66.184  1.00  0.00    -0.314 A  
HETATM   12  C   UNL     1     -10.363  14.000  66.708  1.00  0.00    -0.271 A  
HETATM   13  C   UNL     1     -10.372  15.268  66.097  1.00  0.00    -0.314 A  
HETATM   14  C   UNL     1     -11.220  15.458  65.002  1.00  0.00    -0.387 A  
HETATM   15  H   UNL     1     -11.929  16.802  63.643  1.00  0.00     0.000 HD 
HETATM   16  C   UNL     1     -11.970  14.410  64.487  1.00  0.00    -0.487 A  
HETATM   17  O   UNL     1     -11.353  16.672  64.387  1.00  0.00    -1.023 OA 
HETATM   18  C   UNL     1     -11.878  13.135  65.054  1.00  0.00    -0.390 A  
BRANCH  13  19
HETATM   19  C   UNL     1      -9.516  16.360  66.679  1.00  0.00    -0.256 C  
HETATM   20  O   UNL     1      -8.840  17.074  65.646  1.00  0.00    -0.480 OA 
HETATM   21  H   UNL     1      -8.299  17.763  66.014  1.00  0.00     0.000 HD 
ENDBRANCH  13  19
ENDBRANCH   8  11
ENDBRANCH   7   8
ENDBRANCH   3   7
TORSDOF 4
ENDMDL
MODEL       62
REMARK 921   NORMALIZED FREE ENERGY PREDICTED BY IDOCK:   -4.80 KCAL/MOL
REMARK 922        TOTAL FREE ENERGY PREDICTED BY IDOCK:   -6.63 KCAL/MOL
REMARK 923 INTER-LIGAND FREE ENERGY PREDICTED BY IDOCK:   -6.39 KCAL/MOL
REMARK 924 INTRA-LIGAND FREE ENERGY PREDICTED BY IDOCK:   -0.24 KCAL/MOL
REMARK 927      BINDING AFFINITY PREDICTED BY RF-SCORE:    0.00 PKD
ROOT
HETATM    1  C   UNL     1     -10.457   8.471  69.987  1.00  0.00    -0.226 C  
HETATM    2  C   UNL     1     -10.274   9.041  68.570  1.00  0.00    -0.200 C  
HETATM    3  N   UNL     1     -11.354   9.990  68.230  1.00  0.00    -0.531 NA 
HETATM    4  C   UNL     1      -8.876   9.658  68.420  1.00  0.00    -0.123 C  
HETATM    5  C   UNL     1     -10.398   7.880  67.562  1.00  0.00    -0.329 C  
HETATM    6  H   UNL     1     -11.997   9.821  67.457  1.00  0.00     0.000 HD 
ENDROOT
BRANCH   3   7
HETATM    7  C   UNL     1     -11.448  11.196  69.074  1.00  0.00    -0.296 C  
BRANCH   7   8
HETATM    8  C   UNL     1     -10.839  12.491  68.452  1.00  0.00    -0.243 C  
HETATM    9  H   UNL     1     -10.757  14.353  68.981  1.00  0.00     0.000 HD 
HETATM   10  O   UNL     1     -11.128  13.565  69.360  1.00  0.00    -0.213 OA 
BRANCH   8  11
HETATM   11  C   UNL     1     -11.309  12.830  67.040  1.00  0.00    -0.364 A  
HETATM   12  C   UNL     1     -10.739  12.176  65.933  1.00  0.00    -0.302 A  
HETATM   13  C   UNL     1     -11.160  12.425  64.613  1.00  0.00    -0.348 A  
HETATM   14  C   UNL     1     -12.094  13.445  64.408  1.00  0.00    -0.416 A  
HETATM   15  H   UNL     1     -13.144  14.501  63.017  1.00  0.00     0.000 HD 
HETATM   16  C   UNL     1     -12.644  14.137  65.477  1.00  0.00    -0.501 A  
HETATM   17  O   UNL     1     -12.510  13.809  63.157  1.00  0.00    -0.786 OA 
HETATM   18  C   UNL     1     -12.278  13.813  66.787  1.00  0.00    -0.440 A  
BRANCH  13  19
HETATM   19  C   UNL     1     -10.551  11.623  63.495  1.00  0.00    -0.435 C  
HETATM   20  O   UNL     1      -9.268  12.140  63.146  1.00  0.00    -0.641 OA 
HETATM   21  H   UNL     1      -8.883  11.634  62.440  1.00  0.00     0.000 HD 
ENDBRANCH  13  19
ENDBRANCH   8  11
ENDBRANCH   7   8
ENDBRANCH   3   7
TORSDOF 4
ENDMDL
MODEL       63
REMARK 921   NORMALIZED FREE ENERGY PREDICTED BY IDOCK:   -4.80 KCAL/MOL
REMARK 922        TOTAL FREE ENERGY PREDICTED BY IDOCK:   -6.63 KCAL/MOL
REMARK 923 INTER-LIGAND FREE ENERGY PREDICTED BY IDOCK:   -6.38 KCAL/MOL
REMARK 924 INTRA-LIGAND FREE ENERGY PREDICTED BY IDOCK:   -0.25 KCAL/MOL
REMARK 927      BINDING AFFINITY PREDICTED BY RF-SCORE:    0.00 PKD
ROOT
HETATM    1  C   UNL     1     -10.613   8.190  69.403  1.00  0.00    -0.206 C  
HETATM    2  C   UNL     1     -10.338   9.336  70.391  1.00  0.00    -0.240 C  
HETATM    3  N   UNL     1     -10.259  10.637  69.695  1.00  0.00    -0.407 NA 
HETATM    4  C   UNL     1     -11.381   9.330  71.517  1.00  0.00    -0.455 C  
HETATM    5  C   UNL     1      -8.949   9.108  71.021  1.00  0.00    -0.281 C  
HETATM    6  H   UNL     1      -9.409  11.199  69.697  1.00  0.00     0.000 HD 
ENDROOT
BRANCH   3   7
HETATM    7  C   UNL     1     -11.482  11.074  68.996  1.00  0.00    -0.299 C  
BRANCH   7   8
HETATM    8  C   UNL     1     -11.304  11.382  67.476  1.00  0.00    -0.292 C  
HETATM    9  H   UNL     1     -10.093  10.774  66.091  1.00  0.00     0.000 HD 
HETATM   10  O   UNL     1     -10.202  10.586  67.016  1.00  0.00    -0.207 OA 
BRANCH   8  11
HETATM   11  C   UNL     1     -11.100  12.852  67.120  1.00  0.00    -0.309 A  
HETATM   12  C   UNL     1     -11.584  13.353  65.898  1.00  0.00    -0.370 A  
HETATM   13  C   UNL     1     -11.456  14.706  65.536  1.00  0.00    -0.341 A  
HETATM   14  C   UNL     1     -10.715  15.540  66.379  1.00  0.00    -0.303 A  
HETATM   15  H   UNL     1      -9.970  17.418  66.649  1.00  0.00     0.000 HD 
HETATM   16  C   UNL     1     -10.188  15.066  67.572  1.00  0.00    -0.234 A  
HETATM   17  O   UNL     1     -10.473  16.851  66.076  1.00  0.00    -0.337 OA 
HETATM   18  C   UNL     1     -10.404  13.738  67.956  1.00  0.00    -0.246 A  
BRANCH  13  19
HETATM   19  C   UNL     1     -12.072  15.173  64.245  1.00  0.00    -0.261 C  
HETATM   20  O   UNL     1     -11.418  16.350  63.772  1.00  0.00    -1.590 OA 
HETATM   21  H   UNL     1     -11.807  16.645  62.957  1.00  0.00     0.000 HD 
ENDBRANCH  13  19
ENDBRANCH   8  11
ENDBRANCH   7   8
ENDBRANCH   3   7
TORSDOF 4
ENDMDL
MODEL       64
REMARK 921   NORMALIZED FREE ENERGY PREDICTED BY IDOCK:   -4.80 KCAL/MOL
REMARK 922        TOTAL FREE ENERGY PREDICTED BY IDOCK:   -6.63 KCAL/MOL
REMARK 923 INTER-LIGAND FREE ENERGY PREDICTED BY IDOCK:   -6.22 KCAL/MOL
REMARK 924 INTRA-LIGAND FREE ENERGY PREDICTED BY IDOCK:   -0.41 KCAL/MOL
REMARK 927      BINDING AFFINITY PREDICTED BY RF-SCORE:    0.00 PKD
ROOT
HETATM    1  C   UNL     1     -12.698   9.560  71.808  1.00  0.00    -0.492 C  
HETATM    2  C   UNL     1     -11.688   8.506  71.323  1.00  0.00    -0.284 C  
HETATM    3  N   UNL     1     -11.442   8.628  69.871  1.00  0.00    -0.449 NA 
HETATM    4  C   UNL     1     -10.397   8.584  72.150  1.00  0.00    -0.409 C  
HETATM    5  C   UNL     1     -12.309   7.110  71.531  1.00  0.00    -0.406 C  
HETATM    6  H   UNL     1     -11.667   7.876  69.220  1.00  0.00     0.000 HD 
ENDROOT
BRANCH   3   7
HETATM    7  C   UNL     1     -10.852   9.902  69.417  1.00  0.00    -0.237 C  
BRANCH   7   8
HETATM    8  C   UNL     1      -9.967   9.804  68.135  1.00  0.00    -0.154 C  
HETATM    9  H   UNL     1      -8.100  10.128  67.736  1.00  0.00     0.000 HD 
HETATM   10  O   UNL     1      -8.638  10.188  68.517  1.00  0.00    -0.111 OA 
BRANCH   8  11
HETATM   11  C   UNL     1     -10.447  10.619  66.938  1.00  0.00    -0.304 A  
HETATM   12  C   UNL     1      -9.893  10.392  65.665  1.00  0.00    -0.321 A  
HETATM   13  C   UNL     1     -10.324  11.089  64.522  1.00  0.00    -0.420 A  
HETATM   14  C   UNL     1     -11.251  12.122  64.697  1.00  0.00    -0.323 A  
HETATM   15  H   UNL     1     -12.305  13.604  63.778  1.00  0.00     0.000 HD 
HETATM   16  C   UNL     1     -11.786  12.398  65.947  1.00  0.00    -0.476 A  
HETATM   17  O   UNL     1     -11.675  12.903  63.659  1.00  0.00    -0.453 OA 
HETATM   18  C   UNL     1     -11.410  11.633  67.057  1.00  0.00    -0.373 A  
BRANCH  13  19
HETATM   19  C   UNL     1      -9.733  10.728  63.186  1.00  0.00    -0.357 C  
HETATM   20  O   UNL     1      -8.857  11.757  62.728  1.00  0.00    -0.647 OA 
HETATM   21  H   UNL     1      -8.484  11.529  61.885  1.00  0.00     0.000 HD 
ENDBRANCH  13  19
ENDBRANCH   8  11
ENDBRANCH   7   8
ENDBRANCH   3   7
TORSDOF 4
ENDMDL
MODEL       65
REMARK 921   NORMALIZED FREE ENERGY PREDICTED BY IDOCK:   -4.78 KCAL/MOL
REMARK 922        TOTAL FREE ENERGY PREDICTED BY IDOCK:   -6.61 KCAL/MOL
REMARK 923 INTER-LIGAND FREE ENERGY PREDICTED BY IDOCK:   -5.95 KCAL/MOL
REMARK 924 INTRA-LIGAND FREE ENERGY PREDICTED BY IDOCK:   -0.65 KCAL/MOL
REMARK 927      BINDING AFFINITY PREDICTED BY RF-SCORE:    0.00 PKD
ROOT
HETATM    1  C   UNL     1     -12.029  15.459  72.366  1.00  0.00    -0.532 C  
HETATM    2  C   UNL     1     -12.977  14.821  71.338  1.00  0.00    -0.342 C  
HETATM    3  N   UNL     1     -12.561  15.137  69.956  1.00  0.00    -0.574 NA 
HETATM    4  C   UNL     1     -13.095  13.310  71.588  1.00  0.00    -0.453 C  
HETATM    5  C   UNL     1     -14.375  15.448  71.513  1.00  0.00    -0.572 C  
HETATM    6  H   UNL     1     -13.158  15.666  69.320  1.00  0.00     0.000 HD 
ENDROOT
BRANCH   3   7
HETATM    7  C   UNL     1     -11.232  14.644  69.549  1.00  0.00    -0.269 C  
BRANCH   7   8
HETATM    8  C   UNL     1     -11.164  14.025  68.118  1.00  0.00    -0.275 C  
HETATM    9  H   UNL     1     -12.305  14.071  66.553  1.00  0.00     0.000 HD 
HETATM   10  O   UNL     1     -12.347  14.448  67.424  1.00  0.00    -0.300 OA 
BRANCH   8  11
HETATM   11  C   UNL     1     -11.012  12.508  68.060  1.00  0.00    -0.266 A  
HETATM   12  C   UNL     1     -11.111  11.745  69.238  1.00  0.00    -0.278 A  
HETATM   13  C   UNL     1     -11.015  10.342  69.236  1.00  0.00    -0.284 A  
HETATM   14  C   UNL     1     -10.692   9.711  68.030  1.00  0.00    -0.232 A  
HETATM   15  H   UNL     1     -10.286   7.931  67.125  1.00  0.00     0.000 HD 
HETATM   16  C   UNL     1     -10.546  10.440  66.859  1.00  0.00    -0.293 A  
HETATM   17  O   UNL     1     -10.505   8.360  67.944  1.00  0.00    -0.219 OA 
HETATM   18  C   UNL     1     -10.734  11.826  66.865  1.00  0.00    -0.288 A  
BRANCH  13  19
HETATM   19  C   UNL     1     -11.211   9.600  70.530  1.00  0.00    -0.297 C  
HETATM   20  O   UNL     1     -12.047   8.460  70.335  1.00  0.00    -0.482 OA 
HETATM   21  H   UNL     1     -12.171   7.991  71.152  1.00  0.00     0.000 HD 
ENDBRANCH  13  19
ENDBRANCH   8  11
ENDBRANCH   7   8
ENDBRANCH   3   7
TORSDOF 4
ENDMDL
MODEL       66
REMARK 921   NORMALIZED FREE ENERGY PREDICTED BY IDOCK:   -4.76 KCAL/MOL
REMARK 922        TOTAL FREE ENERGY PREDICTED BY IDOCK:   -6.58 KCAL/MOL
REMARK 923 INTER-LIGAND FREE ENERGY PREDICTED BY IDOCK:   -6.02 KCAL/MOL
REMARK 924 INTRA-LIGAND FREE ENERGY PREDICTED BY IDOCK:   -0.56 KCAL/MOL
REMARK 927      BINDING AFFINITY PREDICTED BY RF-SCORE:    0.00 PKD
ROOT
HETATM    1  C   UNL     1     -10.887  10.741  65.240  1.00  0.00    -0.064 C  
HETATM    2  C   UNL     1     -11.188  12.049  64.491  1.00  0.00    -0.332 C  
HETATM    3  N   UNL     1     -11.441  13.160  65.431  1.00  0.00    -0.298 NA 
HETATM    4  C   UNL     1     -10.064  12.363  63.493  1.00  0.00    -0.250 C  
HETATM    5  C   UNL     1     -12.497  11.862  63.696  1.00  0.00    -0.583 C  
HETATM    6  H   UNL     1     -12.337  13.646  65.463  1.00  0.00     0.000 HD 
ENDROOT
BRANCH   3   7
HETATM    7  C   UNL     1     -10.323  13.525  66.320  1.00  0.00    -0.293 C  
BRANCH   7   8
HETATM    8  C   UNL     1     -10.723  14.336  67.592  1.00  0.00    -0.258 C  
HETATM    9  H   UNL     1      -9.781  15.495  68.826  1.00  0.00     0.000 HD 
HETATM   10  O   UNL     1      -9.537  15.001  68.052  1.00  0.00    -0.204 OA 
BRANCH   8  11
HETATM   11  C   UNL     1     -11.365  13.529  68.716  1.00  0.00    -0.329 A  
HETATM   12  C   UNL     1     -11.878  14.185  69.850  1.00  0.00    -0.387 A  
HETATM   13  C   UNL     1     -12.512  13.493  70.897  1.00  0.00    -0.448 A  
HETATM   14  C   UNL     1     -12.518  12.096  70.848  1.00  0.00    -0.279 A  
HETATM   15  H   UNL     1     -13.049  10.385  71.819  1.00  0.00     0.000 HD 
HETATM   16  C   UNL     1     -11.983  11.417  69.762  1.00  0.00    -0.422 A  
HETATM   17  O   UNL     1     -13.045  11.334  71.853  1.00  0.00    -0.493 OA 
HETATM   18  C   UNL     1     -11.436  12.128  68.689  1.00  0.00    -0.347 A  
BRANCH  13  19
HETATM   19  C   UNL     1     -13.102  14.282  72.035  1.00  0.00    -0.372 C  
HETATM   20  O   UNL     1     -14.378  13.759  72.401  1.00  0.00    -0.664 OA 
HETATM   21  H   UNL     1     -14.751  14.257  73.120  1.00  0.00     0.000 HD 
ENDBRANCH  13  19
ENDBRANCH   8  11
ENDBRANCH   7   8
ENDBRANCH   3   7
TORSDOF 4
ENDMDL
MODEL       67
REMARK 921   NORMALIZED FREE ENERGY PREDICTED BY IDOCK:   -4.75 KCAL/MOL
REMARK 922        TOTAL FREE ENERGY PREDICTED BY IDOCK:   -6.57 KCAL/MOL
REMARK 923 INTER-LIGAND FREE ENERGY PREDICTED BY IDOCK:   -5.89 KCAL/MOL
REMARK 924 INTRA-LIGAND FREE ENERGY PREDICTED BY IDOCK:   -0.69 KCAL/MOL
REMARK 927      BINDING AFFINITY PREDICTED BY RF-SCORE:    0.00 PKD
ROOT
HETATM    1  C   UNL     1     -11.671  14.622  64.503  1.00  0.00    -0.410 C  
HETATM    2  C   UNL     1     -11.098  13.230  64.816  1.00  0.00    -0.342 C  
HETATM    3  N   UNL     1      -9.686  13.314  65.243  1.00  0.00    -0.518 NA 
HETATM    4  C   UNL     1     -11.984  12.507  65.841  1.00  0.00    -0.472 C  
HETATM    5  C   UNL     1     -11.097  12.403  63.514  1.00  0.00    -0.521 C  
HETATM    6  H   UNL     1      -8.935  12.871  64.715  1.00  0.00     0.000 HD 
ENDROOT
BRANCH   3   7
HETATM    7  C   UNL     1      -9.427  14.076  66.479  1.00  0.00    -0.279 C  
BRANCH   7   8
HETATM    8  C   UNL     1      -8.333  15.183  66.359  1.00  0.00     0.112 C  
HETATM    9  H   UNL     1      -6.662  15.556  67.266  1.00  0.00     0.000 HD 
HETATM   10  O   UNL     1      -7.327  14.882  67.339  1.00  0.00    -0.189 OA 
BRANCH   8  11
HETATM   11  C   UNL     1      -8.826  16.619  66.508  1.00  0.00    -0.314 A  
HETATM   12  C   UNL     1      -7.960  17.693  66.232  1.00  0.00    -0.292 A  
HETATM   13  C   UNL     1      -8.374  19.035  66.318  1.00  0.00    -0.293 A  
HETATM   14  C   UNL     1      -9.657  19.292  66.812  1.00  0.00    -0.334 A  
HETATM   15  H   UNL     1     -10.994  20.738  67.335  1.00  0.00     0.000 HD 
HETATM   16  C   UNL     1     -10.521  18.254  67.133  1.00  0.00    -0.417 A  
HETATM   17  O   UNL     1     -10.122  20.563  67.000  1.00  0.00    -0.429 OA 
HETATM   18  C   UNL     1     -10.120  16.926  66.956  1.00  0.00    -0.289 A  
BRANCH  13  19
HETATM   19  C   UNL     1      -7.406  20.119  65.928  1.00  0.00    -0.272 C  
HETATM   20  O   UNL     1      -7.342  21.123  66.938  1.00  0.00    -0.625 OA 
HETATM   21  H   UNL     1      -6.731  21.808  66.693  1.00  0.00     0.000 HD 
ENDBRANCH  13  19
ENDBRANCH   8  11
ENDBRANCH   7   8
ENDBRANCH   3   7
TORSDOF 4
ENDMDL
MODEL       68
REMARK 921   NORMALIZED FREE ENERGY PREDICTED BY IDOCK:   -4.74 KCAL/MOL
REMARK 922        TOTAL FREE ENERGY PREDICTED BY IDOCK:   -6.55 KCAL/MOL
REMARK 923 INTER-LIGAND FREE ENERGY PREDICTED BY IDOCK:   -5.80 KCAL/MOL
REMARK 924 INTRA-LIGAND FREE ENERGY PREDICTED BY IDOCK:   -0.75 KCAL/MOL
REMARK 927      BINDING AFFINITY PREDICTED BY RF-SCORE:    0.00 PKD
ROOT
HETATM    1  C   UNL     1     -10.321  14.421  65.173  1.00  0.00    -0.447 C  
HETATM    2  C   UNL     1     -11.078  13.214  65.752  1.00  0.00    -0.273 C  
HETATM    3  N   UNL     1     -11.169  13.295  67.224  1.00  0.00    -0.282 NA 
HETATM    4  C   UNL     1     -12.452  13.074  65.081  1.00  0.00    -0.552 C  
HETATM    5  C   UNL     1     -10.262  11.941  65.447  1.00  0.00    -0.300 C  
HETATM    6  H   UNL     1     -10.748  12.591  67.830  1.00  0.00     0.000 HD 
ENDROOT
BRANCH   3   7
HETATM    7  C   UNL     1     -11.906  14.452  67.766  1.00  0.00    -0.368 C  
BRANCH   7   8
HETATM    8  C   UNL     1     -11.201  15.194  68.944  1.00  0.00    -0.283 C  
HETATM    9  H   UNL     1     -11.809  16.131  70.527  1.00  0.00     0.000 HD 
HETATM   10  O   UNL     1     -12.238  15.679  69.810  1.00  0.00    -0.360 OA 
BRANCH   8  11
HETATM   11  C   UNL     1     -10.255  16.322  68.543  1.00  0.00    -0.247 A  
HETATM   12  C   UNL     1     -10.760  17.477  67.919  1.00  0.00    -0.340 A  
HETATM   13  C   UNL     1      -9.938  18.561  67.562  1.00  0.00    -0.354 A  
HETATM   14  C   UNL     1      -8.557  18.417  67.733  1.00  0.00    -0.267 A  
HETATM   15  H   UNL     1      -6.735  19.288  67.465  1.00  0.00     0.000 HD 
HETATM   16  C   UNL     1      -8.023  17.272  68.308  1.00  0.00    -0.244 A  
HETATM   17  O   UNL     1      -7.672  19.385  67.349  1.00  0.00    -0.246 OA 
HETATM   18  C   UNL     1      -8.867  16.243  68.738  1.00  0.00    -0.243 A  
BRANCH  13  19
HETATM   19  C   UNL     1     -10.574  19.790  66.971  1.00  0.00    -0.461 C  
HETATM   20  O   UNL     1      -9.938  20.144  65.743  1.00  0.00    -0.540 OA 
HETATM   21  H   UNL     1     -10.339  20.919  65.369  1.00  0.00     0.000 HD 
ENDBRANCH  13  19
ENDBRANCH   8  11
ENDBRANCH   7   8
ENDBRANCH   3   7
TORSDOF 4
ENDMDL
MODEL       69
REMARK 921   NORMALIZED FREE ENERGY PREDICTED BY IDOCK:   -4.73 KCAL/MOL
REMARK 922        TOTAL FREE ENERGY PREDICTED BY IDOCK:   -6.55 KCAL/MOL
REMARK 923 INTER-LIGAND FREE ENERGY PREDICTED BY IDOCK:   -6.00 KCAL/MOL
REMARK 924 INTRA-LIGAND FREE ENERGY PREDICTED BY IDOCK:   -0.55 KCAL/MOL
REMARK 927      BINDING AFFINITY PREDICTED BY RF-SCORE:    0.00 PKD
ROOT
HETATM    1  C   UNL     1      -8.568  16.530  66.172  1.00  0.00    -0.334 C  
HETATM    2  C   UNL     1      -9.768  15.941  66.931  1.00  0.00    -0.230 C  
HETATM    3  N   UNL     1     -10.902  15.678  66.021  1.00  0.00    -0.305 NA 
HETATM    4  C   UNL     1      -9.341  14.695  67.719  1.00  0.00    -0.197 C  
HETATM    5  C   UNL     1     -10.269  16.998  67.937  1.00  0.00    -0.317 C  
HETATM    6  H   UNL     1     -11.800  16.150  66.128  1.00  0.00     0.000 HD 
ENDROOT
BRANCH   3   7
HETATM    7  C   UNL     1     -10.659  14.694  64.950  1.00  0.00    -0.422 C  
BRANCH   7   8
HETATM    8  C   UNL     1     -11.674  13.510  64.894  1.00  0.00    -0.357 C  
HETATM    9  H   UNL     1     -13.567  13.315  65.256  1.00  0.00     0.000 HD 
HETATM   10  O   UNL     1     -12.950  14.036  65.290  1.00  0.00    -0.743 OA 
BRANCH   8  11
HETATM   11  C   UNL     1     -11.307  12.286  65.728  1.00  0.00    -0.400 A  
HETATM   12  C   UNL     1     -11.724  12.196  67.068  1.00  0.00    -0.373 A  
HETATM   13  C   UNL     1     -11.444  11.074  67.870  1.00  0.00    -0.358 A  
HETATM   14  C   UNL     1     -10.622  10.078  67.335  1.00  0.00    -0.271 A  
HETATM   15  H   UNL     1      -9.677   8.310  67.698  1.00  0.00     0.000 HD 
HETATM   16  C   UNL     1     -10.160  10.157  66.029  1.00  0.00    -0.317 A  
HETATM   17  O   UNL     1     -10.236   8.987  68.061  1.00  0.00    -0.192 OA 
HETATM   18  C   UNL     1     -10.523  11.238  65.219  1.00  0.00    -0.341 A  
BRANCH  13  19
HETATM   19  C   UNL     1     -11.996  11.028  69.269  1.00  0.00    -0.339 C  
HETATM   20  O   UNL     1     -11.503  12.121  70.041  1.00  0.00    -0.499 OA 
HETATM   21  H   UNL     1     -11.851  12.092  70.925  1.00  0.00     0.000 HD 
ENDBRANCH  13  19
ENDBRANCH   8  11
ENDBRANCH   7   8
ENDBRANCH   3   7
TORSDOF 4
ENDMDL
MODEL       70
REMARK 921   NORMALIZED FREE ENERGY PREDICTED BY IDOCK:   -4.72 KCAL/MOL
REMARK 922        TOTAL FREE ENERGY PREDICTED BY IDOCK:   -6.53 KCAL/MOL
REMARK 923 INTER-LIGAND FREE ENERGY PREDICTED BY IDOCK:   -6.26 KCAL/MOL
REMARK 924 INTRA-LIGAND FREE ENERGY PREDICTED BY IDOCK:   -0.27 KCAL/MOL
REMARK 927      BINDING AFFINITY PREDICTED BY RF-SCORE:    0.00 PKD
ROOT
HETATM    1  C   UNL     1     -13.164   7.224  71.405  1.00  0.00    -0.404 C  
HETATM    2  C   UNL     1     -11.882   8.033  71.147  1.00  0.00    -0.284 C  
HETATM    3  N   UNL     1     -12.149   9.200  70.282  1.00  0.00    -0.446 NA 
HETATM    4  C   UNL     1     -11.220   8.421  72.477  1.00  0.00    -0.406 C  
HETATM    5  C   UNL     1     -10.897   7.141  70.363  1.00  0.00    -0.269 C  
HETATM    6  H   UNL     1     -11.711   9.305  69.367  1.00  0.00     0.000 HD 
ENDROOT
BRANCH   3   7
HETATM    7  C   UNL     1     -13.085  10.205  70.819  1.00  0.00    -0.280 C  
BRANCH   7   8
HETATM    8  C   UNL     1     -12.449  11.590  71.158  1.00  0.00    -0.337 C  
HETATM    9  H   UNL     1     -12.909  13.051  72.344  1.00  0.00     0.000 HD 
HETATM   10  O   UNL     1     -13.296  12.208  72.138  1.00  0.00    -0.522 OA 
BRANCH   8  11
HETATM   11  C   UNL     1     -12.220  12.521  69.970  1.00  0.00    -0.262 A  
HETATM   12  C   UNL     1     -11.829  11.992  68.727  1.00  0.00    -0.358 A  
HETATM   13  C   UNL     1     -11.641  12.801  67.591  1.00  0.00    -0.412 A  
HETATM   14  C   UNL     1     -11.734  14.187  67.754  1.00  0.00    -0.373 A  
HETATM   15  H   UNL     1     -11.560  15.998  66.837  1.00  0.00     0.000 HD 
HETATM   16  C   UNL     1     -12.077  14.742  68.978  1.00  0.00    -0.256 A  
HETATM   17  O   UNL     1     -11.496  15.057  66.727  1.00  0.00    -0.330 OA 
HETATM   18  C   UNL     1     -12.348  13.915  70.073  1.00  0.00    -0.378 A  
BRANCH  13  19
HETATM   19  C   UNL     1     -11.299  12.144  66.282  1.00  0.00    -0.357 C  
HETATM   20  O   UNL     1     -12.363  12.306  65.345  1.00  0.00    -0.582 OA 
HETATM   21  H   UNL     1     -12.148  11.891  64.518  1.00  0.00     0.000 HD 
ENDBRANCH  13  19
ENDBRANCH   8  11
ENDBRANCH   7   8
ENDBRANCH   3   7
TORSDOF 4
ENDMDL
MODEL       71
REMARK 921   NORMALIZED FREE ENERGY PREDICTED BY IDOCK:   -4.69 KCAL/MOL
REMARK 922        TOTAL FREE ENERGY PREDICTED BY IDOCK:   -6.50 KCAL/MOL
REMARK 923 INTER-LIGAND FREE ENERGY PREDICTED BY IDOCK:   -6.11 KCAL/MOL
REMARK 924 INTRA-LIGAND FREE ENERGY PREDICTED BY IDOCK:   -0.39 KCAL/MOL
REMARK 927      BINDING AFFINITY PREDICTED BY RF-SCORE:    0.00 PKD
ROOT
HETATM    1  C   UNL     1     -11.099   9.893  70.750  1.00  0.00    -0.417 C  
HETATM    2  C   UNL     1     -10.123   9.578  69.604  1.00  0.00    -0.212 C  
HETATM    3  N   UNL     1     -10.444  10.363  68.395  1.00  0.00    -0.178 NA 
HETATM    4  C   UNL     1      -8.673   9.775  70.070  1.00  0.00    -0.237 C  
HETATM    5  C   UNL     1     -10.303   8.098  69.208  1.00  0.00    -0.222 C  
HETATM    6  H   UNL     1     -10.714   9.918  67.518  1.00  0.00     0.000 HD 
ENDROOT
BRANCH   3   7
HETATM    7  C   UNL     1     -10.352  11.829  68.529  1.00  0.00    -0.217 C  
BRANCH   7   8
HETATM    8  C   UNL     1      -9.282  12.513  67.622  1.00  0.00    -0.190 C  
HETATM    9  H   UNL     1      -7.566  13.356  67.931  1.00  0.00     0.000 HD 
HETATM   10  O   UNL     1      -8.216  12.940  68.484  1.00  0.00    -0.139 OA 
BRANCH   8  11
HETATM   11  C   UNL     1      -9.785  13.670  66.764  1.00  0.00    -0.275 A  
HETATM   12  C   UNL     1     -10.952  13.518  65.992  1.00  0.00    -0.281 A  
HETATM   13  C   UNL     1     -11.479  14.564  65.212  1.00  0.00    -0.355 A  
HETATM   14  C   UNL     1     -10.740  15.747  65.121  1.00  0.00    -0.435 A  
HETATM   15  H   UNL     1     -10.631  17.595  64.269  1.00  0.00     0.000 HD 
HETATM   16  C   UNL     1      -9.563  15.912  65.837  1.00  0.00    -0.378 A  
HETATM   17  O   UNL     1     -11.133  16.791  64.331  1.00  0.00    -1.072 OA 
HETATM   18  C   UNL     1      -9.103  14.893  66.677  1.00  0.00    -0.309 A  
BRANCH  13  19
HETATM   19  C   UNL     1     -12.775  14.340  64.480  1.00  0.00    -0.055 C  
HETATM   20  O   UNL     1     -12.530  13.992  63.119  1.00  0.00    -1.137 OA 
HETATM   21  H   UNL     1     -13.347  13.850  62.656  1.00  0.00     0.000 HD 
ENDBRANCH  13  19
ENDBRANCH   8  11
ENDBRANCH   7   8
ENDBRANCH   3   7
TORSDOF 4
ENDMDL
MODEL       72
REMARK 921   NORMALIZED FREE ENERGY PREDICTED BY IDOCK:   -4.67 KCAL/MOL
REMARK 922        TOTAL FREE ENERGY PREDICTED BY IDOCK:   -6.47 KCAL/MOL
REMARK 923 INTER-LIGAND FREE ENERGY PREDICTED BY IDOCK:   -5.90 KCAL/MOL
REMARK 924 INTRA-LIGAND FREE ENERGY PREDICTED BY IDOCK:   -0.57 KCAL/MOL
REMARK 927      BINDING AFFINITY PREDICTED BY RF-SCORE:    0.00 PKD
ROOT
HETATM    1  C   UNL     1     -10.126   9.307  70.925  1.00  0.00    -0.373 C  
HETATM    2  C   UNL     1     -10.030   8.667  69.531  1.00  0.00    -0.196 C  
HETATM    3  N   UNL     1     -10.918   9.347  68.566  1.00  0.00    -0.454 NA 
HETATM    4  C   UNL     1      -8.568   8.627  69.062  1.00  0.00    -0.129 C  
HETATM    5  C   UNL     1     -10.543   7.216  69.628  1.00  0.00    -0.249 C  
HETATM    6  H   UNL     1     -11.687   8.861  68.104  1.00  0.00     0.000 HD 
ENDROOT
BRANCH   3   7
HETATM    7  C   UNL     1     -10.629  10.770  68.309  1.00  0.00    -0.200 C  
BRANCH   7   8
HETATM    8  C   UNL     1     -11.876  11.708  68.290  1.00  0.00    -0.265 C  
HETATM    9  H   UNL     1     -12.863  12.642  66.909  1.00  0.00     0.000 HD 
HETATM   10  O   UNL     1     -12.104  12.071  66.920  1.00  0.00    -0.608 OA 
BRANCH   8  11
HETATM   11  C   UNL     1     -11.783  12.949  69.174  1.00  0.00    -0.376 A  
HETATM   12  C   UNL     1     -12.528  13.021  70.365  1.00  0.00    -0.266 A  
HETATM   13  C   UNL     1     -12.451  14.125  71.234  1.00  0.00    -0.446 A  
HETATM   14  C   UNL     1     -11.696  15.228  70.823  1.00  0.00    -0.337 A  
HETATM   15  H   UNL     1     -11.108  17.123  71.286  1.00  0.00     0.000 HD 
HETATM   16  C   UNL     1     -10.984  15.204  69.633  1.00  0.00    -0.291 A  
HETATM   17  O   UNL     1     -11.621  16.374  71.565  1.00  0.00    -0.437 OA 
HETATM   18  C   UNL     1     -11.002  14.061  68.826  1.00  0.00    -0.282 A  
BRANCH  13  19
HETATM   19  C   UNL     1     -13.221  14.085  72.526  1.00  0.00    -0.505 C  
HETATM   20  O   UNL     1     -14.068  15.228  72.643  1.00  0.00    -0.486 OA 
HETATM   21  H   UNL     1     -14.554  15.203  73.459  1.00  0.00     0.000 HD 
ENDBRANCH  13  19
ENDBRANCH   8  11
ENDBRANCH   7   8
ENDBRANCH   3   7
TORSDOF 4
ENDMDL
MODEL       73
REMARK 921   NORMALIZED FREE ENERGY PREDICTED BY IDOCK:   -4.65 KCAL/MOL
REMARK 922        TOTAL FREE ENERGY PREDICTED BY IDOCK:   -6.44 KCAL/MOL
REMARK 923 INTER-LIGAND FREE ENERGY PREDICTED BY IDOCK:   -5.96 KCAL/MOL
REMARK 924 INTRA-LIGAND FREE ENERGY PREDICTED BY IDOCK:   -0.49 KCAL/MOL
REMARK 927      BINDING AFFINITY PREDICTED BY RF-SCORE:    0.00 PKD
ROOT
HETATM    1  C   UNL     1      -6.835  12.020  66.963  1.00  0.00    -0.097 C  
HETATM    2  C   UNL     1      -7.157  12.552  68.369  1.00  0.00    -0.107 C  
HETATM    3  N   UNL     1      -8.615  12.617  68.597  1.00  0.00    -0.369 NA 
HETATM    4  C   UNL     1      -6.429  11.718  69.434  1.00  0.00    -0.120 C  
HETATM    5  C   UNL     1      -6.648  14.005  68.466  1.00  0.00    -0.097 C  
HETATM    6  H   UNL     1      -9.093  13.499  68.782  1.00  0.00     0.000 HD 
ENDROOT
BRANCH   3   7
HETATM    7  C   UNL     1      -9.339  11.333  68.544  1.00  0.00    -0.182 C  
BRANCH   7   8
HETATM    8  C   UNL     1     -10.886  11.450  68.377  1.00  0.00    -0.207 C  
HETATM    9  H   UNL     1     -12.339  10.182  68.186  1.00  0.00     0.000 HD 
HETATM   10  O   UNL     1     -11.397  10.111  68.287  1.00  0.00    -0.232 OA 
BRANCH   8  11
HETATM   11  C   UNL     1     -11.362  12.295  67.200  1.00  0.00    -0.398 A  
HETATM   12  C   UNL     1     -11.152  11.849  65.882  1.00  0.00    -0.365 A  
HETATM   13  C   UNL     1     -11.603  12.570  64.762  1.00  0.00    -0.387 A  
HETATM   14  C   UNL     1     -12.172  13.829  64.982  1.00  0.00    -0.424 A  
HETATM   15  H   UNL     1     -12.960  15.489  64.103  1.00  0.00     0.000 HD 
HETATM   16  C   UNL     1     -12.356  14.315  66.268  1.00  0.00    -0.399 A  
HETATM   17  O   UNL     1     -12.573  14.635  63.954  1.00  0.00    -0.834 OA 
HETATM   18  C   UNL     1     -11.981  13.542  67.372  1.00  0.00    -0.398 A  
BRANCH  13  19
HETATM   19  C   UNL     1     -11.404  11.981  63.392  1.00  0.00    -0.397 C  
HETATM   20  O   UNL     1     -12.637  11.481  62.877  1.00  0.00    -0.946 OA 
HETATM   21  H   UNL     1     -12.512  11.108  62.011  1.00  0.00     0.000 HD 
ENDBRANCH  13  19
ENDBRANCH   8  11
ENDBRANCH   7   8
ENDBRANCH   3   7
TORSDOF 4
ENDMDL
MODEL       74
REMARK 921   NORMALIZED FREE ENERGY PREDICTED BY IDOCK:   -4.62 KCAL/MOL
REMARK 922        TOTAL FREE ENERGY PREDICTED BY IDOCK:   -6.41 KCAL/MOL
REMARK 923 INTER-LIGAND FREE ENERGY PREDICTED BY IDOCK:   -5.78 KCAL/MOL
REMARK 924 INTRA-LIGAND FREE ENERGY PREDICTED BY IDOCK:   -0.63 KCAL/MOL
REMARK 927      BINDING AFFINITY PREDICTED BY RF-SCORE:    0.00 PKD
ROOT
HETATM    1  C   UNL     1      -8.258  15.704  67.385  1.00  0.00    -0.198 C  
HETATM    2  C   UNL     1      -8.454  14.814  68.623  1.00  0.00    -0.167 C  
HETATM    3  N   UNL     1      -9.535  15.329  69.489  1.00  0.00    -0.368 NA 
HETATM    4  C   UNL     1      -8.680  13.355  68.200  1.00  0.00    -0.179 C  
HETATM    5  C   UNL     1      -7.167  14.875  69.471  1.00  0.00    -0.184 C  
HETATM    6  H   UNL     1      -9.361  15.632  70.447  1.00  0.00     0.000 HD 
ENDROOT
BRANCH   3   7
HETATM    7  C   UNL     1     -10.880  15.378  68.887  1.00  0.00    -0.251 C  
BRANCH   7   8
HETATM    8  C   UNL     1     -12.064  15.365  69.905  1.00  0.00    -0.355 C  
HETATM    9  H   UNL     1     -12.472  16.324  71.537  1.00  0.00     0.000 HD 
HETATM   10  O   UNL     1     -11.752  16.333  70.918  1.00  0.00    -0.376 OA 
BRANCH   8  11
HETATM   11  C   UNL     1     -12.385  14.009  70.527  1.00  0.00    -0.437 A  
HETATM   12  C   UNL     1     -11.886  12.831  69.943  1.00  0.00    -0.371 A  
HETATM   13  C   UNL     1     -12.121  11.559  70.496  1.00  0.00    -0.472 A  
HETATM   14  C   UNL     1     -12.981  11.474  71.595  1.00  0.00    -0.394 A  
HETATM   15  H   UNL     1     -13.912  10.219  72.903  1.00  0.00     0.000 HD 
HETATM   16  C   UNL     1     -13.523  12.615  72.169  1.00  0.00    -0.561 A  
HETATM   17  O   UNL     1     -13.328  10.277  72.156  1.00  0.00    -0.443 OA 
HETATM   18  C   UNL     1     -13.205  13.877  71.658  1.00  0.00    -0.446 A  
BRANCH  13  19
HETATM   19  C   UNL     1     -11.483  10.358  69.851  1.00  0.00    -0.297 C  
HETATM   20  O   UNL     1     -10.924   9.494  70.839  1.00  0.00    -0.281 OA 
HETATM   21  H   UNL     1     -10.521   8.736  70.432  1.00  0.00     0.000 HD 
ENDBRANCH  13  19
ENDBRANCH   8  11
ENDBRANCH   7   8
ENDBRANCH   3   7
TORSDOF 4
ENDMDL
MODEL       75
REMARK 921   NORMALIZED FREE ENERGY PREDICTED BY IDOCK:   -4.62 KCAL/MOL
REMARK 922        TOTAL FREE ENERGY PREDICTED BY IDOCK:   -6.41 KCAL/MOL
REMARK 923 INTER-LIGAND FREE ENERGY PREDICTED BY IDOCK:   -6.05 KCAL/MOL
REMARK 924 INTRA-LIGAND FREE ENERGY PREDICTED BY IDOCK:   -0.36 KCAL/MOL
REMARK 927      BINDING AFFINITY PREDICTED BY RF-SCORE:    0.00 PKD
ROOT
HETATM    1  C   UNL     1      -7.527  10.740  66.355  1.00  0.00    -0.142 C  
HETATM    2  C   UNL     1      -8.753   9.815  66.290  1.00  0.00    -0.139 C  
HETATM    3  N   UNL     1      -9.406   9.696  67.610  1.00  0.00    -0.127 NA 
HETATM    4  C   UNL     1      -9.719  10.286  65.193  1.00  0.00    -0.364 C  
HETATM    5  C   UNL     1      -8.270   8.395  65.928  1.00  0.00    -0.123 C  
HETATM    6  H   UNL     1      -9.478   8.803  68.098  1.00  0.00     0.000 HD 
ENDROOT
BRANCH   3   7
HETATM    7  C   UNL     1      -9.948  10.943  68.180  1.00  0.00    -0.174 C  
BRANCH   7   8
HETATM    8  C   UNL     1     -11.506  11.027  68.230  1.00  0.00    -0.304 C  
HETATM    9  H   UNL     1     -12.871  11.773  67.076  1.00  0.00     0.000 HD 
HETATM   10  O   UNL     1     -11.924  11.721  67.045  1.00  0.00    -0.610 OA 
BRANCH   8  11
HETATM   11  C   UNL     1     -12.093  11.680  69.479  1.00  0.00    -0.336 A  
HETATM   12  C   UNL     1     -12.036  13.077  69.636  1.00  0.00    -0.367 A  
HETATM   13  C   UNL     1     -12.593  13.732  70.749  1.00  0.00    -0.410 A  
HETATM   14  C   UNL     1     -13.111  12.942  71.780  1.00  0.00    -0.360 A  
HETATM   15  H   UNL     1     -13.960  12.948  73.632  1.00  0.00     0.000 HD 
HETATM   16  C   UNL     1     -13.144  11.559  71.673  1.00  0.00    -0.478 A  
HETATM   17  O   UNL     1     -13.608  13.485  72.932  1.00  0.00    -0.639 OA 
HETATM   18  C   UNL     1     -12.666  10.932  70.519  1.00  0.00    -0.363 A  
BRANCH  13  19
HETATM   19  C   UNL     1     -12.557  15.236  70.798  1.00  0.00    -0.417 C  
HETATM   20  O   UNL     1     -13.857  15.762  71.055  1.00  0.00    -0.700 OA 
HETATM   21  H   UNL     1     -13.835  16.711  71.086  1.00  0.00     0.000 HD 
ENDBRANCH  13  19
ENDBRANCH   8  11
ENDBRANCH   7   8
ENDBRANCH   3   7
TORSDOF 4
ENDMDL
MODEL       76
REMARK 921   NORMALIZED FREE ENERGY PREDICTED BY IDOCK:   -4.62 KCAL/MOL
REMARK 922        TOTAL FREE ENERGY PREDICTED BY IDOCK:   -6.41 KCAL/MOL
REMARK 923 INTER-LIGAND FREE ENERGY PREDICTED BY IDOCK:   -6.08 KCAL/MOL
REMARK 924 INTRA-LIGAND FREE ENERGY PREDICTED BY IDOCK:   -0.33 KCAL/MOL
REMARK 927      BINDING AFFINITY PREDICTED BY RF-SCORE:    0.00 PKD
ROOT
HETATM    1  C   UNL     1     -12.777  13.854  65.361  1.00  0.00    -0.525 C  
HETATM    2  C   UNL     1     -11.340  14.397  65.432  1.00  0.00    -0.339 C  
HETATM    3  N   UNL     1     -10.964  14.739  66.820  1.00  0.00    -0.321 NA 
HETATM    4  C   UNL     1     -10.363  13.408  64.781  1.00  0.00    -0.397 C  
HETATM    5  C   UNL     1     -11.284  15.720  64.641  1.00  0.00    -0.373 C  
HETATM    6  H   UNL     1     -10.724  15.691  67.095  1.00  0.00     0.000 HD 
ENDROOT
BRANCH   3   7
HETATM    7  C   UNL     1     -10.955  13.622  67.783  1.00  0.00    -0.259 C  
BRANCH   7   8
HETATM    8  C   UNL     1     -11.917  13.788  69.000  1.00  0.00    -0.360 C  
HETATM    9  H   UNL     1     -12.002  14.985  70.522  1.00  0.00     0.000 HD 
HETATM   10  O   UNL     1     -11.416  14.884  69.781  1.00  0.00    -0.264 OA 
BRANCH   8  11
HETATM   11  C   UNL     1     -12.109  12.546  69.866  1.00  0.00    -0.322 A  
HETATM   12  C   UNL     1     -11.565  11.315  69.459  1.00  0.00    -0.398 A  
HETATM   13  C   UNL     1     -11.681  10.148  70.237  1.00  0.00    -0.361 A  
HETATM   14  C   UNL     1     -12.468  10.207  71.391  1.00  0.00    -0.423 A  
HETATM   15  H   UNL     1     -13.234   9.149  72.955  1.00  0.00     0.000 HD 
HETATM   16  C   UNL     1     -13.053  11.398  71.797  1.00  0.00    -0.523 A  
HETATM   17  O   UNL     1     -12.700   9.109  72.171  1.00  0.00    -0.368 OA 
HETATM   18  C   UNL     1     -12.851  12.568  71.057  1.00  0.00    -0.246 A  
BRANCH  13  19
HETATM   19  C   UNL     1     -11.001   8.891  69.764  1.00  0.00    -0.156 C  
HETATM   20  O   UNL     1     -11.145   8.742  68.352  1.00  0.00    -0.445 OA 
HETATM   21  H   UNL     1     -10.716   7.949  68.053  1.00  0.00     0.000 HD 
ENDBRANCH  13  19
ENDBRANCH   8  11
ENDBRANCH   7   8
ENDBRANCH   3   7
TORSDOF 4
ENDMDL
MODEL       77
REMARK 921   NORMALIZED FREE ENERGY PREDICTED BY IDOCK:   -4.59 KCAL/MOL
REMARK 922        TOTAL FREE ENERGY PREDICTED BY IDOCK:   -6.37 KCAL/MOL
REMARK 923 INTER-LIGAND FREE ENERGY PREDICTED BY IDOCK:   -6.25 KCAL/MOL
REMARK 924 INTRA-LIGAND FREE ENERGY PREDICTED BY IDOCK:   -0.13 KCAL/MOL
REMARK 927      BINDING AFFINITY PREDICTED BY RF-SCORE:    0.00 PKD
ROOT
HETATM    1  C   UNL     1     -11.027  16.287  64.834  1.00  0.00    -0.321 C  
HETATM    2  C   UNL     1     -10.358  16.436  66.210  1.00  0.00    -0.329 C  
HETATM    3  N   UNL     1     -11.039  15.611  67.229  1.00  0.00    -0.282 NA 
HETATM    4  C   UNL     1      -8.857  16.132  66.109  1.00  0.00    -0.367 C  
HETATM    5  C   UNL     1     -10.522  17.899  66.671  1.00  0.00    -0.318 C  
HETATM    6  H   UNL     1     -11.491  16.025  68.044  1.00  0.00     0.000 HD 
ENDROOT
BRANCH   3   7
HETATM    7  C   UNL     1     -11.026  14.154  67.000  1.00  0.00    -0.300 C  
BRANCH   7   8
HETATM    8  C   UNL     1     -10.530  13.297  68.205  1.00  0.00    -0.245 C  
HETATM    9  H   UNL     1      -9.928  11.468  68.425  1.00  0.00     0.000 HD 
HETATM   10  O   UNL     1     -10.230  11.990  67.691  1.00  0.00    -0.195 OA 
BRANCH   8  11
HETATM   11  C   UNL     1     -11.485  13.209  69.392  1.00  0.00    -0.321 A  
HETATM   12  C   UNL     1     -11.859  14.376  70.082  1.00  0.00    -0.380 A  
HETATM   13  C   UNL     1     -12.764  14.356  71.159  1.00  0.00    -0.422 A  
HETATM   14  C   UNL     1     -13.203  13.111  71.620  1.00  0.00    -0.346 A  
HETATM   15  H   UNL     1     -14.323  12.140  73.017  1.00  0.00     0.000 HD 
HETATM   16  C   UNL     1     -12.819  11.938  70.986  1.00  0.00    -0.291 A  
HETATM   17  O   UNL     1     -14.025  12.985  72.705  1.00  0.00    -0.657 OA 
HETATM   18  C   UNL     1     -11.989  11.986  69.861  1.00  0.00    -0.391 A  
BRANCH  13  19
HETATM   19  C   UNL     1     -13.169  15.660  71.790  1.00  0.00    -0.465 C  
HETATM   20  O   UNL     1     -12.043  16.526  71.924  1.00  0.00    -0.616 OA 
HETATM   21  H   UNL     1     -12.299  17.350  72.322  1.00  0.00     0.000 HD 
ENDBRANCH  13  19
ENDBRANCH   8  11
ENDBRANCH   7   8
ENDBRANCH   3   7
TORSDOF 4
ENDMDL
MODEL       78
REMARK 921   NORMALIZED FREE ENERGY PREDICTED BY IDOCK:   -4.58 KCAL/MOL
REMARK 922        TOTAL FREE ENERGY PREDICTED BY IDOCK:   -6.36 KCAL/MOL
REMARK 923 INTER-LIGAND FREE ENERGY PREDICTED BY IDOCK:   -5.84 KCAL/MOL
REMARK 924 INTRA-LIGAND FREE ENERGY PREDICTED BY IDOCK:   -0.53 KCAL/MOL
REMARK 927      BINDING AFFINITY PREDICTED BY RF-SCORE:    0.00 PKD
ROOT
HETATM    1  C   UNL     1     -10.511   8.240  67.572  1.00  0.00    -0.325 C  
HETATM    2  C   UNL     1     -10.099   8.274  69.053  1.00  0.00    -0.202 C  
HETATM    3  N   UNL     1     -10.152   9.648  69.593  1.00  0.00    -0.209 NA 
HETATM    4  C   UNL     1     -10.948   7.286  69.866  1.00  0.00    -0.262 C  
HETATM    5  C   UNL     1      -8.623   7.835  69.155  1.00  0.00    -0.138 C  
HETATM    6  H   UNL     1      -9.320  10.121  69.946  1.00  0.00     0.000 HD 
ENDROOT
BRANCH   3   7
HETATM    7  C   UNL     1     -11.477  10.295  69.593  1.00  0.00    -0.235 C  
BRANCH   7   8
HETATM    8  C   UNL     1     -12.069  10.597  71.005  1.00  0.00    -0.368 C  
HETATM    9  H   UNL     1     -13.459   9.810  72.100  1.00  0.00     0.000 HD 
HETATM   10  O   UNL     1     -13.099   9.626  71.241  1.00  0.00    -0.354 OA 
BRANCH   8  11
HETATM   11  C   UNL     1     -12.598  12.013  71.210  1.00  0.00    -0.357 A  
HETATM   12  C   UNL     1     -12.093  13.073  70.435  1.00  0.00    -0.391 A  
HETATM   13  C   UNL     1     -12.571  14.390  70.559  1.00  0.00    -0.417 A  
HETATM   14  C   UNL     1     -13.495  14.657  71.574  1.00  0.00    -0.388 A  
HETATM   15  H   UNL     1     -14.589  16.099  72.509  1.00  0.00     0.000 HD 
HETATM   16  C   UNL     1     -13.981  13.641  72.384  1.00  0.00    -0.651 A  
HETATM   17  O   UNL     1     -13.962  15.918  71.819  1.00  0.00    -0.370 OA 
HETATM   18  C   UNL     1     -13.559  12.322  72.185  1.00  0.00    -0.348 A  
BRANCH  13  19
HETATM   19  C   UNL     1     -12.031  15.447  69.634  1.00  0.00    -0.343 C  
HETATM   20  O   UNL     1     -11.502  16.544  70.378  1.00  0.00    -0.480 OA 
HETATM   21  H   UNL     1     -11.161  17.212  69.795  1.00  0.00     0.000 HD 
ENDBRANCH  13  19
ENDBRANCH   8  11
ENDBRANCH   7   8
ENDBRANCH   3   7
TORSDOF 4
ENDMDL
MODEL       79
REMARK 921   NORMALIZED FREE ENERGY PREDICTED BY IDOCK:   -4.58 KCAL/MOL
REMARK 922        TOTAL FREE ENERGY PREDICTED BY IDOCK:   -6.36 KCAL/MOL
REMARK 923 INTER-LIGAND FREE ENERGY PREDICTED BY IDOCK:   -6.08 KCAL/MOL
REMARK 924 INTRA-LIGAND FREE ENERGY PREDICTED BY IDOCK:   -0.28 KCAL/MOL
REMARK 927      BINDING AFFINITY PREDICTED BY RF-SCORE:    0.00 PKD
ROOT
HETATM    1  C   UNL     1     -13.133   9.494  72.177  1.00  0.00    -0.522 C  
HETATM    2  C   UNL     1     -12.135   8.475  71.602  1.00  0.00    -0.321 C  
HETATM    3  N   UNL     1     -11.664   8.883  70.263  1.00  0.00    -0.465 NA 
HETATM    4  C   UNL     1     -10.982   8.243  72.589  1.00  0.00    -0.386 C  
HETATM    5  C   UNL     1     -12.873   7.135  71.402  1.00  0.00    -0.431 C  
HETATM    6  H   UNL     1     -11.837   8.315  69.434  1.00  0.00     0.000 HD 
ENDROOT
BRANCH   3   7
HETATM    7  C   UNL     1     -10.927  10.158  70.194  1.00  0.00    -0.316 C  
BRANCH   7   8
HETATM    8  C   UNL     1     -10.158  10.410  68.860  1.00  0.00    -0.201 C  
HETATM    9  H   UNL     1      -8.328  10.850  68.400  1.00  0.00     0.000 HD 
HETATM   10  O   UNL     1      -8.796  10.697  69.213  1.00  0.00    -0.153 OA 
BRANCH   8  11
HETATM   11  C   UNL     1     -10.730  11.504  67.963  1.00  0.00    -0.241 A  
HETATM   12  C   UNL     1     -10.900  12.807  68.463  1.00  0.00    -0.279 A  
HETATM   13  C   UNL     1     -11.389  13.860  67.669  1.00  0.00    -0.335 A  
HETATM   14  C   UNL     1     -11.827  13.554  66.376  1.00  0.00    -0.394 A  
HETATM   15  H   UNL     1     -12.682  14.287  64.678  1.00  0.00     0.000 HD 
HETATM   16  C   UNL     1     -11.711  12.268  65.868  1.00  0.00    -0.451 A  
HETATM   17  O   UNL     1     -12.384  14.495  65.556  1.00  0.00    -0.351 OA 
HETATM   18  C   UNL     1     -11.140  11.255  66.644  1.00  0.00    -0.299 A  
BRANCH  13  19
HETATM   19  C   UNL     1     -11.464  15.241  68.262  1.00  0.00    -0.347 C  
HETATM   20  O   UNL     1     -12.624  15.374  69.082  1.00  0.00    -0.590 OA 
HETATM   21  H   UNL     1     -12.672  16.245  69.457  1.00  0.00     0.000 HD 
ENDBRANCH  13  19
ENDBRANCH   8  11
ENDBRANCH   7   8
ENDBRANCH   3   7
TORSDOF 4
ENDMDL
MODEL       80
REMARK 921   NORMALIZED FREE ENERGY PREDICTED BY IDOCK:   -4.58 KCAL/MOL
REMARK 922        TOTAL FREE ENERGY PREDICTED BY IDOCK:   -6.35 KCAL/MOL
REMARK 923 INTER-LIGAND FREE ENERGY PREDICTED BY IDOCK:   -5.95 KCAL/MOL
REMARK 924 INTRA-LIGAND FREE ENERGY PREDICTED BY IDOCK:   -0.41 KCAL/MOL
REMARK 927      BINDING AFFINITY PREDICTED BY RF-SCORE:    0.00 PKD
ROOT
HETATM    1  C   UNL     1      -8.980  15.095  68.048  1.00  0.00    -0.172 C  
HETATM    2  C   UNL     1      -9.491  16.053  66.959  1.00  0.00    -0.218 C  
HETATM    3  N   UNL     1     -10.315  15.339  65.961  1.00  0.00    -0.293 NA 
HETATM    4  C   UNL     1     -10.230  17.238  67.597  1.00  0.00    -0.333 C  
HETATM    5  C   UNL     1      -8.274  16.603  66.188  1.00  0.00    -0.295 C  
HETATM    6  H   UNL     1     -10.047  15.287  64.979  1.00  0.00     0.000 HD 
ENDROOT
BRANCH   3   7
HETATM    7  C   UNL     1     -11.548  14.708  66.469  1.00  0.00    -0.344 C  
BRANCH   7   8
HETATM    8  C   UNL     1     -11.461  13.166  66.689  1.00  0.00    -0.348 C  
HETATM    9  H   UNL     1     -12.258  11.618  65.840  1.00  0.00     0.000 HD 
HETATM   10  O   UNL     1     -12.310  12.556  65.705  1.00  0.00    -0.627 OA 
BRANCH   8  11
HETATM   11  C   UNL     1     -11.815  12.678  68.091  1.00  0.00    -0.366 A  
HETATM   12  C   UNL     1     -12.033  13.606  69.125  1.00  0.00    -0.394 A  
HETATM   13  C   UNL     1     -12.396  13.211  70.426  1.00  0.00    -0.351 A  
HETATM   14  C   UNL     1     -12.420  11.842  70.710  1.00  0.00    -0.291 A  
HETATM   15  H   UNL     1     -12.708  10.435  72.155  1.00  0.00     0.000 HD 
HETATM   16  C   UNL     1     -12.169  10.902  69.721  1.00  0.00    -0.381 A  
HETATM   17  O   UNL     1     -12.691  11.365  71.962  1.00  0.00    -0.261 OA 
HETATM   18  C   UNL     1     -11.897  11.314  68.413  1.00  0.00    -0.331 A  
BRANCH  13  19
HETATM   19  C   UNL     1     -12.687  14.274  71.451  1.00  0.00    -0.352 C  
HETATM   20  O   UNL     1     -13.295  15.410  70.839  1.00  0.00    -0.588 OA 
HETATM   21  H   UNL     1     -13.479  16.081  71.486  1.00  0.00     0.000 HD 
ENDBRANCH  13  19
ENDBRANCH   8  11
ENDBRANCH   7   8
ENDBRANCH   3   7
TORSDOF 4
ENDMDL
MODEL       81
REMARK 921   NORMALIZED FREE ENERGY PREDICTED BY IDOCK:   -4.57 KCAL/MOL
REMARK 922        TOTAL FREE ENERGY PREDICTED BY IDOCK:   -6.35 KCAL/MOL
REMARK 923 INTER-LIGAND FREE ENERGY PREDICTED BY IDOCK:   -5.83 KCAL/MOL
REMARK 924 INTRA-LIGAND FREE ENERGY PREDICTED BY IDOCK:   -0.51 KCAL/MOL
REMARK 927      BINDING AFFINITY PREDICTED BY RF-SCORE:    0.00 PKD
ROOT
HETATM    1  C   UNL     1     -11.762  16.091  71.518  1.00  0.00    -0.554 C  
HETATM    2  C   UNL     1     -12.719  14.914  71.268  1.00  0.00    -0.340 C  
HETATM    3  N   UNL     1     -12.558  14.372  69.903  1.00  0.00    -0.507 NA 
HETATM    4  C   UNL     1     -12.543  13.843  72.354  1.00  0.00    -0.199 C  
HETATM    5  C   UNL     1     -14.166  15.442  71.344  1.00  0.00    -0.519 C  
HETATM    6  H   UNL     1     -13.318  14.385  69.223  1.00  0.00     0.000 HD 
ENDROOT
BRANCH   3   7
HETATM    7  C   UNL     1     -11.233  13.810  69.581  1.00  0.00    -0.115 C  
BRANCH   7   8
HETATM    8  C   UNL     1     -11.250  12.362  68.997  1.00  0.00    -0.266 C  
HETATM    9  H   UNL     1     -12.251  11.462  67.604  1.00  0.00     0.000 HD 
HETATM   10  O   UNL     1     -12.241  12.343  67.959  1.00  0.00    -0.356 OA 
BRANCH   8  11
HETATM   11  C   UNL     1     -11.498  11.245  70.007  1.00  0.00    -0.359 A  
HETATM   12  C   UNL     1     -10.467  10.343  70.326  1.00  0.00    -0.110 A  
HETATM   13  C   UNL     1     -10.631   9.318  71.276  1.00  0.00    -0.417 A  
HETATM   14  C   UNL     1     -11.904   9.133  71.824  1.00  0.00    -0.383 A  
HETATM   15  H   UNL     1     -13.044   7.994  73.071  1.00  0.00     0.000 HD 
HETATM   16  C   UNL     1     -12.953   9.981  71.498  1.00  0.00    -0.535 A  
HETATM   17  O   UNL     1     -12.179   8.120  72.699  1.00  0.00    -0.334 OA 
HETATM   18  C   UNL     1     -12.746  11.049  70.618  1.00  0.00    -0.375 A  
BRANCH  13  19
HETATM   19  C   UNL     1      -9.451   8.447  71.613  1.00  0.00    -0.214 C  
HETATM   20  O   UNL     1      -9.387   8.210  73.019  1.00  0.00    -0.251 OA 
HETATM   21  H   UNL     1      -8.642   7.660  73.232  1.00  0.00     0.000 HD 
ENDBRANCH  13  19
ENDBRANCH   8  11
ENDBRANCH   7   8
ENDBRANCH   3   7
TORSDOF 4
ENDMDL
MODEL       82
REMARK 921   NORMALIZED FREE ENERGY PREDICTED BY IDOCK:   -4.57 KCAL/MOL
REMARK 922        TOTAL FREE ENERGY PREDICTED BY IDOCK:   -6.35 KCAL/MOL
REMARK 923 INTER-LIGAND FREE ENERGY PREDICTED BY IDOCK:   -5.86 KCAL/MOL
REMARK 924 INTRA-LIGAND FREE ENERGY PREDICTED BY IDOCK:   -0.48 KCAL/MOL
REMARK 927      BINDING AFFINITY PREDICTED BY RF-SCORE:    0.00 PKD
ROOT
HETATM    1  C   UNL     1     -10.087  20.272  67.875  1.00  0.00    -0.476 C  
HETATM    2  C   UNL     1      -9.572  19.124  66.991  1.00  0.00    -0.322 C  
HETATM    3  N   UNL     1      -9.245  17.930  67.798  1.00  0.00    -0.255 NA 
HETATM    4  C   UNL     1     -10.577  18.823  65.870  1.00  0.00    -0.405 C  
HETATM    5  C   UNL     1      -8.246  19.571  66.341  1.00  0.00    -0.347 C  
HETATM    6  H   UNL     1      -8.300  17.552  67.843  1.00  0.00     0.000 HD 
ENDROOT
BRANCH   3   7
HETATM    7  C   UNL     1     -10.367  17.318  68.534  1.00  0.00    -0.371 C  
BRANCH   7   8
HETATM    8  C   UNL     1     -10.128  15.850  69.008  1.00  0.00    -0.228 C  
HETATM    9  H   UNL     1      -8.568  14.805  69.483  1.00  0.00     0.000 HD 
HETATM   10  O   UNL     1      -8.713  15.699  69.195  1.00  0.00    -0.217 OA 
BRANCH   8  11
HETATM   11  C   UNL     1     -10.676  14.762  68.089  1.00  0.00    -0.247 A  
HETATM   12  C   UNL     1     -10.614  13.413  68.482  1.00  0.00    -0.264 A  
HETATM   13  C   UNL     1     -11.137  12.374  67.690  1.00  0.00    -0.306 A  
HETATM   14  C   UNL     1     -11.622  12.702  66.420  1.00  0.00    -0.384 A  
HETATM   15  H   UNL     1     -12.412  11.976  64.688  1.00  0.00     0.000 HD 
HETATM   16  C   UNL     1     -11.657  14.019  65.986  1.00  0.00    -0.362 A  
HETATM   17  O   UNL     1     -12.082  11.753  65.550  1.00  0.00    -0.316 OA 
HETATM   18  C   UNL     1     -11.215  15.047  66.825  1.00  0.00    -0.322 A  
BRANCH  13  19
HETATM   19  C   UNL     1     -11.100  10.967  68.223  1.00  0.00    -0.257 C  
HETATM   20  O   UNL     1     -12.406  10.540  68.606  1.00  0.00    -0.785 OA 
HETATM   21  H   UNL     1     -12.383   9.652  68.943  1.00  0.00     0.000 HD 
ENDBRANCH  13  19
ENDBRANCH   8  11
ENDBRANCH   7   8
ENDBRANCH   3   7
TORSDOF 4
ENDMDL
MODEL       83
REMARK 921   NORMALIZED FREE ENERGY PREDICTED BY IDOCK:   -4.55 KCAL/MOL
REMARK 922        TOTAL FREE ENERGY PREDICTED BY IDOCK:   -6.32 KCAL/MOL
REMARK 923 INTER-LIGAND FREE ENERGY PREDICTED BY IDOCK:   -6.02 KCAL/MOL
REMARK 924 INTRA-LIGAND FREE ENERGY PREDICTED BY IDOCK:   -0.30 KCAL/MOL
REMARK 927      BINDING AFFINITY PREDICTED BY RF-SCORE:    0.00 PKD
ROOT
HETATM    1  C   UNL     1     -13.159  10.167  71.900  1.00  0.00    -0.571 C  
HETATM    2  C   UNL     1     -12.610   8.787  71.500  1.00  0.00    -0.326 C  
HETATM    3  N   UNL     1     -12.020   8.817  70.146  1.00  0.00    -0.349 NA 
HETATM    4  C   UNL     1     -11.627   8.276  72.563  1.00  0.00    -0.454 C  
HETATM    5  C   UNL     1     -13.793   7.800  71.425  1.00  0.00    -0.384 C  
HETATM    6  H   UNL     1     -12.391   8.251  69.383  1.00  0.00     0.000 HD 
ENDROOT
BRANCH   3   7
HETATM    7  C   UNL     1     -10.862   9.711  69.963  1.00  0.00    -0.264 C  
BRANCH   7   8
HETATM    8  C   UNL     1     -11.028  10.793  68.851  1.00  0.00    -0.241 C  
HETATM    9  H   UNL     1     -12.532  11.747  68.087  1.00  0.00     0.000 HD 
HETATM   10  O   UNL     1     -12.431  11.088  68.764  1.00  0.00    -0.468 OA 
BRANCH   8  11
HETATM   11  C   UNL     1     -10.463  10.427  67.482  1.00  0.00    -0.292 A  
HETATM   12  C   UNL     1     -10.683  11.273  66.380  1.00  0.00    -0.320 A  
HETATM   13  C   UNL     1     -10.154  11.002  65.105  1.00  0.00    -0.346 A  
HETATM   14  C   UNL     1      -9.490   9.785  64.919  1.00  0.00    -0.265 A  
HETATM   15  H   UNL     1      -8.553   8.574  63.574  1.00  0.00     0.000 HD 
HETATM   16  C   UNL     1      -9.292   8.910  65.977  1.00  0.00    -0.306 A  
HETATM   17  O   UNL     1      -9.005   9.400  63.701  1.00  0.00    -0.218 OA 
HETATM   18  C   UNL     1      -9.749   9.240  67.257  1.00  0.00    -0.218 A  
BRANCH  13  19
HETATM   19  C   UNL     1     -10.373  12.001  64.001  1.00  0.00    -0.373 C  
HETATM   20  O   UNL     1      -9.981  13.307  64.421  1.00  0.00    -0.629 OA 
HETATM   21  H   UNL     1     -10.119  13.939  63.725  1.00  0.00     0.000 HD 
ENDBRANCH  13  19
ENDBRANCH   8  11
ENDBRANCH   7   8
ENDBRANCH   3   7
TORSDOF 4
ENDMDL
MODEL       84
REMARK 921   NORMALIZED FREE ENERGY PREDICTED BY IDOCK:   -4.55 KCAL/MOL
REMARK 922        TOTAL FREE ENERGY PREDICTED BY IDOCK:   -6.32 KCAL/MOL
REMARK 923 INTER-LIGAND FREE ENERGY PREDICTED BY IDOCK:   -5.70 KCAL/MOL
REMARK 924 INTRA-LIGAND FREE ENERGY PREDICTED BY IDOCK:   -0.62 KCAL/MOL
REMARK 927      BINDING AFFINITY PREDICTED BY RF-SCORE:    0.00 PKD
ROOT
HETATM    1  C   UNL     1      -9.032  18.456  68.431  1.00  0.00    -0.336 C  
HETATM    2  C   UNL     1      -8.054  17.274  68.335  1.00  0.00    -0.259 C  
HETATM    3  N   UNL     1      -8.531  16.116  69.120  1.00  0.00    -0.253 NA 
HETATM    4  C   UNL     1      -7.787  16.921  66.864  1.00  0.00    -0.252 C  
HETATM    5  C   UNL     1      -6.717  17.698  68.978  1.00  0.00    -0.250 C  
HETATM    6  H   UNL     1      -8.003  15.744  69.908  1.00  0.00     0.000 HD 
ENDROOT
BRANCH   3   7
HETATM    7  C   UNL     1      -9.817  15.531  68.696  1.00  0.00    -0.207 C  
BRANCH   7   8
HETATM    8  C   UNL     1      -9.742  14.053  68.200  1.00  0.00    -0.220 C  
HETATM    9  H   UNL     1      -8.306  12.842  67.727  1.00  0.00     0.000 HD 
HETATM   10  O   UNL     1      -8.352  13.741  68.029  1.00  0.00    -0.149 OA 
BRANCH   8  11
HETATM   11  C   UNL     1     -10.530  13.741  66.931  1.00  0.00    -0.272 A  
HETATM   12  C   UNL     1     -10.057  12.771  66.030  1.00  0.00    -0.277 A  
HETATM   13  C   UNL     1     -10.762  12.418  64.864  1.00  0.00    -0.328 A  
HETATM   14  C   UNL     1     -11.909  13.153  64.548  1.00  0.00    -0.377 A  
HETATM   15  H   UNL     1     -13.399  13.433  63.186  1.00  0.00     0.000 HD 
HETATM   16  C   UNL     1     -12.379  14.146  65.396  1.00  0.00    -0.475 A  
HETATM   17  O   UNL     1     -12.620  12.934  63.401  1.00  0.00    -0.709 OA 
HETATM   18  C   UNL     1     -11.712  14.420  66.595  1.00  0.00    -0.410 A  
BRANCH  13  19
HETATM   19  C   UNL     1     -10.223  11.313  63.997  1.00  0.00    -0.348 C  
HETATM   20  O   UNL     1     -10.209  11.711  62.627  1.00  0.00    -0.576 OA 
HETATM   21  H   UNL     1      -9.869  11.014  62.078  1.00  0.00     0.000 HD 
ENDBRANCH  13  19
ENDBRANCH   8  11
ENDBRANCH   7   8
ENDBRANCH   3   7
TORSDOF 4
ENDMDL
MODEL       85
REMARK 921   NORMALIZED FREE ENERGY PREDICTED BY IDOCK:   -4.52 KCAL/MOL
REMARK 922        TOTAL FREE ENERGY PREDICTED BY IDOCK:   -6.28 KCAL/MOL
REMARK 923 INTER-LIGAND FREE ENERGY PREDICTED BY IDOCK:   -5.98 KCAL/MOL
REMARK 924 INTRA-LIGAND FREE ENERGY PREDICTED BY IDOCK:   -0.30 KCAL/MOL
REMARK 927      BINDING AFFINITY PREDICTED BY RF-SCORE:    0.00 PKD
ROOT
HETATM    1  C   UNL     1     -11.747   8.125  72.589  1.00  0.00    -0.419 C  
HETATM    2  C   UNL     1     -12.637   8.028  71.338  1.00  0.00    -0.289 C  
HETATM    3  N   UNL     1     -12.753   9.336  70.660  1.00  0.00    -0.495 NA 
HETATM    4  C   UNL     1     -12.125   6.921  70.405  1.00  0.00    -0.250 C  
HETATM    5  C   UNL     1     -14.065   7.656  71.788  1.00  0.00    -0.510 C  
HETATM    6  H   UNL     1     -13.649   9.811  70.555  1.00  0.00     0.000 HD 
ENDROOT
BRANCH   3   7
HETATM    7  C   UNL     1     -11.498   9.912  70.143  1.00  0.00    -0.248 C  
BRANCH   7   8
HETATM    8  C   UNL     1     -11.579  10.486  68.694  1.00  0.00    -0.171 C  
HETATM    9  H   UNL     1     -10.502  10.311  67.093  1.00  0.00     0.000 HD 
HETATM   10  O   UNL     1     -10.453   9.962  67.974  1.00  0.00    -0.194 OA 
BRANCH   8  11
HETATM   11  C   UNL     1     -11.632  12.008  68.588  1.00  0.00    -0.372 A  
HETATM   12  C   UNL     1     -11.685  12.623  67.324  1.00  0.00    -0.435 A  
HETATM   13  C   UNL     1     -11.772  14.019  67.171  1.00  0.00    -0.421 A  
HETATM   14  C   UNL     1     -11.682  14.810  68.321  1.00  0.00    -0.311 A  
HETATM   15  H   UNL     1     -11.622  16.713  69.047  1.00  0.00     0.000 HD 
HETATM   16  C   UNL     1     -11.587  14.233  69.579  1.00  0.00    -0.353 A  
HETATM   17  O   UNL     1     -11.683  16.175  68.266  1.00  0.00    -0.281 OA 
HETATM   18  C   UNL     1     -11.591  12.841  69.716  1.00  0.00    -0.288 A  
BRANCH  13  19
HETATM   19  C   UNL     1     -11.904  14.589  65.784  1.00  0.00    -0.327 C  
HETATM   20  O   UNL     1     -13.239  14.439  65.304  1.00  0.00    -0.619 OA 
HETATM   21  H   UNL     1     -13.323  14.799  64.429  1.00  0.00     0.000 HD 
ENDBRANCH  13  19
ENDBRANCH   8  11
ENDBRANCH   7   8
ENDBRANCH   3   7
TORSDOF 4
ENDMDL
MODEL       86
REMARK 921   NORMALIZED FREE ENERGY PREDICTED BY IDOCK:   -4.50 KCAL/MOL
REMARK 922        TOTAL FREE ENERGY PREDICTED BY IDOCK:   -6.26 KCAL/MOL
REMARK 923 INTER-LIGAND FREE ENERGY PREDICTED BY IDOCK:   -6.36 KCAL/MOL
REMARK 924 INTRA-LIGAND FREE ENERGY PREDICTED BY IDOCK:    0.10 KCAL/MOL
REMARK 927      BINDING AFFINITY PREDICTED BY RF-SCORE:    0.00 PKD
ROOT
HETATM    1  C   UNL     1     -12.495  13.751  64.863  1.00  0.00    -0.420 C  
HETATM    2  C   UNL     1     -11.294  12.795  64.776  1.00  0.00    -0.309 C  
HETATM    3  N   UNL     1     -10.027  13.539  64.617  1.00  0.00    -0.632 NA 
HETATM    4  C   UNL     1     -11.276  11.848  65.985  1.00  0.00    -0.377 C  
HETATM    5  C   UNL     1     -11.446  11.942  63.500  1.00  0.00    -0.523 C  
HETATM    6  H   UNL     1      -9.439  13.432  63.791  1.00  0.00     0.000 HD 
ENDROOT
BRANCH   3   7
HETATM    7  C   UNL     1      -9.664  14.445  65.722  1.00  0.00    -0.252 C  
BRANCH   7   8
HETATM    8  C   UNL     1     -10.754  15.493  66.107  1.00  0.00    -0.313 C  
HETATM    9  H   UNL     1     -11.071  17.355  65.676  1.00  0.00     0.000 HD 
HETATM   10  O   UNL     1     -10.408  16.717  65.441  1.00  0.00    -0.584 OA 
BRANCH   8  11
HETATM   11  C   UNL     1     -10.950  15.724  67.603  1.00  0.00    -0.302 A  
HETATM   12  C   UNL     1     -11.769  14.856  68.347  1.00  0.00    -0.336 A  
HETATM   13  C   UNL     1     -11.955  15.001  69.734  1.00  0.00    -0.366 A  
HETATM   14  C   UNL     1     -11.394  16.122  70.354  1.00  0.00    -0.363 A  
HETATM   15  H   UNL     1     -11.200  17.149  72.103  1.00  0.00     0.000 HD 
HETATM   16  C   UNL     1     -10.615  17.020  69.639  1.00  0.00    -0.087 A  
HETATM   17  O   UNL     1     -11.581  16.388  71.682  1.00  0.00    -0.443 OA 
HETATM   18  C   UNL     1     -10.369  16.808  68.278  1.00  0.00    -0.319 A  
BRANCH  13  19
HETATM   19  C   UNL     1     -12.785  13.980  70.466  1.00  0.00    -0.280 C  
HETATM   20  O   UNL     1     -14.031  14.544  70.873  1.00  0.00    -0.456 OA 
HETATM   21  H   UNL     1     -14.555  13.900  71.335  1.00  0.00     0.000 HD 
ENDBRANCH  13  19
ENDBRANCH   8  11
ENDBRANCH   7   8
ENDBRANCH   3   7
TORSDOF 4
ENDMDL
MODEL       87
REMARK 921   NORMALIZED FREE ENERGY PREDICTED BY IDOCK:   -4.49 KCAL/MOL
REMARK 922        TOTAL FREE ENERGY PREDICTED BY IDOCK:   -6.25 KCAL/MOL
REMARK 923 INTER-LIGAND FREE ENERGY PREDICTED BY IDOCK:   -5.67 KCAL/MOL
REMARK 924 INTRA-LIGAND FREE ENERGY PREDICTED BY IDOCK:   -0.58 KCAL/MOL
REMARK 927      BINDING AFFINITY PREDICTED BY RF-SCORE:    0.00 PKD
ROOT
HETATM    1  C   UNL     1      -9.076  16.796  66.202  1.00  0.00    -0.288 C  
HETATM    2  C   UNL     1     -10.106  15.854  66.846  1.00  0.00    -0.266 C  
HETATM    3  N   UNL     1     -11.136  15.438  65.872  1.00  0.00    -0.292 NA 
HETATM    4  C   UNL     1      -9.399  14.660  67.505  1.00  0.00    -0.195 C  
HETATM    5  C   UNL     1     -10.855  16.635  67.946  1.00  0.00    -0.321 C  
HETATM    6  H   UNL     1     -12.122  15.667  65.999  1.00  0.00     0.000 HD 
ENDROOT
BRANCH   3   7
HETATM    7  C   UNL     1     -10.656  14.673  64.707  1.00  0.00    -0.353 C  
BRANCH   7   8
HETATM    8  C   UNL     1     -11.388  13.318  64.455  1.00  0.00    -0.383 C  
HETATM    9  H   UNL     1     -13.229  12.795  64.155  1.00  0.00     0.000 HD 
HETATM   10  O   UNL     1     -12.784  13.620  64.308  1.00  0.00    -0.647 OA 
BRANCH   8  11
HETATM   11  C   UNL     1     -11.172  12.242  65.516  1.00  0.00    -0.376 A  
HETATM   12  C   UNL     1     -10.379  11.118  65.227  1.00  0.00    -0.336 A  
HETATM   13  C   UNL     1     -10.118  10.116  66.180  1.00  0.00    -0.314 A  
HETATM   14  C   UNL     1     -10.775  10.199  67.411  1.00  0.00    -0.277 A  
HETATM   15  H   UNL     1     -11.089   9.293  69.209  1.00  0.00     0.000 HD 
HETATM   16  C   UNL     1     -11.598  11.275  67.711  1.00  0.00    -0.307 A  
HETATM   17  O   UNL     1     -10.643   9.236  68.372  1.00  0.00    -0.218 OA 
HETATM   18  C   UNL     1     -11.773  12.306  66.783  1.00  0.00    -0.411 A  
BRANCH  13  19
HETATM   19  C   UNL     1      -9.194   8.987  65.810  1.00  0.00    -0.232 C  
HETATM   20  O   UNL     1      -9.820   7.727  66.047  1.00  0.00    -0.451 OA 
HETATM   21  H   UNL     1      -9.236   7.014  65.814  1.00  0.00     0.000 HD 
ENDBRANCH  13  19
ENDBRANCH   8  11
ENDBRANCH   7   8
ENDBRANCH   3   7
TORSDOF 4
ENDMDL
MODEL       88
REMARK 921   NORMALIZED FREE ENERGY PREDICTED BY IDOCK:   -4.47 KCAL/MOL
REMARK 922        TOTAL FREE ENERGY PREDICTED BY IDOCK:   -6.22 KCAL/MOL
REMARK 923 INTER-LIGAND FREE ENERGY PREDICTED BY IDOCK:   -5.80 KCAL/MOL
REMARK 924 INTRA-LIGAND FREE ENERGY PREDICTED BY IDOCK:   -0.42 KCAL/MOL
REMARK 927      BINDING AFFINITY PREDICTED BY RF-SCORE:    0.00 PKD
ROOT
HETATM    1  C   UNL     1     -12.258  14.965  73.194  1.00  0.00    -0.421 C  
HETATM    2  C   UNL     1     -12.800  14.788  71.766  1.00  0.00    -0.325 C  
HETATM    3  N   UNL     1     -12.538  13.426  71.258  1.00  0.00    -0.350 NA 
HETATM    4  C   UNL     1     -14.288  15.164  71.710  1.00  0.00    -0.696 C  
HETATM    5  C   UNL     1     -12.027  15.743  70.833  1.00  0.00    -0.453 C  
HETATM    6  H   UNL     1     -11.954  13.258  70.439  1.00  0.00     0.000 HD 
ENDROOT
BRANCH   3   7
HETATM    7  C   UNL     1     -13.172  12.322  72.003  1.00  0.00    -0.403 C  
BRANCH   7   8
HETATM    8  C   UNL     1     -13.226  10.957  71.249  1.00  0.00    -0.193 C  
HETATM    9  H   UNL     1     -13.631   9.131  71.756  1.00  0.00     0.000 HD 
HETATM   10  O   UNL     1     -13.598   9.962  72.215  1.00  0.00    -0.402 OA 
BRANCH   8  11
HETATM   11  C   UNL     1     -11.949  10.555  70.517  1.00  0.00    -0.436 A  
HETATM   12  C   UNL     1     -10.973   9.785  71.176  1.00  0.00    -0.386 A  
HETATM   13  C   UNL     1      -9.795   9.357  70.537  1.00  0.00    -0.331 A  
HETATM   14  C   UNL     1      -9.549   9.822  69.241  1.00  0.00    -0.197 A  
HETATM   15  H   UNL     1      -8.232   9.835  67.686  1.00  0.00     0.000 HD 
HETATM   16  C   UNL     1     -10.474  10.617  68.579  1.00  0.00    -0.212 A  
HETATM   17  O   UNL     1      -8.400   9.520  68.566  1.00  0.00    -0.115 OA 
HETATM   18  C   UNL     1     -11.680  10.958  69.200  1.00  0.00    -0.397 A  
BRANCH  13  19
HETATM   19  C   UNL     1      -8.842   8.470  71.292  1.00  0.00    -0.190 C  
HETATM   20  O   UNL     1      -7.573   9.105  71.437  1.00  0.00    -0.293 OA 
HETATM   21  H   UNL     1      -6.970   8.546  71.913  1.00  0.00     0.000 HD 
ENDBRANCH  13  19
ENDBRANCH   8  11
ENDBRANCH   7   8
ENDBRANCH   3   7
TORSDOF 4
ENDMDL
MODEL       89
REMARK 921   NORMALIZED FREE ENERGY PREDICTED BY IDOCK:   -4.46 KCAL/MOL
REMARK 922        TOTAL FREE ENERGY PREDICTED BY IDOCK:   -6.21 KCAL/MOL
REMARK 923 INTER-LIGAND FREE ENERGY PREDICTED BY IDOCK:   -5.68 KCAL/MOL
REMARK 924 INTRA-LIGAND FREE ENERGY PREDICTED BY IDOCK:   -0.52 KCAL/MOL
REMARK 927      BINDING AFFINITY PREDICTED BY RF-SCORE:    0.00 PKD
ROOT
HETATM    1  C   UNL     1     -12.035  15.521  72.396  1.00  0.00    -0.547 C  
HETATM    2  C   UNL     1     -12.971  14.795  71.416  1.00  0.00    -0.342 C  
HETATM    3  N   UNL     1     -12.605  15.082  70.013  1.00  0.00    -0.558 NA 
HETATM    4  C   UNL     1     -13.002  13.291  71.723  1.00  0.00    -0.430 C  
HETATM    5  C   UNL     1     -14.396  15.354  71.604  1.00  0.00    -0.615 C  
HETATM    6  H   UNL     1     -13.245  15.554  69.375  1.00  0.00     0.000 HD 
ENDROOT
BRANCH   3   7
HETATM    7  C   UNL     1     -11.262  14.644  69.591  1.00  0.00    -0.272 C  
BRANCH   7   8
HETATM    8  C   UNL     1     -11.169  14.101  68.131  1.00  0.00    -0.276 C  
HETATM    9  H   UNL     1     -12.338  14.130  66.586  1.00  0.00     0.000 HD 
HETATM   10  O   UNL     1     -12.394  14.461  67.474  1.00  0.00    -0.273 OA 
BRANCH   8  11
HETATM   11  C   UNL     1     -10.900  12.605  67.998  1.00  0.00    -0.249 A  
HETATM   12  C   UNL     1     -10.268  12.103  66.846  1.00  0.00    -0.228 A  
HETATM   13  C   UNL     1      -9.964  10.739  66.688  1.00  0.00    -0.251 A  
HETATM   14  C   UNL     1     -10.418   9.851  67.668  1.00  0.00    -0.244 A  
HETATM   15  H   UNL     1     -10.543   7.897  68.233  1.00  0.00     0.000 HD 
HETATM   16  C   UNL     1     -11.081  10.310  68.797  1.00  0.00    -0.276 A  
HETATM   17  O   UNL     1     -10.235   8.500  67.567  1.00  0.00    -0.206 OA 
HETATM   18  C   UNL     1     -11.296  11.681  68.977  1.00  0.00    -0.337 A  
BRANCH  13  19
HETATM   19  C   UNL     1      -9.216  10.300  65.458  1.00  0.00    -0.190 C  
HETATM   20  O   UNL     1     -10.108   9.720  64.508  1.00  0.00    -0.389 OA 
HETATM   21  H   UNL     1      -9.636   9.443  63.731  1.00  0.00     0.000 HD 
ENDBRANCH  13  19
ENDBRANCH   8  11
ENDBRANCH   7   8
ENDBRANCH   3   7
TORSDOF 4
ENDMDL
MODEL       90
REMARK 921   NORMALIZED FREE ENERGY PREDICTED BY IDOCK:   -4.45 KCAL/MOL
REMARK 922        TOTAL FREE ENERGY PREDICTED BY IDOCK:   -6.20 KCAL/MOL
REMARK 923 INTER-LIGAND FREE ENERGY PREDICTED BY IDOCK:   -5.72 KCAL/MOL
REMARK 924 INTRA-LIGAND FREE ENERGY PREDICTED BY IDOCK:   -0.48 KCAL/MOL
REMARK 927      BINDING AFFINITY PREDICTED BY RF-SCORE:    0.00 PKD
ROOT
HETATM    1  C   UNL     1      -9.034   8.818  69.421  1.00  0.00    -0.145 C  
HETATM    2  C   UNL     1     -10.089   8.263  68.449  1.00  0.00    -0.201 C  
HETATM    3  N   UNL     1     -11.054   9.309  68.051  1.00  0.00    -0.501 NA 
HETATM    4  C   UNL     1      -9.407   7.598  67.245  1.00  0.00    -0.174 C  
HETATM    5  C   UNL     1     -10.911   7.189  69.190  1.00  0.00    -0.142 C  
HETATM    6  H   UNL     1     -12.048   9.235  68.265  1.00  0.00     0.000 HD 
ENDROOT
BRANCH   3   7
HETATM    7  C   UNL     1     -10.495  10.465  67.325  1.00  0.00    -0.252 C  
BRANCH   7   8
HETATM    8  C   UNL     1     -10.922  11.862  67.874  1.00  0.00    -0.222 C  
HETATM    9  H   UNL     1     -12.455  12.538  68.847  1.00  0.00     0.000 HD 
HETATM   10  O   UNL     1     -12.196  11.687  68.514  1.00  0.00    -0.485 OA 
BRANCH   8  11
HETATM   11  C   UNL     1     -10.980  12.987  66.844  1.00  0.00    -0.289 A  
HETATM   12  C   UNL     1     -10.084  14.067  66.931  1.00  0.00    -0.259 A  
HETATM   13  C   UNL     1     -10.070  15.111  65.988  1.00  0.00    -0.323 A  
HETATM   14  C   UNL     1     -11.067  15.119  65.007  1.00  0.00    -0.419 A  
HETATM   15  H   UNL     1     -11.857  16.133  63.427  1.00  0.00     0.000 HD 
HETATM   16  C   UNL     1     -11.992  14.088  64.921  1.00  0.00    -0.416 A  
HETATM   17  O   UNL     1     -11.180  16.128  64.093  1.00  0.00    -0.661 OA 
HETATM   18  C   UNL     1     -11.933  13.014  65.814  1.00  0.00    -0.482 A  
BRANCH  13  19
HETATM   19  C   UNL     1      -9.025  16.187  66.113  1.00  0.00    -0.337 C  
HETATM   20  O   UNL     1      -9.635  17.473  66.205  1.00  0.00    -0.416 OA 
HETATM   21  H   UNL     1      -8.976  18.152  66.283  1.00  0.00     0.000 HD 
ENDBRANCH  13  19
ENDBRANCH   8  11
ENDBRANCH   7   8
ENDBRANCH   3   7
TORSDOF 4
ENDMDL
MODEL       91
REMARK 921   NORMALIZED FREE ENERGY PREDICTED BY IDOCK:   -4.44 KCAL/MOL
REMARK 922        TOTAL FREE ENERGY PREDICTED BY IDOCK:   -6.18 KCAL/MOL
REMARK 923 INTER-LIGAND FREE ENERGY PREDICTED BY IDOCK:   -5.50 KCAL/MOL
REMARK 924 INTRA-LIGAND FREE ENERGY PREDICTED BY IDOCK:   -0.68 KCAL/MOL
REMARK 927      BINDING AFFINITY PREDICTED BY RF-SCORE:    0.00 PKD
ROOT
HETATM    1  C   UNL     1     -10.722   5.862  69.875  1.00  0.00    -0.406 C  
HETATM    2  C   UNL     1      -9.566   6.859  70.057  1.00  0.00    -0.157 C  
HETATM    3  N   UNL     1      -9.590   7.904  69.012  1.00  0.00    -0.154 NA 
HETATM    4  C   UNL     1      -9.584   7.443  71.477  1.00  0.00    -0.163 C  
HETATM    5  C   UNL     1      -8.237   6.100  69.866  1.00  0.00    -0.120 C  
HETATM    6  H   UNL     1      -8.825   8.021  68.349  1.00  0.00     0.000 HD 
ENDROOT
BRANCH   3   7
HETATM    7  C   UNL     1     -10.786   8.767  68.985  1.00  0.00    -0.112 C  
BRANCH   7   8
HETATM    8  C   UNL     1     -10.504  10.296  69.123  1.00  0.00    -0.224 C  
HETATM    9  H   UNL     1      -8.977  11.360  69.660  1.00  0.00     0.000 HD 
HETATM   10  O   UNL     1      -9.148  10.430  69.576  1.00  0.00    -0.183 OA 
BRANCH   8  11
HETATM   11  C   UNL     1     -11.460  11.065  70.031  1.00  0.00    -0.398 A  
HETATM   12  C   UNL     1     -11.467  12.471  70.014  1.00  0.00    -0.095 A  
HETATM   13  C   UNL     1     -12.353  13.228  70.803  1.00  0.00    -0.425 A  
HETATM   14  C   UNL     1     -13.163  12.544  71.715  1.00  0.00    -0.344 A  
HETATM   15  H   UNL     1     -14.552  12.733  73.194  1.00  0.00     0.000 HD 
HETATM   16  C   UNL     1     -13.148  11.159  71.785  1.00  0.00    -0.536 A  
HETATM   17  O   UNL     1     -14.001  13.197  72.574  1.00  0.00    -0.676 OA 
HETATM   18  C   UNL     1     -12.325  10.420  70.929  1.00  0.00    -0.480 A  
BRANCH  13  19
HETATM   19  C   UNL     1     -12.347  14.727  70.665  1.00  0.00    -0.337 C  
HETATM   20  O   UNL     1     -13.675  15.223  70.512  1.00  0.00    -0.694 OA 
HETATM   21  H   UNL     1     -13.672  16.169  70.425  1.00  0.00     0.000 HD 
ENDBRANCH  13  19
ENDBRANCH   8  11
ENDBRANCH   7   8
ENDBRANCH   3   7
TORSDOF 4
ENDMDL
MODEL       92
REMARK 921   NORMALIZED FREE ENERGY PREDICTED BY IDOCK:   -4.43 KCAL/MOL
REMARK 922        TOTAL FREE ENERGY PREDICTED BY IDOCK:   -6.17 KCAL/MOL
REMARK 923 INTER-LIGAND FREE ENERGY PREDICTED BY IDOCK:   -5.51 KCAL/MOL
REMARK 924 INTRA-LIGAND FREE ENERGY PREDICTED BY IDOCK:   -0.66 KCAL/MOL
REMARK 927      BINDING AFFINITY PREDICTED BY RF-SCORE:    0.00 PKD
ROOT
HETATM    1  C   UNL     1      -9.793  10.421  64.674  1.00  0.00    -0.405 C  
HETATM    2  C   UNL     1      -9.734  11.560  65.706  1.00  0.00    -0.235 C  
HETATM    3  N   UNL     1      -9.909  12.878  65.061  1.00  0.00    -0.511 NA 
HETATM    4  C   UNL     1     -10.750  11.312  66.830  1.00  0.00    -0.319 C  
HETATM    5  C   UNL     1      -8.323  11.577  66.328  1.00  0.00    -0.076 C  
HETATM    6  H   UNL     1      -9.181  13.592  65.086  1.00  0.00     0.000 HD 
ENDROOT
BRANCH   3   7
HETATM    7  C   UNL     1     -11.197  13.101  64.379  1.00  0.00    -0.371 C  
BRANCH   7   8
HETATM    8  C   UNL     1     -12.142  14.135  65.066  1.00  0.00    -0.421 C  
HETATM    9  H   UNL     1     -13.347  15.515  64.436  1.00  0.00     0.000 HD 
HETATM   10  O   UNL     1     -12.772  14.885  64.017  1.00  0.00    -0.792 OA 
BRANCH   8  11
HETATM   11  C   UNL     1     -11.480  15.065  66.079  1.00  0.00    -0.221 A  
HETATM   12  C   UNL     1     -10.602  16.072  65.640  1.00  0.00    -0.392 A  
HETATM   13  C   UNL     1      -9.994  16.979  66.527  1.00  0.00    -0.318 A  
HETATM   14  C   UNL     1     -10.186  16.781  67.897  1.00  0.00    -0.300 A  
HETATM   15  H   UNL     1      -9.709  17.429  69.769  1.00  0.00     0.000 HD 
HETATM   16  C   UNL     1     -11.013  15.769  68.364  1.00  0.00    -0.323 A  
HETATM   17  O   UNL     1      -9.578  17.564  68.838  1.00  0.00    -0.279 OA 
HETATM   18  C   UNL     1     -11.680  14.934  67.462  1.00  0.00    -0.328 A  
BRANCH  13  19
HETATM   19  C   UNL     1      -9.131  18.076  65.964  1.00  0.00     0.015 C  
HETATM   20  O   UNL     1      -7.822  18.026  66.529  1.00  0.00    -0.233 OA 
HETATM   21  H   UNL     1      -7.277  18.719  66.174  1.00  0.00     0.000 HD 
ENDBRANCH  13  19
ENDBRANCH   8  11
ENDBRANCH   7   8
ENDBRANCH   3   7
TORSDOF 4
ENDMDL
MODEL       93
REMARK 921   NORMALIZED FREE ENERGY PREDICTED BY IDOCK:   -4.42 KCAL/MOL
REMARK 922        TOTAL FREE ENERGY PREDICTED BY IDOCK:   -6.16 KCAL/MOL
REMARK 923 INTER-LIGAND FREE ENERGY PREDICTED BY IDOCK:   -5.83 KCAL/MOL
REMARK 924 INTRA-LIGAND FREE ENERGY PREDICTED BY IDOCK:   -0.33 KCAL/MOL
REMARK 927      BINDING AFFINITY PREDICTED BY RF-SCORE:    0.00 PKD
ROOT
HETATM    1  C   UNL     1     -11.264  12.272  63.838  1.00  0.00    -0.488 C  
HETATM    2  C   UNL     1     -11.517  13.163  65.065  1.00  0.00    -0.308 C  
HETATM    3  N   UNL     1     -11.852  12.355  66.256  1.00  0.00    -0.550 NA 
HETATM    4  C   UNL     1     -10.321  14.097  65.302  1.00  0.00    -0.409 C  
HETATM    5  C   UNL     1     -12.758  14.035  64.783  1.00  0.00    -0.236 C  
HETATM    6  H   UNL     1     -12.751  12.438  66.729  1.00  0.00     0.000 HD 
ENDROOT
BRANCH   3   7
HETATM    7  C   UNL     1     -10.809  11.422  66.721  1.00  0.00    -0.286 C  
BRANCH   7   8
HETATM    8  C   UNL     1     -10.244  11.714  68.146  1.00  0.00    -0.197 C  
HETATM    9  H   UNL     1      -8.536  11.447  69.020  1.00  0.00     0.000 HD 
HETATM   10  O   UNL     1      -8.879  11.269  68.152  1.00  0.00    -0.145 OA 
BRANCH   8  11
HETATM   11  C   UNL     1     -11.023  11.098  69.305  1.00  0.00    -0.300 A  
HETATM   12  C   UNL     1     -11.821  11.913  70.128  1.00  0.00    -0.390 A  
HETATM   13  C   UNL     1     -12.587  11.392  71.186  1.00  0.00    -0.490 A  
HETATM   14  C   UNL     1     -12.445  10.034  71.489  1.00  0.00    -0.419 A  
HETATM   15  H   UNL     1     -12.995   8.530  72.749  1.00  0.00     0.000 HD 
HETATM   16  C   UNL     1     -11.633   9.212  70.721  1.00  0.00    -0.329 A  
HETATM   17  O   UNL     1     -13.092   9.453  72.543  1.00  0.00    -0.404 OA 
HETATM   18  C   UNL     1     -10.948   9.732  69.618  1.00  0.00    -0.269 A  
BRANCH  13  19
HETATM   19  C   UNL     1     -13.475  12.324  71.967  1.00  0.00    -0.316 C  
HETATM   20  O   UNL     1     -13.449  13.633  71.401  1.00  0.00    -0.292 OA 
HETATM   21  H   UNL     1     -14.009  14.222  71.893  1.00  0.00     0.000 HD 
ENDBRANCH  13  19
ENDBRANCH   8  11
ENDBRANCH   7   8
ENDBRANCH   3   7
TORSDOF 4
ENDMDL
MODEL       94
REMARK 921   NORMALIZED FREE ENERGY PREDICTED BY IDOCK:   -4.41 KCAL/MOL
REMARK 922        TOTAL FREE ENERGY PREDICTED BY IDOCK:   -6.15 KCAL/MOL
REMARK 923 INTER-LIGAND FREE ENERGY PREDICTED BY IDOCK:   -5.56 KCAL/MOL
REMARK 924 INTRA-LIGAND FREE ENERGY PREDICTED BY IDOCK:   -0.59 KCAL/MOL
REMARK 927      BINDING AFFINITY PREDICTED BY RF-SCORE:    0.00 PKD
ROOT
HETATM    1  C   UNL     1     -10.811   5.869  69.518  1.00  0.00    -0.442 C  
HETATM    2  C   UNL     1     -10.373   6.667  68.279  1.00  0.00    -0.190 C  
HETATM    3  N   UNL     1     -10.996   8.006  68.256  1.00  0.00    -0.428 NA 
HETATM    4  C   UNL     1      -8.841   6.726  68.198  1.00  0.00    -0.120 C  
HETATM    5  C   UNL     1     -10.893   5.936  67.024  1.00  0.00    -0.379 C  
HETATM    6  H   UNL     1     -11.626   8.295  67.507  1.00  0.00     0.000 HD 
ENDROOT
BRANCH   3   7
HETATM    7  C   UNL     1     -10.654   8.901  69.377  1.00  0.00    -0.217 C  
BRANCH   7   8
HETATM    8  C   UNL     1     -10.055  10.282  68.965  1.00  0.00    -0.213 C  
HETATM    9  H   UNL     1     -10.334  12.114  69.527  1.00  0.00     0.000 HD 
HETATM   10  O   UNL     1     -10.699  11.274  69.778  1.00  0.00    -0.116 OA 
BRANCH   8  11
HETATM   11  C   UNL     1     -10.164  10.635  67.485  1.00  0.00    -0.236 A  
HETATM   12  C   UNL     1     -11.170  11.513  67.043  1.00  0.00    -0.365 A  
HETATM   13  C   UNL     1     -11.292  11.900  65.696  1.00  0.00    -0.339 A  
HETATM   14  C   UNL     1     -10.451  11.289  64.762  1.00  0.00    -0.323 A  
HETATM   15  H   UNL     1      -9.972  11.130  62.788  1.00  0.00     0.000 HD 
HETATM   16  C   UNL     1      -9.476  10.386  65.161  1.00  0.00    -0.303 A  
HETATM   17  O   UNL     1     -10.544  11.545  63.423  1.00  0.00    -0.381 OA 
HETATM   18  C   UNL     1      -9.312  10.082  66.516  1.00  0.00    -0.201 A  
BRANCH  13  19
HETATM   19  C   UNL     1     -12.348  12.906  65.324  1.00  0.00    -0.490 C  
HETATM   20  O   UNL     1     -13.268  12.346  64.389  1.00  0.00    -0.816 OA 
HETATM   21  H   UNL     1     -13.935  12.981  64.154  1.00  0.00     0.000 HD 
ENDBRANCH  13  19
ENDBRANCH   8  11
ENDBRANCH   7   8
ENDBRANCH   3   7
TORSDOF 4
ENDMDL
MODEL       95
REMARK 921   NORMALIZED FREE ENERGY PREDICTED BY IDOCK:   -4.41 KCAL/MOL
REMARK 922        TOTAL FREE ENERGY PREDICTED BY IDOCK:   -6.15 KCAL/MOL
REMARK 923 INTER-LIGAND FREE ENERGY PREDICTED BY IDOCK:   -5.34 KCAL/MOL
REMARK 924 INTRA-LIGAND FREE ENERGY PREDICTED BY IDOCK:   -0.81 KCAL/MOL
REMARK 927      BINDING AFFINITY PREDICTED BY RF-SCORE:    0.00 PKD
ROOT
HETATM    1  C   UNL     1      -9.913  17.238  67.001  1.00  0.00    -0.289 C  
HETATM    2  C   UNL     1      -9.415  15.793  66.833  1.00  0.00    -0.228 C  
HETATM    3  N   UNL     1     -10.101  14.877  67.768  1.00  0.00    -0.233 NA 
HETATM    4  C   UNL     1      -9.547  15.351  65.368  1.00  0.00    -0.161 C  
HETATM    5  C   UNL     1      -7.921  15.748  67.216  1.00  0.00    -0.216 C  
HETATM    6  H   UNL     1      -9.593  14.358  68.484  1.00  0.00     0.000 HD 
ENDROOT
BRANCH   3   7
HETATM    7  C   UNL     1     -11.561  14.757  67.604  1.00  0.00    -0.354 C  
BRANCH   7   8
HETATM    8  C   UNL     1     -12.091  13.300  67.423  1.00  0.00    -0.278 C  
HETATM    9  H   UNL     1     -12.049  11.688  68.497  1.00  0.00     0.000 HD 
HETATM   10  O   UNL     1     -11.726  12.574  68.607  1.00  0.00    -0.290 OA 
BRANCH   8  11
HETATM   11  C   UNL     1     -11.611  12.573  66.170  1.00  0.00    -0.448 A  
HETATM   12  C   UNL     1     -10.524  11.683  66.245  1.00  0.00    -0.286 A  
HETATM   13  C   UNL     1     -10.065  10.960  65.129  1.00  0.00    -0.352 A  
HETATM   14  C   UNL     1     -10.646  11.238  63.887  1.00  0.00    -0.391 A  
HETATM   15  H   UNL     1     -10.612  10.829  61.891  1.00  0.00     0.000 HD 
HETATM   16  C   UNL     1     -11.693  12.141  63.773  1.00  0.00    -0.576 A  
HETATM   17  O   UNL     1     -10.218  10.640  62.735  1.00  0.00    -0.115 OA 
HETATM   18  C   UNL     1     -12.194  12.783  64.910  1.00  0.00    -0.519 A  
BRANCH  13  19
HETATM   19  C   UNL     1      -8.947   9.971  65.316  1.00  0.00    -0.186 C  
HETATM   20  O   UNL     1      -9.391   8.648  65.019  1.00  0.00    -0.417 OA 
HETATM   21  H   UNL     1      -8.685   8.023  65.137  1.00  0.00     0.000 HD 
ENDBRANCH  13  19
ENDBRANCH   8  11
ENDBRANCH   7   8
ENDBRANCH   3   7
TORSDOF 4
ENDMDL
MODEL       96
REMARK 921   NORMALIZED FREE ENERGY PREDICTED BY IDOCK:   -4.41 KCAL/MOL
REMARK 922        TOTAL FREE ENERGY PREDICTED BY IDOCK:   -6.15 KCAL/MOL
REMARK 923 INTER-LIGAND FREE ENERGY PREDICTED BY IDOCK:   -5.54 KCAL/MOL
REMARK 924 INTRA-LIGAND FREE ENERGY PREDICTED BY IDOCK:   -0.61 KCAL/MOL
REMARK 927      BINDING AFFINITY PREDICTED BY RF-SCORE:    0.00 PKD
ROOT
HETATM    1  C   UNL     1      -8.497  10.467  63.793  1.00  0.00    -0.127 C  
HETATM    2  C   UNL     1      -9.020  10.952  65.155  1.00  0.00    -0.180 C  
HETATM    3  N   UNL     1      -9.483  12.353  65.085  1.00  0.00    -0.446 NA 
HETATM    4  C   UNL     1     -10.102   9.997  65.680  1.00  0.00    -0.321 C  
HETATM    5  C   UNL     1      -7.846  10.944  66.156  1.00  0.00    -0.144 C  
HETATM    6  H   UNL     1      -9.049  13.093  65.636  1.00  0.00     0.000 HD 
ENDROOT
BRANCH   3   7
HETATM    7  C   UNL     1     -10.610  12.619  64.172  1.00  0.00    -0.407 C  
BRANCH   7   8
HETATM    8  C   UNL     1     -11.936  13.061  64.865  1.00  0.00    -0.396 C  
HETATM    9  H   UNL     1     -13.269  14.424  64.522  1.00  0.00     0.000 HD 
HETATM   10  O   UNL     1     -12.462  14.155  64.099  1.00  0.00    -0.668 OA 
BRANCH   8  11
HETATM   11  C   UNL     1     -11.819  13.435  66.340  1.00  0.00    -0.441 A  
HETATM   12  C   UNL     1     -11.597  14.773  66.710  1.00  0.00    -0.333 A  
HETATM   13  C   UNL     1     -11.517  15.178  68.056  1.00  0.00    -0.355 A  
HETATM   14  C   UNL     1     -11.542  14.185  69.039  1.00  0.00    -0.304 A  
HETATM   15  H   UNL     1     -11.415  13.798  71.036  1.00  0.00     0.000 HD 
HETATM   16  C   UNL     1     -11.717  12.850  68.703  1.00  0.00    -0.359 A  
HETATM   17  O   UNL     1     -11.398  14.473  70.367  1.00  0.00    -0.233 OA 
HETATM   18  C   UNL     1     -11.884  12.478  67.365  1.00  0.00    -0.381 A  
BRANCH  13  19
HETATM   19  C   UNL     1     -11.358  16.643  68.364  1.00  0.00    -0.142 C  
HETATM   20  O   UNL     1     -10.359  16.840  69.363  1.00  0.00    -0.302 OA 
HETATM   21  H   UNL     1     -10.258  17.765  69.557  1.00  0.00     0.000 HD 
ENDBRANCH  13  19
ENDBRANCH   8  11
ENDBRANCH   7   8
ENDBRANCH   3   7
TORSDOF 4
ENDMDL
MODEL       97
REMARK 921   NORMALIZED FREE ENERGY PREDICTED BY IDOCK:   -4.39 KCAL/MOL
REMARK 922        TOTAL FREE ENERGY PREDICTED BY IDOCK:   -6.12 KCAL/MOL
REMARK 923 INTER-LIGAND FREE ENERGY PREDICTED BY IDOCK:   -5.78 KCAL/MOL
REMARK 924 INTRA-LIGAND FREE ENERGY PREDICTED BY IDOCK:   -0.34 KCAL/MOL
REMARK 927      BINDING AFFINITY PREDICTED BY RF-SCORE:    0.00 PKD
ROOT
HETATM    1  C   UNL     1     -12.041  13.044  65.916  1.00  0.00    -0.503 C  
HETATM    2  C   UNL     1     -11.023  13.786  66.797  1.00  0.00    -0.304 C  
HETATM    3  N   UNL     1     -11.369  13.671  68.229  1.00  0.00    -0.271 NA 
HETATM    4  C   UNL     1      -9.599  13.299  66.493  1.00  0.00    -0.267 C  
HETATM    5  C   UNL     1     -11.098  15.290  66.463  1.00  0.00    -0.271 C  
HETATM    6  H   UNL     1     -11.590  14.488  68.798  1.00  0.00     0.000 HD 
ENDROOT
BRANCH   3   7
HETATM    7  C   UNL     1     -11.375  12.307  68.788  1.00  0.00    -0.289 C  
BRANCH   7   8
HETATM    8  C   UNL     1     -12.295  12.102  70.032  1.00  0.00    -0.096 C  
HETATM    9  H   UNL     1     -12.696  13.137  71.620  1.00  0.00     0.000 HD 
HETATM   10  O   UNL     1     -12.135  13.262  70.863  1.00  0.00    -0.321 OA 
BRANCH   8  11
HETATM   11  C   UNL     1     -12.056  10.824  70.829  1.00  0.00    -0.473 A  
HETATM   12  C   UNL     1     -10.797  10.198  70.793  1.00  0.00    -0.241 A  
HETATM   13  C   UNL     1     -10.511   9.038  71.537  1.00  0.00    -0.410 A  
HETATM   14  C   UNL     1     -11.562   8.436  72.236  1.00  0.00    -0.383 A  
HETATM   15  H   UNL     1     -12.114   6.859  73.403  1.00  0.00     0.000 HD 
HETATM   16  C   UNL     1     -12.827   9.006  72.257  1.00  0.00    -0.474 A  
HETATM   17  O   UNL     1     -11.400   7.268  72.928  1.00  0.00    -0.299 OA 
HETATM   18  C   UNL     1     -13.067  10.208  71.583  1.00  0.00    -0.550 A  
BRANCH  13  19
HETATM   19  C   UNL     1      -9.115   8.479  71.502  1.00  0.00    -0.216 C  
HETATM   20  O   UNL     1      -8.429   8.762  72.721  1.00  0.00    -0.414 OA 
HETATM   21  H   UNL     1      -7.547   8.409  72.699  1.00  0.00     0.000 HD 
ENDBRANCH  13  19
ENDBRANCH   8  11
ENDBRANCH   7   8
ENDBRANCH   3   7
TORSDOF 4
ENDMDL
MODEL       98
REMARK 921   NORMALIZED FREE ENERGY PREDICTED BY IDOCK:   -4.36 KCAL/MOL
REMARK 922        TOTAL FREE ENERGY PREDICTED BY IDOCK:   -6.09 KCAL/MOL
REMARK 923 INTER-LIGAND FREE ENERGY PREDICTED BY IDOCK:   -5.92 KCAL/MOL
REMARK 924 INTRA-LIGAND FREE ENERGY PREDICTED BY IDOCK:   -0.17 KCAL/MOL
REMARK 927      BINDING AFFINITY PREDICTED BY RF-SCORE:    0.00 PKD
ROOT
HETATM    1  C   UNL     1      -5.699  17.884  66.030  1.00  0.00    -0.244 C  
HETATM    2  C   UNL     1      -7.129  18.245  66.465  1.00  0.00    -0.224 C  
HETATM    3  N   UNL     1      -8.049  17.102  66.287  1.00  0.00    -0.372 NA 
HETATM    4  C   UNL     1      -7.129  18.786  67.902  1.00  0.00    -0.253 C  
HETATM    5  C   UNL     1      -7.652  19.357  65.532  1.00  0.00     0.038 C  
HETATM    6  H   UNL     1      -8.847  17.145  65.654  1.00  0.00     0.000 HD 
ENDROOT
BRANCH   3   7
HETATM    7  C   UNL     1      -7.745  15.896  67.080  1.00  0.00    -0.233 C  
BRANCH   7   8
HETATM    8  C   UNL     1      -8.954  15.293  67.861  1.00  0.00    -0.170 C  
HETATM    9  H   UNL     1      -9.144  14.076  69.356  1.00  0.00     0.000 HD 
HETATM   10  O   UNL     1      -8.408  14.443  68.881  1.00  0.00    -0.148 OA 
BRANCH   8  11
HETATM   11  C   UNL     1      -9.978  14.541  67.016  1.00  0.00    -0.255 A  
HETATM   12  C   UNL     1     -10.737  15.230  66.052  1.00  0.00    -0.324 A  
HETATM   13  C   UNL     1     -11.668  14.579  65.222  1.00  0.00    -0.361 A  
HETATM   14  C   UNL     1     -11.919  13.224  65.459  1.00  0.00    -0.405 A  
HETATM   15  H   UNL     1     -13.029  11.604  64.915  1.00  0.00     0.000 HD 
HETATM   16  C   UNL     1     -11.217  12.526  66.431  1.00  0.00    -0.353 A  
HETATM   17  O   UNL     1     -12.858  12.524  64.754  1.00  0.00    -0.755 OA 
HETATM   18  C   UNL     1     -10.231  13.171  67.185  1.00  0.00    -0.244 A  
BRANCH  13  19
HETATM   19  C   UNL     1     -12.379  15.379  64.164  1.00  0.00     0.004 C  
HETATM   20  O   UNL     1     -11.584  16.490  63.755  1.00  0.00    -1.617 OA 
HETATM   21  H   UNL     1     -12.032  16.996  63.087  1.00  0.00     0.000 HD 
ENDBRANCH  13  19
ENDBRANCH   8  11
ENDBRANCH   7   8
ENDBRANCH   3   7
TORSDOF 4
ENDMDL
MODEL       99
REMARK 921   NORMALIZED FREE ENERGY PREDICTED BY IDOCK:   -4.35 KCAL/MOL
REMARK 922        TOTAL FREE ENERGY PREDICTED BY IDOCK:   -6.08 KCAL/MOL
REMARK 923 INTER-LIGAND FREE ENERGY PREDICTED BY IDOCK:   -5.53 KCAL/MOL
REMARK 924 INTRA-LIGAND FREE ENERGY PREDICTED BY IDOCK:   -0.55 KCAL/MOL
REMARK 927      BINDING AFFINITY PREDICTED BY RF-SCORE:    0.00 PKD
ROOT
HETATM    1  C   UNL     1      -9.360  11.023  68.688  1.00  0.00    -0.196 C  
HETATM    2  C   UNL     1     -10.702  10.351  68.353  1.00  0.00    -0.225 C  
HETATM    3  N   UNL     1     -11.715  11.347  67.948  1.00  0.00    -0.574 NA 
HETATM    4  C   UNL     1     -10.500   9.252  67.300  1.00  0.00    -0.334 C  
HETATM    5  C   UNL     1     -11.247   9.691  69.637  1.00  0.00    -0.176 C  
HETATM    6  H   UNL     1     -12.575  11.488  68.478  1.00  0.00     0.000 HD 
ENDROOT
BRANCH   3   7
HETATM    7  C   UNL     1     -11.410  12.126  66.733  1.00  0.00    -0.342 C  
BRANCH   7   8
HETATM    8  C   UNL     1     -12.239  13.437  66.560  1.00  0.00    -0.356 C  
HETATM    9  H   UNL     1     -12.864  14.467  65.043  1.00  0.00     0.000 HD 
HETATM   10  O   UNL     1     -12.360  13.669  65.149  1.00  0.00    -0.406 OA 
BRANCH   8  11
HETATM   11  C   UNL     1     -11.683  14.669  67.268  1.00  0.00    -0.406 A  
HETATM   12  C   UNL     1     -10.947  15.624  66.545  1.00  0.00    -0.206 A  
HETATM   13  C   UNL     1     -10.443  16.795  67.141  1.00  0.00    -0.299 A  
HETATM   14  C   UNL     1     -10.588  16.938  68.524  1.00  0.00    -0.367 A  
HETATM   15  H   UNL     1     -10.167  18.102  70.143  1.00  0.00     0.000 HD 
HETATM   16  C   UNL     1     -11.273  15.992  69.273  1.00  0.00    -0.346 A  
HETATM   17  O   UNL     1     -10.069  18.005  69.203  1.00  0.00    -0.337 OA 
HETATM   18  C   UNL     1     -11.843  14.878  68.647  1.00  0.00    -0.332 A  
BRANCH  13  19
HETATM   19  C   UNL     1      -9.735  17.802  66.275  1.00  0.00    -0.267 C  
HETATM   20  O   UNL     1     -10.189  19.123  66.566  1.00  0.00    -0.365 OA 
HETATM   21  H   UNL     1      -9.742  19.759  66.020  1.00  0.00     0.000 HD 
ENDBRANCH  13  19
ENDBRANCH   8  11
ENDBRANCH   7   8
ENDBRANCH   3   7
TORSDOF 4
ENDMDL
MODEL      100
REMARK 921   NORMALIZED FREE ENERGY PREDICTED BY IDOCK:   -4.33 KCAL/MOL
REMARK 922        TOTAL FREE ENERGY PREDICTED BY IDOCK:   -6.05 KCAL/MOL
REMARK 923 INTER-LIGAND FREE ENERGY PREDICTED BY IDOCK:   -5.73 KCAL/MOL
REMARK 924 INTRA-LIGAND FREE ENERGY PREDICTED BY IDOCK:   -0.32 KCAL/MOL
REMARK 927      BINDING AFFINITY PREDICTED BY RF-SCORE:    0.00 PKD
ROOT
HETATM    1  C   UNL     1     -12.759  14.838  73.507  1.00  0.00    -0.566 C  
HETATM    2  C   UNL     1     -12.603  14.644  71.990  1.00  0.00    -0.334 C  
HETATM    3  N   UNL     1     -12.294  13.238  71.658  1.00  0.00    -0.145 NA 
HETATM    4  C   UNL     1     -13.847  15.166  71.255  1.00  0.00    -0.553 C  
HETATM    5  C   UNL     1     -11.387  15.468  71.519  1.00  0.00    -0.466 C  
HETATM    6  H   UNL     1     -11.423  12.971  71.200  1.00  0.00     0.000 HD 
ENDROOT
BRANCH   3   7
HETATM    7  C   UNL     1     -13.319  12.244  72.026  1.00  0.00    -0.386 C  
BRANCH   7   8
HETATM    8  C   UNL     1     -13.152  10.841  71.363  1.00  0.00    -0.369 C  
HETATM    9  H   UNL     1     -13.146   9.016  72.011  1.00  0.00     0.000 HD 
HETATM   10  O   UNL     1     -13.248   9.869  72.415  1.00  0.00    -0.386 OA 
BRANCH   8  11
HETATM   11  C   UNL     1     -11.875  10.641  70.552  1.00  0.00    -0.453 A  
HETATM   12  C   UNL     1     -11.724  11.281  69.309  1.00  0.00    -0.403 A  
HETATM   13  C   UNL     1     -10.553  11.160  68.538  1.00  0.00    -0.219 A  
HETATM   14  C   UNL     1      -9.566  10.275  68.983  1.00  0.00    -0.203 A  
HETATM   15  H   UNL     1      -7.757   9.435  68.569  1.00  0.00     0.000 HD 
HETATM   16  C   UNL     1      -9.704   9.597  70.186  1.00  0.00    -0.301 A  
HETATM   17  O   UNL     1      -8.427  10.036  68.267  1.00  0.00    -0.109 OA 
HETATM   18  C   UNL     1     -10.837   9.800  70.981  1.00  0.00    -0.378 A  
BRANCH  13  19
HETATM   19  C   UNL     1     -10.445  11.942  67.256  1.00  0.00    -0.222 C  
HETATM   20  O   UNL     1     -10.317  11.063  66.140  1.00  0.00    -0.239 OA 
HETATM   21  H   UNL     1     -10.248  11.557  65.331  1.00  0.00     0.000 HD 
ENDBRANCH  13  19
ENDBRANCH   8  11
ENDBRANCH   7   8
ENDBRANCH   3   7
TORSDOF 4
ENDMDL
MODEL      101
REMARK 921   NORMALIZED FREE ENERGY PREDICTED BY IDOCK:   -4.32 KCAL/MOL
REMARK 922        TOTAL FREE ENERGY PREDICTED BY IDOCK:   -6.04 KCAL/MOL
REMARK 923 INTER-LIGAND FREE ENERGY PREDICTED BY IDOCK:   -5.70 KCAL/MOL
REMARK 924 INTRA-LIGAND FREE ENERGY PREDICTED BY IDOCK:   -0.34 KCAL/MOL
REMARK 927      BINDING AFFINITY PREDICTED BY RF-SCORE:    0.00 PKD
ROOT
HETATM    1  C   UNL     1     -11.570   8.308  72.350  1.00  0.00    -0.464 C  
HETATM    2  C   UNL     1     -10.903   7.706  71.102  1.00  0.00    -0.235 C  
HETATM    3  N   UNL     1     -11.093   8.574  69.922  1.00  0.00    -0.418 NA 
HETATM    4  C   UNL     1      -9.424   7.402  71.381  1.00  0.00    -0.160 C  
HETATM    5  C   UNL     1     -11.612   6.377  70.768  1.00  0.00    -0.402 C  
HETATM    6  H   UNL     1     -11.601   8.259  69.096  1.00  0.00     0.000 HD 
ENDROOT
BRANCH   3   7
HETATM    7  C   UNL     1     -10.503   9.923  70.007  1.00  0.00    -0.284 C  
BRANCH   7   8
HETATM    8  C   UNL     1     -11.440  11.087  69.555  1.00  0.00    -0.299 C  
HETATM    9  H   UNL     1     -13.352  11.396  69.597  1.00  0.00     0.000 HD 
HETATM   10  O   UNL     1     -12.782  10.688  69.872  1.00  0.00    -0.241 OA 
BRANCH   8  11
HETATM   11  C   UNL     1     -11.325  11.497  68.090  1.00  0.00    -0.367 A  
HETATM   12  C   UNL     1     -10.590  10.702  67.192  1.00  0.00    -0.312 A  
HETATM   13  C   UNL     1     -10.482  11.014  65.825  1.00  0.00    -0.290 A  
HETATM   14  C   UNL     1     -11.032  12.223  65.386  1.00  0.00    -0.301 A  
HETATM   15  H   UNL     1     -11.289  13.468  63.793  1.00  0.00     0.000 HD 
HETATM   16  C   UNL     1     -11.728  13.050  66.256  1.00  0.00    -0.440 A  
HETATM   17  O   UNL     1     -10.915  12.647  64.092  1.00  0.00    -0.334 OA 
HETATM   18  C   UNL     1     -11.900  12.677  67.593  1.00  0.00    -0.390 A  
BRANCH  13  19
HETATM   19  C   UNL     1      -9.742  10.066  64.920  1.00  0.00    -0.307 C  
HETATM   20  O   UNL     1      -9.706   8.757  65.486  1.00  0.00    -0.459 OA 
HETATM   21  H   UNL     1      -9.239   8.158  64.915  1.00  0.00     0.000 HD 
ENDBRANCH  13  19
ENDBRANCH   8  11
ENDBRANCH   7   8
ENDBRANCH   3   7
TORSDOF 4
ENDMDL
MODEL      102
REMARK 921   NORMALIZED FREE ENERGY PREDICTED BY IDOCK:   -4.31 KCAL/MOL
REMARK 922        TOTAL FREE ENERGY PREDICTED BY IDOCK:   -6.03 KCAL/MOL
REMARK 923 INTER-LIGAND FREE ENERGY PREDICTED BY IDOCK:   -5.40 KCAL/MOL
REMARK 924 INTRA-LIGAND FREE ENERGY PREDICTED BY IDOCK:   -0.63 KCAL/MOL
REMARK 927      BINDING AFFINITY PREDICTED BY RF-SCORE:    0.00 PKD
ROOT
HETATM    1  C   UNL     1     -11.550  14.843  67.239  1.00  0.00    -0.337 C  
HETATM    2  C   UNL     1     -11.045  14.919  68.689  1.00  0.00    -0.263 C  
HETATM    3  N   UNL     1     -10.592  13.597  69.170  1.00  0.00    -0.429 NA 
HETATM    4  C   UNL     1      -9.960  15.998  68.820  1.00  0.00    -0.224 C  
HETATM    5  C   UNL     1     -12.229  15.315  69.595  1.00  0.00    -0.304 C  
HETATM    6  H   UNL     1     -11.038  13.128  69.958  1.00  0.00     0.000 HD 
ENDROOT
BRANCH   3   7
HETATM    7  C   UNL     1      -9.458  12.996  68.443  1.00  0.00    -0.165 C  
BRANCH   7   8
HETATM    8  C   UNL     1      -9.672  11.521  67.982  1.00  0.00    -0.186 C  
HETATM    9  H   UNL     1      -8.787   9.835  68.339  1.00  0.00     0.000 HD 
HETATM   10  O   UNL     1      -8.657  10.733  68.621  1.00  0.00    -0.136 OA 
BRANCH   8  11
HETATM   11  C   UNL     1      -9.669  11.293  66.473  1.00  0.00    -0.230 A  
HETATM   12  C   UNL     1     -10.690  11.842  65.676  1.00  0.00    -0.325 A  
HETATM   13  C   UNL     1     -10.715  11.694  64.277  1.00  0.00    -0.398 A  
HETATM   14  C   UNL     1      -9.749  10.870  63.691  1.00  0.00    -0.329 A  
HETATM   15  H   UNL     1      -9.080  10.047  61.951  1.00  0.00     0.000 HD 
HETATM   16  C   UNL     1      -8.753  10.280  64.455  1.00  0.00    -0.205 A  
HETATM   17  O   UNL     1      -9.736  10.607  62.350  1.00  0.00    -0.204 OA 
HETATM   18  C   UNL     1      -8.694  10.513  65.833  1.00  0.00    -0.178 A  
BRANCH  13  19
HETATM   19  C   UNL     1     -11.801  12.381  63.494  1.00  0.00    -0.521 C  
HETATM   20  O   UNL     1     -12.634  11.424  62.843  1.00  0.00    -0.970 OA 
HETATM   21  H   UNL     1     -13.320  11.857  62.348  1.00  0.00     0.000 HD 
ENDBRANCH  13  19
ENDBRANCH   8  11
ENDBRANCH   7   8
ENDBRANCH   3   7
TORSDOF 4
ENDMDL
MODEL      103
REMARK 921   NORMALIZED FREE ENERGY PREDICTED BY IDOCK:   -4.31 KCAL/MOL
REMARK 922        TOTAL FREE ENERGY PREDICTED BY IDOCK:   -6.03 KCAL/MOL
REMARK 923 INTER-LIGAND FREE ENERGY PREDICTED BY IDOCK:   -5.71 KCAL/MOL
REMARK 924 INTRA-LIGAND FREE ENERGY PREDICTED BY IDOCK:   -0.31 KCAL/MOL
REMARK 927      BINDING AFFINITY PREDICTED BY RF-SCORE:    0.00 PKD
ROOT
HETATM    1  C   UNL     1     -10.085   7.328  71.641  1.00  0.00    -0.196 C  
HETATM    2  C   UNL     1     -11.263   7.204  70.661  1.00  0.00    -0.280 C  
HETATM    3  N   UNL     1     -11.498   8.472  69.941  1.00  0.00    -0.448 NA 
HETATM    4  C   UNL     1     -11.045   6.016  69.713  1.00  0.00    -0.476 C  
HETATM    5  C   UNL     1     -12.545   6.937  71.478  1.00  0.00    -0.412 C  
HETATM    6  H   UNL     1     -12.373   8.988  70.028  1.00  0.00     0.000 HD 
ENDROOT
BRANCH   3   7
HETATM    7  C   UNL     1     -10.393   8.948  69.088  1.00  0.00    -0.220 C  
BRANCH   7   8
HETATM    8  C   UNL     1     -10.784   9.263  67.610  1.00  0.00    -0.209 C  
HETATM    9  H   UNL     1     -10.003   8.880  65.879  1.00  0.00     0.000 HD 
HETATM   10  O   UNL     1      -9.765   8.688  66.778  1.00  0.00    -0.190 OA 
BRANCH   8  11
HETATM   11  C   UNL     1     -10.987  10.739  67.280  1.00  0.00    -0.359 A  
HETATM   12  C   UNL     1     -11.486  11.617  68.260  1.00  0.00    -0.369 A  
HETATM   13  C   UNL     1     -11.657  12.992  68.020  1.00  0.00    -0.383 A  
HETATM   14  C   UNL     1     -11.432  13.462  66.722  1.00  0.00    -0.343 A  
HETATM   15  H   UNL     1     -11.489  15.087  65.493  1.00  0.00     0.000 HD 
HETATM   16  C   UNL     1     -10.979  12.613  65.723  1.00  0.00    -0.313 A  
HETATM   17  O   UNL     1     -11.642  14.767  66.375  1.00  0.00    -0.356 OA 
HETATM   18  C   UNL     1     -10.730  11.266  66.005  1.00  0.00    -0.301 A  
BRANCH  13  19
HETATM   19  C   UNL     1     -12.121  13.873  69.149  1.00  0.00    -0.338 C  
HETATM   20  O   UNL     1     -11.710  13.337  70.406  1.00  0.00    -0.520 OA 
HETATM   21  H   UNL     1     -12.003  13.893  71.119  1.00  0.00     0.000 HD 
ENDBRANCH  13  19
ENDBRANCH   8  11
ENDBRANCH   7   8
ENDBRANCH   3   7
TORSDOF 4
ENDMDL
MODEL      104
REMARK 921   NORMALIZED FREE ENERGY PREDICTED BY IDOCK:   -4.29 KCAL/MOL
REMARK 922        TOTAL FREE ENERGY PREDICTED BY IDOCK:   -6.00 KCAL/MOL
REMARK 923 INTER-LIGAND FREE ENERGY PREDICTED BY IDOCK:   -5.45 KCAL/MOL
REMARK 924 INTRA-LIGAND FREE ENERGY PREDICTED BY IDOCK:   -0.55 KCAL/MOL
REMARK 927      BINDING AFFINITY PREDICTED BY RF-SCORE:    0.00 PKD
ROOT
HETATM    1  C   UNL     1     -11.505   8.322  72.547  1.00  0.00    -0.454 C  
HETATM    2  C   UNL     1     -12.348   8.121  71.277  1.00  0.00    -0.265 C  
HETATM    3  N   UNL     1     -12.320   9.324  70.419  1.00  0.00    -0.459 NA 
HETATM    4  C   UNL     1     -11.898   6.855  70.534  1.00  0.00    -0.385 C  
HETATM    5  C   UNL     1     -13.820   7.935  71.697  1.00  0.00    -0.453 C  
HETATM    6  H   UNL     1     -13.165   9.851  70.202  1.00  0.00     0.000 HD 
ENDROOT
BRANCH   3   7
HETATM    7  C   UNL     1     -10.999   9.717  69.895  1.00  0.00    -0.252 C  
BRANCH   7   8
HETATM    8  C   UNL     1     -11.029  10.747  68.723  1.00  0.00    -0.247 C  
HETATM    9  H   UNL     1     -12.418  11.764  67.834  1.00  0.00     0.000 HD 
HETATM   10  O   UNL     1     -12.399  11.137  68.547  1.00  0.00    -0.561 OA 
BRANCH   8  11
HETATM   11  C   UNL     1     -10.426  10.268  67.405  1.00  0.00    -0.303 A  
HETATM   12  C   UNL     1      -9.729   9.047  67.354  1.00  0.00    -0.217 A  
HETATM   13  C   UNL     1      -9.185   8.542  66.159  1.00  0.00    -0.269 A  
HETATM   14  C   UNL     1      -9.247   9.350  65.019  1.00  0.00    -0.218 A  
HETATM   15  H   UNL     1      -8.726   9.526  63.057  1.00  0.00     0.000 HD 
HETATM   16  C   UNL     1      -9.892  10.578  65.048  1.00  0.00    -0.369 A  
HETATM   17  O   UNL     1      -8.683   8.977  63.831  1.00  0.00    -0.179 OA 
HETATM   18  C   UNL     1     -10.504  11.023  66.225  1.00  0.00    -0.310 A  
BRANCH  13  19
HETATM   19  C   UNL     1      -8.523   7.190  66.178  1.00  0.00    -0.142 C  
HETATM   20  O   UNL     1      -9.168   6.302  65.267  1.00  0.00    -0.363 OA 
HETATM   21  H   UNL     1      -8.750   5.448  65.279  1.00  0.00     0.000 HD 
ENDBRANCH  13  19
ENDBRANCH   8  11
ENDBRANCH   7   8
ENDBRANCH   3   7
TORSDOF 4
ENDMDL
MODEL      105
REMARK 921   NORMALIZED FREE ENERGY PREDICTED BY IDOCK:   -4.29 KCAL/MOL
REMARK 922        TOTAL FREE ENERGY PREDICTED BY IDOCK:   -6.00 KCAL/MOL
REMARK 923 INTER-LIGAND FREE ENERGY PREDICTED BY IDOCK:   -6.14 KCAL/MOL
REMARK 924 INTRA-LIGAND FREE ENERGY PREDICTED BY IDOCK:    0.14 KCAL/MOL
REMARK 927      BINDING AFFINITY PREDICTED BY RF-SCORE:    0.00 PKD
ROOT
HETATM    1  C   UNL     1     -10.823  16.907  65.135  1.00  0.00    -0.105 C  
HETATM    2  C   UNL     1     -10.368  16.446  66.530  1.00  0.00    -0.303 C  
HETATM    3  N   UNL     1     -11.378  15.572  67.161  1.00  0.00    -0.207 NA 
HETATM    4  C   UNL     1      -8.984  15.787  66.448  1.00  0.00    -0.366 C  
HETATM    5  C   UNL     1     -10.257  17.688  67.437  1.00  0.00    -0.345 C  
HETATM    6  H   UNL     1     -11.846  15.828  68.031  1.00  0.00     0.000 HD 
ENDROOT
BRANCH   3   7
HETATM    7  C   UNL     1     -11.671  14.307  66.462  1.00  0.00    -0.394 C  
BRANCH   7   8
HETATM    8  C   UNL     1     -11.314  13.011  67.255  1.00  0.00    -0.306 C  
HETATM    9  H   UNL     1     -11.661  11.121  67.012  1.00  0.00     0.000 HD 
HETATM   10  O   UNL     1     -11.878  11.909  66.529  1.00  0.00    -0.579 OA 
BRANCH   8  11
HETATM   11  C   UNL     1     -11.759  12.987  68.715  1.00  0.00    -0.363 A  
HETATM   12  C   UNL     1     -11.884  11.760  69.392  1.00  0.00    -0.398 A  
HETATM   13  C   UNL     1     -12.256  11.683  70.747  1.00  0.00    -0.443 A  
HETATM   14  C   UNL     1     -12.624  12.868  71.391  1.00  0.00    -0.220 A  
HETATM   15  H   UNL     1     -13.318  13.689  73.122  1.00  0.00     0.000 HD 
HETATM   16  C   UNL     1     -12.551  14.090  70.738  1.00  0.00    -0.431 A  
HETATM   17  O   UNL     1     -13.068  12.884  72.684  1.00  0.00    -0.320 OA 
HETATM   18  C   UNL     1     -12.094  14.154  69.418  1.00  0.00    -0.372 A  
BRANCH  13  19
HETATM   19  C   UNL     1     -12.288  10.334  71.414  1.00  0.00    -0.401 C  
HETATM   20  O   UNL     1     -13.424  10.224  72.271  1.00  0.00    -0.588 OA 
HETATM   21  H   UNL     1     -13.444   9.373  72.692  1.00  0.00     0.000 HD 
ENDBRANCH  13  19
ENDBRANCH   8  11
ENDBRANCH   7   8
ENDBRANCH   3   7
TORSDOF 4
ENDMDL
MODEL      106
REMARK 921   NORMALIZED FREE ENERGY PREDICTED BY IDOCK:   -4.28 KCAL/MOL
REMARK 922        TOTAL FREE ENERGY PREDICTED BY IDOCK:   -5.99 KCAL/MOL
REMARK 923 INTER-LIGAND FREE ENERGY PREDICTED BY IDOCK:   -5.53 KCAL/MOL
REMARK 924 INTRA-LIGAND FREE ENERGY PREDICTED BY IDOCK:   -0.45 KCAL/MOL
REMARK 927      BINDING AFFINITY PREDICTED BY RF-SCORE:    0.00 PKD
ROOT
HETATM    1  C   UNL     1     -11.590   6.435  70.338  1.00  0.00    -0.440 C  
HETATM    2  C   UNL     1     -10.231   7.092  70.626  1.00  0.00    -0.195 C  
HETATM    3  N   UNL     1      -9.692   7.761  69.423  1.00  0.00    -0.167 NA 
HETATM    4  C   UNL     1     -10.341   8.040  71.829  1.00  0.00    -0.275 C  
HETATM    5  C   UNL     1      -9.221   5.982  70.980  1.00  0.00    -0.168 C  
HETATM    6  H   UNL     1      -8.813   7.473  68.994  1.00  0.00     0.000 HD 
ENDROOT
BRANCH   3   7
HETATM    7  C   UNL     1     -10.500   8.869  68.881  1.00  0.00    -0.205 C  
BRANCH   7   8
HETATM    8  C   UNL     1     -10.273   9.177  67.368  1.00  0.00    -0.247 C  
HETATM    9  H   UNL     1      -8.733   9.187  66.192  1.00  0.00     0.000 HD 
HETATM   10  O   UNL     1      -8.871   9.000  67.113  1.00  0.00    -0.119 OA 
BRANCH   8  11
HETATM   11  C   UNL     1     -10.742  10.550  66.895  1.00  0.00    -0.281 A  
HETATM   12  C   UNL     1     -10.532  10.945  65.561  1.00  0.00    -0.286 A  
HETATM   13  C   UNL     1     -10.977  12.183  65.064  1.00  0.00    -0.355 A  
HETATM   14  C   UNL     1     -11.539  13.087  65.971  1.00  0.00    -0.365 A  
HETATM   15  H   UNL     1     -12.316  14.955  66.214  1.00  0.00     0.000 HD 
HETATM   16  C   UNL     1     -11.722  12.743  67.303  1.00  0.00    -0.440 A  
HETATM   17  O   UNL     1     -11.934  14.341  65.598  1.00  0.00    -0.367 OA 
HETATM   18  C   UNL     1     -11.354  11.473  67.757  1.00  0.00    -0.364 A  
BRANCH  13  19
HETATM   19  C   UNL     1     -10.780  12.492  63.604  1.00  0.00    -0.430 C  
HETATM   20  O   UNL     1     -11.984  12.999  63.031  1.00  0.00    -0.827 OA 
HETATM   21  H   UNL     1     -11.860  13.194  62.109  1.00  0.00     0.000 HD 
ENDBRANCH  13  19
ENDBRANCH   8  11
ENDBRANCH   7   8
ENDBRANCH   3   7
TORSDOF 4
ENDMDL
MODEL      107
REMARK 921   NORMALIZED FREE ENERGY PREDICTED BY IDOCK:   -4.27 KCAL/MOL
REMARK 922        TOTAL FREE ENERGY PREDICTED BY IDOCK:   -5.98 KCAL/MOL
REMARK 923 INTER-LIGAND FREE ENERGY PREDICTED BY IDOCK:   -5.75 KCAL/MOL
REMARK 924 INTRA-LIGAND FREE ENERGY PREDICTED BY IDOCK:   -0.23 KCAL/MOL
REMARK 927      BINDING AFFINITY PREDICTED BY RF-SCORE:    0.00 PKD
ROOT
HETATM    1  C   UNL     1      -8.426   8.942  68.048  1.00  0.00    -0.126 C  
HETATM    2  C   UNL     1      -9.935   9.180  67.874  1.00  0.00    -0.186 C  
HETATM    3  N   UNL     1     -10.217  10.583  67.504  1.00  0.00    -0.195 NA 
HETATM    4  C   UNL     1     -10.522   8.175  66.873  1.00  0.00    -0.379 C  
HETATM    5  C   UNL     1     -10.620   8.956  69.238  1.00  0.00    -0.219 C  
HETATM    6  H   UNL     1     -10.773  11.196  68.100  1.00  0.00     0.000 HD 
ENDROOT
BRANCH   3   7
HETATM    7  C   UNL     1      -9.649  11.043  66.224  1.00  0.00    -0.201 C  
BRANCH   7   8
HETATM    8  C   UNL     1     -10.696  11.427  65.132  1.00  0.00    -0.269 C  
HETATM    9  H   UNL     1     -10.925  11.015  63.253  1.00  0.00     0.000 HD 
HETATM   10  O   UNL     1     -10.288  10.781  63.917  1.00  0.00    -0.349 OA 
BRANCH   8  11
HETATM   11  C   UNL     1     -10.902  12.923  64.911  1.00  0.00    -0.331 A  
HETATM   12  C   UNL     1     -10.127  13.853  65.626  1.00  0.00    -0.332 A  
HETATM   13  C   UNL     1     -10.250  15.242  65.434  1.00  0.00    -0.414 A  
HETATM   14  C   UNL     1     -11.266  15.696  64.588  1.00  0.00    -0.369 A  
HETATM   15  H   UNL     1     -12.201  17.335  63.819  1.00  0.00     0.000 HD 
HETATM   16  C   UNL     1     -12.076  14.803  63.900  1.00  0.00    -0.028 A  
HETATM   17  O   UNL     1     -11.511  17.026  64.395  1.00  0.00    -1.048 OA 
HETATM   18  C   UNL     1     -11.878  13.425  64.036  1.00  0.00    -0.498 A  
BRANCH  13  19
HETATM   19  C   UNL     1      -9.325  16.162  66.184  1.00  0.00    -0.336 C  
HETATM   20  O   UNL     1      -9.388  17.483  65.647  1.00  0.00    -0.467 OA 
HETATM   21  H   UNL     1      -8.804  18.065  66.120  1.00  0.00     0.000 HD 
ENDBRANCH  13  19
ENDBRANCH   8  11
ENDBRANCH   7   8
ENDBRANCH   3   7
TORSDOF 4
ENDMDL
MODEL      108
REMARK 921   NORMALIZED FREE ENERGY PREDICTED BY IDOCK:   -4.27 KCAL/MOL
REMARK 922        TOTAL FREE ENERGY PREDICTED BY IDOCK:   -5.98 KCAL/MOL
REMARK 923 INTER-LIGAND FREE ENERGY PREDICTED BY IDOCK:   -5.25 KCAL/MOL
REMARK 924 INTRA-LIGAND FREE ENERGY PREDICTED BY IDOCK:   -0.72 KCAL/MOL
REMARK 927      BINDING AFFINITY PREDICTED BY RF-SCORE:    0.00 PKD
ROOT
HETATM    1  C   UNL     1      -9.794  12.694  64.016  1.00  0.00    -0.032 C  
HETATM    2  C   UNL     1     -11.146  12.353  64.665  1.00  0.00    -0.307 C  
HETATM    3  N   UNL     1     -11.707  13.519  65.378  1.00  0.00    -0.321 NA 
HETATM    4  C   UNL     1     -12.111  11.781  63.616  1.00  0.00    -0.486 C  
HETATM    5  C   UNL     1     -10.909  11.273  65.740  1.00  0.00    -0.257 C  
HETATM    6  H   UNL     1     -11.874  13.507  66.384  1.00  0.00     0.000 HD 
ENDROOT
BRANCH   3   7
HETATM    7  C   UNL     1     -12.013  14.701  64.551  1.00  0.00    -0.460 C  
BRANCH   7   8
HETATM    8  C   UNL     1     -11.643  16.074  65.194  1.00  0.00     0.192 C  
HETATM    9  H   UNL     1     -10.951  17.755  64.522  1.00  0.00     0.000 HD 
HETATM   10  O   UNL     1     -11.176  16.919  64.131  1.00  0.00    -1.176 OA 
BRANCH   8  11
HETATM   11  C   UNL     1     -10.629  16.020  66.332  1.00  0.00    -0.284 A  
HETATM   12  C   UNL     1     -11.061  16.135  67.666  1.00  0.00    -0.212 A  
HETATM   13  C   UNL     1     -10.173  16.055  68.754  1.00  0.00    -0.225 A  
HETATM   14  C   UNL     1      -8.804  15.978  68.476  1.00  0.00    -0.199 A  
HETATM   15  H   UNL     1      -6.931  15.917  69.275  1.00  0.00     0.000 HD 
HETATM   16  C   UNL     1      -8.343  15.905  67.169  1.00  0.00    -0.231 A  
HETATM   17  O   UNL     1      -7.861  15.969  69.464  1.00  0.00    -0.216 OA 
HETATM   18  C   UNL     1      -9.250  15.897  66.103  1.00  0.00    -0.384 A  
BRANCH  13  19
HETATM   19  C   UNL     1     -10.730  16.108  70.150  1.00  0.00    -0.289 C  
HETATM   20  O   UNL     1     -10.186  15.059  70.950  1.00  0.00    -0.366 OA 
HETATM   21  H   UNL     1     -10.537  15.093  71.832  1.00  0.00     0.000 HD 
ENDBRANCH  13  19
ENDBRANCH   8  11
ENDBRANCH   7   8
ENDBRANCH   3   7
TORSDOF 4
ENDMDL
MODEL      109
REMARK 921   NORMALIZED FREE ENERGY PREDICTED BY IDOCK:   -4.24 KCAL/MOL
REMARK 922        TOTAL FREE ENERGY PREDICTED BY IDOCK:   -5.95 KCAL/MOL
REMARK 923 INTER-LIGAND FREE ENERGY PREDICTED BY IDOCK:   -5.43 KCAL/MOL
REMARK 924 INTRA-LIGAND FREE ENERGY PREDICTED BY IDOCK:   -0.51 KCAL/MOL
REMARK 927      BINDING AFFINITY PREDICTED BY RF-SCORE:    0.00 PKD
ROOT
HETATM    1  C   UNL     1     -11.330   6.503  70.013  1.00  0.00    -0.472 C  
HETATM    2  C   UNL     1     -10.400   7.503  70.721  1.00  0.00    -0.203 C  
HETATM    3  N   UNL     1      -9.888   8.520  69.779  1.00  0.00    -0.183 NA 
HETATM    4  C   UNL     1     -11.110   8.125  71.933  1.00  0.00    -0.346 C  
HETATM    5  C   UNL     1      -9.162   6.737  71.230  1.00  0.00    -0.154 C  
HETATM    6  H   UNL     1      -8.893   8.618  69.579  1.00  0.00     0.000 HD 
ENDROOT
BRANCH   3   7
HETATM    7  C   UNL     1     -10.901   9.384  69.144  1.00  0.00    -0.155 C  
BRANCH   7   8
HETATM    8  C   UNL     1     -10.821  10.894  69.531  1.00  0.00    -0.238 C  
HETATM    9  H   UNL     1     -11.970  12.120  70.494  1.00  0.00     0.000 HD 
HETATM   10  O   UNL     1     -12.019  11.202  70.258  1.00  0.00    -0.314 OA 
BRANCH   8  11
HETATM   11  C   UNL     1     -10.625  11.864  68.369  1.00  0.00    -0.239 A  
HETATM   12  C   UNL     1     -11.530  11.865  67.293  1.00  0.00    -0.385 A  
HETATM   13  C   UNL     1     -11.416  12.763  66.215  1.00  0.00    -0.405 A  
HETATM   14  C   UNL     1     -10.292  13.594  66.173  1.00  0.00    -0.297 A  
HETATM   15  H   UNL     1      -9.294  15.011  65.102  1.00  0.00     0.000 HD 
HETATM   16  C   UNL     1      -9.359  13.587  67.200  1.00  0.00    -0.240 A  
HETATM   17  O   UNL     1     -10.058  14.446  65.131  1.00  0.00    -0.382 OA 
HETATM   18  C   UNL     1      -9.538  12.750  68.306  1.00  0.00    -0.211 A  
BRANCH  13  19
HETATM   19  C   UNL     1     -12.473  12.747  65.144  1.00  0.00    -0.501 C  
HETATM   20  O   UNL     1     -12.971  14.063  64.910  1.00  0.00    -0.707 OA 
HETATM   21  H   UNL     1     -13.639  14.054  64.234  1.00  0.00     0.000 HD 
ENDBRANCH  13  19
ENDBRANCH   8  11
ENDBRANCH   7   8
ENDBRANCH   3   7
TORSDOF 4
ENDMDL
MODEL      110
REMARK 921   NORMALIZED FREE ENERGY PREDICTED BY IDOCK:   -4.23 KCAL/MOL
REMARK 922        TOTAL FREE ENERGY PREDICTED BY IDOCK:   -5.93 KCAL/MOL
REMARK 923 INTER-LIGAND FREE ENERGY PREDICTED BY IDOCK:   -5.60 KCAL/MOL
REMARK 924 INTRA-LIGAND FREE ENERGY PREDICTED BY IDOCK:   -0.33 KCAL/MOL
REMARK 927      BINDING AFFINITY PREDICTED BY RF-SCORE:    0.00 PKD
ROOT
HETATM    1  C   UNL     1      -9.305   9.022  70.973  1.00  0.00    -0.339 C  
HETATM    2  C   UNL     1     -10.518   8.404  71.689  1.00  0.00    -0.252 C  
HETATM    3  N   UNL     1     -11.622   9.379  71.811  1.00  0.00    -0.389 NA 
HETATM    4  C   UNL     1     -10.948   7.108  70.988  1.00  0.00    -0.277 C  
HETATM    5  C   UNL     1     -10.101   8.054  73.132  1.00  0.00    -0.302 C  
HETATM    6  H   UNL     1     -11.971   9.688  72.718  1.00  0.00     0.000 HD 
ENDROOT
BRANCH   3   7
HETATM    7  C   UNL     1     -12.190   9.877  70.545  1.00  0.00    -0.179 C  
BRANCH   7   8
HETATM    8  C   UNL     1     -11.667  11.275  70.088  1.00  0.00    -0.343 C  
HETATM    9  H   UNL     1     -12.255  13.103  70.343  1.00  0.00     0.000 HD 
HETATM   10  O   UNL     1     -12.573  12.253  70.622  1.00  0.00    -0.257 OA 
BRANCH   8  11
HETATM   11  C   UNL     1     -11.495  11.457  68.583  1.00  0.00    -0.359 A  
HETATM   12  C   UNL     1     -11.869  12.668  67.973  1.00  0.00    -0.376 A  
HETATM   13  C   UNL     1     -11.697  12.901  66.596  1.00  0.00    -0.452 A  
HETATM   14  C   UNL     1     -11.249  11.839  65.805  1.00  0.00    -0.281 A  
HETATM   15  H   UNL     1     -10.815  11.226  63.911  1.00  0.00     0.000 HD 
HETATM   16  C   UNL     1     -10.910  10.618  66.371  1.00  0.00    -0.132 A  
HETATM   17  O   UNL     1     -11.120  11.947  64.448  1.00  0.00    -0.306 OA 
HETATM   18  C   UNL     1     -11.004  10.436  67.755  1.00  0.00    -0.369 A  
BRANCH  13  19
HETATM   19  C   UNL     1     -12.052  14.254  66.040  1.00  0.00    -0.408 C  
HETATM   20  O   UNL     1     -12.476  14.144  64.682  1.00  0.00    -0.577 OA 
HETATM   21  H   UNL     1     -12.700  14.998  64.331  1.00  0.00     0.000 HD 
ENDBRANCH  13  19
ENDBRANCH   8  11
ENDBRANCH   7   8
ENDBRANCH   3   7
TORSDOF 4
ENDMDL
MODEL      111
REMARK 921   NORMALIZED FREE ENERGY PREDICTED BY IDOCK:   -4.19 KCAL/MOL
REMARK 922        TOTAL FREE ENERGY PREDICTED BY IDOCK:   -5.88 KCAL/MOL
REMARK 923 INTER-LIGAND FREE ENERGY PREDICTED BY IDOCK:   -5.13 KCAL/MOL
REMARK 924 INTRA-LIGAND FREE ENERGY PREDICTED BY IDOCK:   -0.75 KCAL/MOL
REMARK 927      BINDING AFFINITY PREDICTED BY RF-SCORE:    0.00 PKD
ROOT
HETATM    1  C   UNL     1     -10.344   9.342  66.350  1.00  0.00    -0.238 C  
HETATM    2  C   UNL     1     -10.367  10.169  67.646  1.00  0.00    -0.219 C  
HETATM    3  N   UNL     1      -9.052  10.789  67.910  1.00  0.00    -0.147 NA 
HETATM    4  C   UNL     1     -11.507  11.197  67.602  1.00  0.00    -0.328 C  
HETATM    5  C   UNL     1     -10.628   9.212  68.827  1.00  0.00    -0.208 C  
HETATM    6  H   UNL     1      -8.508  10.566  68.743  1.00  0.00     0.000 HD 
ENDROOT
BRANCH   3   7
HETATM    7  C   UNL     1      -8.573  11.750  66.900  1.00  0.00    -0.177 C  
BRANCH   7   8
HETATM    8  C   UNL     1      -8.449  13.226  67.393  1.00  0.00    -0.206 C  
HETATM    9  H   UNL     1      -8.785  14.139  69.068  1.00  0.00     0.000 HD 
HETATM   10  O   UNL     1      -8.861  13.241  68.768  1.00  0.00    -0.021 OA 
BRANCH   8  11
HETATM   11  C   UNL     1      -9.222  14.261  66.582  1.00  0.00    -0.276 A  
HETATM   12  C   UNL     1      -9.230  15.609  66.986  1.00  0.00    -0.239 A  
HETATM   13  C   UNL     1      -9.896  16.610  66.255  1.00  0.00    -0.329 A  
HETATM   14  C   UNL     1     -10.669  16.213  65.159  1.00  0.00    -0.371 A  
HETATM   15  H   UNL     1     -11.935  16.833  63.687  1.00  0.00     0.000 HD 
HETATM   16  C   UNL     1     -10.716  14.885  64.760  1.00  0.00    -0.365 A  
HETATM   17  O   UNL     1     -11.410  17.102  64.432  1.00  0.00    -1.115 OA 
HETATM   18  C   UNL     1      -9.974  13.918  65.447  1.00  0.00    -0.274 A  
BRANCH  13  19
HETATM   19  C   UNL     1      -9.787  18.038  66.715  1.00  0.00    -0.335 C  
HETATM   20  O   UNL     1      -9.221  18.855  65.692  1.00  0.00    -0.279 OA 
HETATM   21  H   UNL     1      -9.151  19.757  65.982  1.00  0.00     0.000 HD 
ENDBRANCH  13  19
ENDBRANCH   8  11
ENDBRANCH   7   8
ENDBRANCH   3   7
TORSDOF 4
ENDMDL
MODEL      112
REMARK 921   NORMALIZED FREE ENERGY PREDICTED BY IDOCK:   -4.18 KCAL/MOL
REMARK 922        TOTAL FREE ENERGY PREDICTED BY IDOCK:   -5.87 KCAL/MOL
REMARK 923 INTER-LIGAND FREE ENERGY PREDICTED BY IDOCK:   -5.18 KCAL/MOL
REMARK 924 INTRA-LIGAND FREE ENERGY PREDICTED BY IDOCK:   -0.68 KCAL/MOL
REMARK 927      BINDING AFFINITY PREDICTED BY RF-SCORE:    0.00 PKD
ROOT
HETATM    1  C   UNL     1     -11.993  14.977  68.213  1.00  0.00    -0.214 C  
HETATM    2  C   UNL     1     -10.666  14.938  68.990  1.00  0.00    -0.247 C  
HETATM    3  N   UNL     1     -10.236  13.548  69.248  1.00  0.00    -0.410 NA 
HETATM    4  C   UNL     1      -9.596  15.762  68.259  1.00  0.00    -0.201 C  
HETATM    5  C   UNL     1     -10.898  15.574  70.376  1.00  0.00    -0.356 C  
HETATM    6  H   UNL     1     -10.136  13.181  70.194  1.00  0.00     0.000 HD 
ENDROOT
BRANCH   3   7
HETATM    7  C   UNL     1      -9.960  12.723  68.057  1.00  0.00    -0.225 C  
BRANCH   7   8
HETATM    8  C   UNL     1     -10.792  11.406  67.955  1.00  0.00    -0.217 C  
HETATM    9  H   UNL     1     -12.342  10.844  66.939  1.00  0.00     0.000 HD 
HETATM   10  O   UNL     1     -11.836  11.646  67.001  1.00  0.00    -0.591 OA 
BRANCH   8  11
HETATM   11  C   UNL     1     -11.365  10.882  69.269  1.00  0.00    -0.345 A  
HETATM   12  C   UNL     1     -10.609  10.003  70.066  1.00  0.00    -0.344 A  
HETATM   13  C   UNL     1     -11.075   9.520  71.302  1.00  0.00    -0.449 A  
HETATM   14  C   UNL     1     -12.382   9.841  71.679  1.00  0.00    -0.408 A  
HETATM   15  H   UNL     1     -13.836   9.578  73.082  1.00  0.00     0.000 HD 
HETATM   16  C   UNL     1     -13.168  10.673  70.894  1.00  0.00    -0.222 A  
HETATM   17  O   UNL     1     -12.948   9.359  72.826  1.00  0.00    -0.254 OA 
HETATM   18  C   UNL     1     -12.654  11.215  69.712  1.00  0.00    -0.129 A  
BRANCH  13  19
HETATM   19  C   UNL     1     -10.168   8.646  72.127  1.00  0.00    -0.323 C  
HETATM   20  O   UNL     1     -10.860   7.479  72.569  1.00  0.00    -0.251 OA 
HETATM   21  H   UNL     1     -10.289   6.927  73.089  1.00  0.00     0.000 HD 
ENDBRANCH  13  19
ENDBRANCH   8  11
ENDBRANCH   7   8
ENDBRANCH   3   7
TORSDOF 4
ENDMDL
MODEL      113
REMARK 921   NORMALIZED FREE ENERGY PREDICTED BY IDOCK:   -4.18 KCAL/MOL
REMARK 922        TOTAL FREE ENERGY PREDICTED BY IDOCK:   -5.86 KCAL/MOL
REMARK 923 INTER-LIGAND FREE ENERGY PREDICTED BY IDOCK:   -5.35 KCAL/MOL
REMARK 924 INTRA-LIGAND FREE ENERGY PREDICTED BY IDOCK:   -0.52 KCAL/MOL
REMARK 927      BINDING AFFINITY PREDICTED BY RF-SCORE:    0.00 PKD
ROOT
HETATM    1  C   UNL     1     -10.465  13.762  64.673  1.00  0.00    -0.433 C  
HETATM    2  C   UNL     1     -11.767  13.011  64.997  1.00  0.00    -0.339 C  
HETATM    3  N   UNL     1     -11.530  11.915  65.959  1.00  0.00    -0.362 NA 
HETATM    4  C   UNL     1     -12.844  13.995  65.477  1.00  0.00    -0.453 C  
HETATM    5  C   UNL     1     -12.273  12.338  63.705  1.00  0.00    -0.665 C  
HETATM    6  H   UNL     1     -11.704  10.939  65.719  1.00  0.00     0.000 HD 
ENDROOT
BRANCH   3   7
HETATM    7  C   UNL     1     -11.025  12.314  67.286  1.00  0.00    -0.256 C  
BRANCH   7   8
HETATM    8  C   UNL     1     -11.879  11.821  68.496  1.00  0.00    -0.303 C  
HETATM    9  H   UNL     1     -12.521  12.631  70.135  1.00  0.00     0.000 HD 
HETATM   10  O   UNL     1     -12.001  12.931  69.398  1.00  0.00    -0.302 OA 
BRANCH   8  11
HETATM   11  C   UNL     1     -11.350  10.587  69.220  1.00  0.00    -0.325 A  
HETATM   12  C   UNL     1     -10.800   9.522  68.484  1.00  0.00    -0.175 A  
HETATM   13  C   UNL     1     -10.265   8.377  69.103  1.00  0.00    -0.217 A  
HETATM   14  C   UNL     1     -10.401   8.260  70.490  1.00  0.00    -0.202 A  
HETATM   15  H   UNL     1     -10.072   7.073  72.113  1.00  0.00     0.000 HD 
HETATM   16  C   UNL     1     -10.978   9.275  71.239  1.00  0.00    -0.421 A  
HETATM   17  O   UNL     1      -9.979   7.153  71.171  1.00  0.00    -0.184 OA 
HETATM   18  C   UNL     1     -11.423  10.445  70.614  1.00  0.00    -0.438 A  
BRANCH  13  19
HETATM   19  C   UNL     1      -9.624   7.321  68.244  1.00  0.00    -0.148 C  
HETATM   20  O   UNL     1      -8.314   7.012  68.718  1.00  0.00    -0.120 OA 
HETATM   21  H   UNL     1      -7.910   6.345  68.176  1.00  0.00     0.000 HD 
ENDBRANCH  13  19
ENDBRANCH   8  11
ENDBRANCH   7   8
ENDBRANCH   3   7
TORSDOF 4
ENDMDL
MODEL      114
REMARK 921   NORMALIZED FREE ENERGY PREDICTED BY IDOCK:   -4.16 KCAL/MOL
REMARK 922        TOTAL FREE ENERGY PREDICTED BY IDOCK:   -5.84 KCAL/MOL
REMARK 923 INTER-LIGAND FREE ENERGY PREDICTED BY IDOCK:   -5.47 KCAL/MOL
REMARK 924 INTRA-LIGAND FREE ENERGY PREDICTED BY IDOCK:   -0.38 KCAL/MOL
REMARK 927      BINDING AFFINITY PREDICTED BY RF-SCORE:    0.00 PKD
ROOT
HETATM    1  C   UNL     1      -8.295  19.022  68.376  1.00  0.00    -0.383 C  
HETATM    2  C   UNL     1      -9.209  19.080  67.141  1.00  0.00    -0.293 C  
HETATM    3  N   UNL     1      -8.814  18.075  66.132  1.00  0.00    -0.493 NA 
HETATM    4  C   UNL     1     -10.680  18.950  67.560  1.00  0.00    -0.509 C  
HETATM    5  C   UNL     1      -9.022  20.454  66.465  1.00  0.00    -0.247 C  
HETATM    6  H   UNL     1      -8.501  18.342  65.199  1.00  0.00     0.000 HD 
ENDROOT
BRANCH   3   7
HETATM    7  C   UNL     1      -8.899  16.665  66.554  1.00  0.00    -0.279 C  
BRANCH   7   8
HETATM    8  C   UNL     1      -9.767  15.749  65.636  1.00  0.00    -0.297 C  
HETATM    9  H   UNL     1     -11.271  16.036  64.449  1.00  0.00     0.000 HD 
HETATM   10  O   UNL     1     -10.742  16.594  65.008  1.00  0.00    -0.677 OA 
BRANCH   8  11
HETATM   11  C   UNL     1     -10.437  14.565  66.327  1.00  0.00    -0.303 A  
HETATM   12  C   UNL     1      -9.706  13.771  67.230  1.00  0.00    -0.242 A  
HETATM   13  C   UNL     1     -10.284  12.691  67.921  1.00  0.00    -0.220 A  
HETATM   14  C   UNL     1     -11.597  12.337  67.598  1.00  0.00    -0.354 A  
HETATM   15  H   UNL     1     -13.112  11.018  67.943  1.00  0.00     0.000 HD 
HETATM   16  C   UNL     1     -12.332  13.074  66.680  1.00  0.00    -0.131 A  
HETATM   17  O   UNL     1     -12.220  11.259  68.163  1.00  0.00    -0.622 OA 
HETATM   18  C   UNL     1     -11.767  14.199  66.070  1.00  0.00    -0.389 A  
BRANCH  13  19
HETATM   19  C   UNL     1      -9.450  11.945  68.928  1.00  0.00     0.110 C  
HETATM   20  O   UNL     1      -8.247  11.468  68.329  1.00  0.00    -0.137 OA 
HETATM   21  H   UNL     1      -7.720  10.997  68.964  1.00  0.00     0.000 HD 
ENDBRANCH  13  19
ENDBRANCH   8  11
ENDBRANCH   7   8
ENDBRANCH   3   7
TORSDOF 4
ENDMDL
MODEL      115
REMARK 921   NORMALIZED FREE ENERGY PREDICTED BY IDOCK:   -4.16 KCAL/MOL
REMARK 922        TOTAL FREE ENERGY PREDICTED BY IDOCK:   -5.84 KCAL/MOL
REMARK 923 INTER-LIGAND FREE ENERGY PREDICTED BY IDOCK:   -5.21 KCAL/MOL
REMARK 924 INTRA-LIGAND FREE ENERGY PREDICTED BY IDOCK:   -0.63 KCAL/MOL
REMARK 927      BINDING AFFINITY PREDICTED BY RF-SCORE:    0.00 PKD
ROOT
HETATM    1  C   UNL     1     -10.438  10.909  66.511  1.00  0.00    -0.308 C  
HETATM    2  C   UNL     1     -11.047  12.089  67.287  1.00  0.00    -0.285 C  
HETATM    3  N   UNL     1      -9.998  12.910  67.926  1.00  0.00    -0.226 NA 
HETATM    4  C   UNL     1     -11.965  12.911  66.371  1.00  0.00    -0.462 C  
HETATM    5  C   UNL     1     -11.901  11.521  68.439  1.00  0.00    -0.353 C  
HETATM    6  H   UNL     1      -9.942  13.021  68.938  1.00  0.00     0.000 HD 
ENDROOT
BRANCH   3   7
HETATM    7  C   UNL     1      -9.037  13.559  67.015  1.00  0.00    -0.244 C  
BRANCH   7   8
HETATM    8  C   UNL     1      -8.358  14.848  67.576  1.00  0.00    -0.180 C  
HETATM    9  H   UNL     1      -8.011  15.548  69.348  1.00  0.00     0.000 HD 
HETATM   10  O   UNL     1      -8.424  14.764  69.007  1.00  0.00    -0.173 OA 
BRANCH   8  11
HETATM   11  C   UNL     1      -8.938  16.169  67.080  1.00  0.00    -0.218 A  
HETATM   12  C   UNL     1      -8.388  17.387  67.519  1.00  0.00    -0.212 A  
HETATM   13  C   UNL     1      -8.860  18.633  67.066  1.00  0.00    -0.286 A  
HETATM   14  C   UNL     1      -9.992  18.642  66.244  1.00  0.00    -0.372 A  
HETATM   15  H   UNL     1     -11.335  19.811  65.254  1.00  0.00     0.000 HD 
HETATM   16  C   UNL     1     -10.582  17.458  65.827  1.00  0.00    -0.185 A  
HETATM   17  O   UNL     1     -10.567  19.805  65.813  1.00  0.00    -0.523 OA 
HETATM   18  C   UNL     1     -10.043  16.228  66.217  1.00  0.00    -0.340 A  
BRANCH  13  19
HETATM   19  C   UNL     1      -8.162  19.884  67.526  1.00  0.00    -0.322 C  
HETATM   20  O   UNL     1      -7.867  20.732  66.418  1.00  0.00    -0.520 OA 
HETATM   21  H   UNL     1      -7.426  21.522  66.708  1.00  0.00     0.000 HD 
ENDBRANCH  13  19
ENDBRANCH   8  11
ENDBRANCH   7   8
ENDBRANCH   3   7
TORSDOF 4
ENDMDL
MODEL      116
REMARK 921   NORMALIZED FREE ENERGY PREDICTED BY IDOCK:   -4.14 KCAL/MOL
REMARK 922        TOTAL FREE ENERGY PREDICTED BY IDOCK:   -5.82 KCAL/MOL
REMARK 923 INTER-LIGAND FREE ENERGY PREDICTED BY IDOCK:   -5.34 KCAL/MOL
REMARK 924 INTRA-LIGAND FREE ENERGY PREDICTED BY IDOCK:   -0.48 KCAL/MOL
REMARK 927      BINDING AFFINITY PREDICTED BY RF-SCORE:    0.00 PKD
ROOT
HETATM    1  C   UNL     1      -9.584  10.787  68.344  1.00  0.00    -0.177 C  
HETATM    2  C   UNL     1     -10.844  11.494  67.818  1.00  0.00    -0.221 C  
HETATM    3  N   UNL     1     -12.036  11.125  68.608  1.00  0.00    -0.679 NA 
HETATM    4  C   UNL     1     -10.619  13.012  67.762  1.00  0.00    -0.235 C  
HETATM    5  C   UNL     1     -11.116  10.996  66.384  1.00  0.00    -0.137 C  
HETATM    6  H   UNL     1     -12.832  10.644  68.191  1.00  0.00     0.000 HD 
ENDROOT
BRANCH   3   7
HETATM    7  C   UNL     1     -12.008  11.493  70.036  1.00  0.00    -0.357 C  
BRANCH   7   8
HETATM    8  C   UNL     1     -12.839  10.567  70.977  1.00  0.00    -0.407 C  
HETATM    9  H   UNL     1     -13.683  10.780  72.708  1.00  0.00     0.000 HD 
HETATM   10  O   UNL     1     -13.177  11.344  72.136  1.00  0.00    -0.490 OA 
BRANCH   8  11
HETATM   11  C   UNL     1     -12.166   9.257  71.378  1.00  0.00    -0.426 A  
HETATM   12  C   UNL     1     -10.765   9.146  71.342  1.00  0.00    -0.414 A  
HETATM   13  C   UNL     1     -10.092   7.975  71.736  1.00  0.00    -0.249 A  
HETATM   14  C   UNL     1     -10.865   6.855  72.057  1.00  0.00    -0.225 A  
HETATM   15  H   UNL     1     -10.827   4.891  72.598  1.00  0.00     0.000 HD 
HETATM   16  C   UNL     1     -12.251   6.920  72.061  1.00  0.00    -0.318 A  
HETATM   17  O   UNL     1     -10.302   5.652  72.380  1.00  0.00    -0.191 OA 
HETATM   18  C   UNL     1     -12.899   8.120  71.753  1.00  0.00    -0.355 A  
BRANCH  13  19
HETATM   19  C   UNL     1      -8.587   7.970  71.742  1.00  0.00    -0.133 C  
HETATM   20  O   UNL     1      -8.079   9.281  71.499  1.00  0.00    -0.330 OA 
HETATM   21  H   UNL     1      -7.129   9.278  71.502  1.00  0.00     0.000 HD 
ENDBRANCH  13  19
ENDBRANCH   8  11
ENDBRANCH   7   8
ENDBRANCH   3   7
TORSDOF 4
ENDMDL
MODEL      117
REMARK 921   NORMALIZED FREE ENERGY PREDICTED BY IDOCK:   -4.13 KCAL/MOL
REMARK 922        TOTAL FREE ENERGY PREDICTED BY IDOCK:   -5.80 KCAL/MOL
REMARK 923 INTER-LIGAND FREE ENERGY PREDICTED BY IDOCK:   -5.46 KCAL/MOL
REMARK 924 INTRA-LIGAND FREE ENERGY PREDICTED BY IDOCK:   -0.34 KCAL/MOL
REMARK 927      BINDING AFFINITY PREDICTED BY RF-SCORE:    0.00 PKD
ROOT
HETATM    1  C   UNL     1      -9.470  10.877  68.370  1.00  0.00    -0.178 C  
HETATM    2  C   UNL     1     -10.823  11.293  67.769  1.00  0.00    -0.235 C  
HETATM    3  N   UNL     1     -11.948  10.689  68.512  1.00  0.00    -0.794 NA 
HETATM    4  C   UNL     1     -10.922  12.823  67.688  1.00  0.00    -0.274 C  
HETATM    5  C   UNL     1     -10.910  10.729  66.336  1.00  0.00    -0.172 C  
HETATM    6  H   UNL     1     -12.602  10.043  68.069  1.00  0.00     0.000 HD 
ENDROOT
BRANCH   3   7
HETATM    7  C   UNL     1     -12.071  11.073  69.930  1.00  0.00    -0.361 C  
BRANCH   7   8
HETATM    8  C   UNL     1     -12.530   9.932  70.890  1.00  0.00    -0.307 C  
HETATM    9  H   UNL     1     -13.490   9.864  72.572  1.00  0.00     0.000 HD 
HETATM   10  O   UNL     1     -13.211  10.559  71.987  1.00  0.00    -0.464 OA 
BRANCH   8  11
HETATM   11  C   UNL     1     -11.426   9.006  71.391  1.00  0.00    -0.400 A  
HETATM   12  C   UNL     1     -11.757   7.783  72.003  1.00  0.00    -0.349 A  
HETATM   13  C   UNL     1     -10.778   6.876  72.450  1.00  0.00    -0.257 A  
HETATM   14  C   UNL     1      -9.440   7.275  72.383  1.00  0.00    -0.149 A  
HETATM   15  H   UNL     1      -7.514   6.765  72.813  1.00  0.00     0.000 HD 
HETATM   16  C   UNL     1      -9.083   8.493  71.823  1.00  0.00    -0.304 A  
HETATM   17  O   UNL     1      -8.424   6.494  72.859  1.00  0.00    -0.120 OA 
HETATM   18  C   UNL     1     -10.066   9.342  71.303  1.00  0.00    -0.361 A  
BRANCH  13  19
HETATM   19  C   UNL     1     -11.220   5.556  73.021  1.00  0.00    -0.293 C  
HETATM   20  O   UNL     1     -12.626   5.380  72.852  1.00  0.00    -0.446 OA 
HETATM   21  H   UNL     1     -12.905   4.547  73.213  1.00  0.00     0.000 HD 
ENDBRANCH  13  19
ENDBRANCH   8  11
ENDBRANCH   7   8
ENDBRANCH   3   7
TORSDOF 4
ENDMDL
MODEL      118
REMARK 921   NORMALIZED FREE ENERGY PREDICTED BY IDOCK:   -4.12 KCAL/MOL
REMARK 922        TOTAL FREE ENERGY PREDICTED BY IDOCK:   -5.80 KCAL/MOL
REMARK 923 INTER-LIGAND FREE ENERGY PREDICTED BY IDOCK:   -5.67 KCAL/MOL
REMARK 924 INTRA-LIGAND FREE ENERGY PREDICTED BY IDOCK:   -0.13 KCAL/MOL
REMARK 927      BINDING AFFINITY PREDICTED BY RF-SCORE:    0.00 PKD
ROOT
HETATM    1  C   UNL     1     -11.484  15.037  72.321  1.00  0.00    -0.304 C  
HETATM    2  C   UNL     1     -13.014  15.035  72.164  1.00  0.00    -0.342 C  
HETATM    3  N   UNL     1     -13.414  15.465  70.808  1.00  0.00    -0.760 NA 
HETATM    4  C   UNL     1     -13.587  13.662  72.543  1.00  0.00    -0.675 C  
HETATM    5  C   UNL     1     -13.600  16.085  73.131  1.00  0.00    -0.517 C  
HETATM    6  H   UNL     1     -13.975  16.302  70.651  1.00  0.00     0.000 HD 
ENDROOT
BRANCH   3   7
HETATM    7  C   UNL     1     -12.955  14.612  69.695  1.00  0.00     0.421 C  
BRANCH   7   8
HETATM    8  C   UNL     1     -11.601  15.038  69.048  1.00  0.00    -0.319 C  
HETATM    9  H   UNL     1     -10.909  16.677  68.280  1.00  0.00     0.000 HD 
HETATM   10  O   UNL     1     -11.733  16.418  68.675  1.00  0.00    -0.255 OA 
BRANCH   8  11
HETATM   11  C   UNL     1     -11.141  14.195  67.862  1.00  0.00    -0.285 A  
HETATM   12  C   UNL     1     -11.094  12.794  67.971  1.00  0.00    -0.284 A  
HETATM   13  C   UNL     1     -10.713  11.968  66.897  1.00  0.00    -0.282 A  
HETATM   14  C   UNL     1     -10.256  12.585  65.729  1.00  0.00    -0.270 A  
HETATM   15  H   UNL     1      -9.486  12.287  63.866  1.00  0.00     0.000 HD 
HETATM   16  C   UNL     1     -10.251  13.967  65.605  1.00  0.00    -0.351 A  
HETATM   17  O   UNL     1      -9.796  11.868  64.660  1.00  0.00    -0.245 OA 
HETATM   18  C   UNL     1     -10.718  14.768  66.652  1.00  0.00    -0.309 A  
BRANCH  13  19
HETATM   19  C   UNL     1     -10.767  10.475  67.077  1.00  0.00    -0.250 C  
HETATM   20  O   UNL     1     -11.573  10.132  68.203  1.00  0.00    -0.641 OA 
HETATM   21  H   UNL     1     -11.607   9.190  68.317  1.00  0.00     0.000 HD 
ENDBRANCH  13  19
ENDBRANCH   8  11
ENDBRANCH   7   8
ENDBRANCH   3   7
TORSDOF 4
ENDMDL
MODEL      119
REMARK 921   NORMALIZED FREE ENERGY PREDICTED BY IDOCK:   -4.10 KCAL/MOL
REMARK 922        TOTAL FREE ENERGY PREDICTED BY IDOCK:   -5.76 KCAL/MOL
REMARK 923 INTER-LIGAND FREE ENERGY PREDICTED BY IDOCK:   -5.28 KCAL/MOL
REMARK 924 INTRA-LIGAND FREE ENERGY PREDICTED BY IDOCK:   -0.49 KCAL/MOL
REMARK 927      BINDING AFFINITY PREDICTED BY RF-SCORE:    0.00 PKD
ROOT
HETATM    1  C   UNL     1      -9.634  11.811  66.994  1.00  0.00    -0.196 C  
HETATM    2  C   UNL     1     -10.984  12.362  67.481  1.00  0.00    -0.252 C  
HETATM    3  N   UNL     1     -10.797  13.424  68.491  1.00  0.00    -0.257 NA 
HETATM    4  C   UNL     1     -11.833  12.825  66.288  1.00  0.00    -0.485 C  
HETATM    5  C   UNL     1     -11.741  11.225  68.197  1.00  0.00    -0.323 C  
HETATM    6  H   UNL     1     -11.144  13.328  69.445  1.00  0.00     0.000 HD 
ENDROOT
BRANCH   3   7
HETATM    7  C   UNL     1     -10.078  14.630  68.040  1.00  0.00    -0.227 C  
BRANCH   7   8
HETATM    8  C   UNL     1     -10.434  15.941  68.807  1.00  0.00    -0.237 C  
HETATM    9  H   UNL     1     -12.077  16.887  69.205  1.00  0.00     0.000 HD 
HETATM   10  O   UNL     1     -11.860  16.089  68.738  1.00  0.00    -0.375 OA 
BRANCH   8  11
HETATM   11  C   UNL     1      -9.731  17.204  68.319  1.00  0.00    -0.280 A  
HETATM   12  C   UNL     1      -8.619  17.105  67.464  1.00  0.00    -0.209 A  
HETATM   13  C   UNL     1      -7.957  18.238  66.955  1.00  0.00    -0.237 A  
HETATM   14  C   UNL     1      -8.359  19.493  67.422  1.00  0.00    -0.294 A  
HETATM   15  H   UNL     1      -8.003  21.499  67.359  1.00  0.00     0.000 HD 
HETATM   16  C   UNL     1      -9.427  19.622  68.299  1.00  0.00    -0.453 A  
HETATM   17  O   UNL     1      -7.730  20.646  67.042  1.00  0.00    -0.313 OA 
HETATM   18  C   UNL     1     -10.129  18.489  68.723  1.00  0.00    -0.394 A  
BRANCH  13  19
HETATM   19  C   UNL     1      -6.825  18.041  65.983  1.00  0.00    -0.297 C  
HETATM   20  O   UNL     1      -6.881  19.015  64.943  1.00  0.00    -0.446 OA 
HETATM   21  H   UNL     1      -6.167  18.891  64.329  1.00  0.00     0.000 HD 
ENDBRANCH  13  19
ENDBRANCH   8  11
ENDBRANCH   7   8
ENDBRANCH   3   7
TORSDOF 4
ENDMDL
MODEL      120
REMARK 921   NORMALIZED FREE ENERGY PREDICTED BY IDOCK:   -4.10 KCAL/MOL
REMARK 922        TOTAL FREE ENERGY PREDICTED BY IDOCK:   -5.76 KCAL/MOL
REMARK 923 INTER-LIGAND FREE ENERGY PREDICTED BY IDOCK:   -5.84 KCAL/MOL
REMARK 924 INTRA-LIGAND FREE ENERGY PREDICTED BY IDOCK:    0.08 KCAL/MOL
REMARK 927      BINDING AFFINITY PREDICTED BY RF-SCORE:    0.00 PKD
ROOT
HETATM    1  C   UNL     1     -12.579  14.765  73.273  1.00  0.00    -0.554 C  
HETATM    2  C   UNL     1     -12.823  14.743  71.755  1.00  0.00    -0.325 C  
HETATM    3  N   UNL     1     -12.335  13.486  71.152  1.00  0.00    -0.371 NA 
HETATM    4  C   UNL     1     -14.303  15.011  71.449  1.00  0.00    -0.594 C  
HETATM    5  C   UNL     1     -11.988  15.871  71.115  1.00  0.00    -0.472 C  
HETATM    6  H   UNL     1     -11.593  13.475  70.452  1.00  0.00     0.000 HD 
ENDROOT
BRANCH   3   7
HETATM    7  C   UNL     1     -12.984  12.247  71.620  1.00  0.00    -0.311 C  
BRANCH   7   8
HETATM    8  C   UNL     1     -12.811  11.012  70.682  1.00  0.00    -0.220 C  
HETATM    9  H   UNL     1     -12.037   9.247  70.876  1.00  0.00     0.000 HD 
HETATM   10  O   UNL     1     -12.142   9.998  71.447  1.00  0.00    -0.367 OA 
BRANCH   8  11
HETATM   11  C   UNL     1     -12.079  11.276  69.370  1.00  0.00    -0.384 A  
HETATM   12  C   UNL     1     -12.387  12.418  68.610  1.00  0.00     0.296 A  
HETATM   13  C   UNL     1     -11.717  12.728  67.412  1.00  0.00    -0.425 A  
HETATM   14  C   UNL     1     -10.802  11.795  66.915  1.00  0.00    -0.271 A  
HETATM   15  H   UNL     1      -9.534  11.339  65.386  1.00  0.00     0.000 HD 
HETATM   16  C   UNL     1     -10.507  10.637  67.621  1.00  0.00    -0.267 A  
HETATM   17  O   UNL     1     -10.156  11.973  65.724  1.00  0.00    -0.227 OA 
HETATM   18  C   UNL     1     -11.118  10.391  68.855  1.00  0.00    -0.296 A  
BRANCH  13  19
HETATM   19  C   UNL     1     -12.055  14.012  66.704  1.00  0.00    -0.456 C  
HETATM   20  O   UNL     1     -12.801  13.751  65.517  1.00  0.00    -0.596 OA 
HETATM   21  H   UNL     1     -13.015  14.561  65.069  1.00  0.00     0.000 HD 
ENDBRANCH  13  19
ENDBRANCH   8  11
ENDBRANCH   7   8
ENDBRANCH   3   7
TORSDOF 4
ENDMDL
MODEL      121
REMARK 921   NORMALIZED FREE ENERGY PREDICTED BY IDOCK:   -4.09 KCAL/MOL
REMARK 922        TOTAL FREE ENERGY PREDICTED BY IDOCK:   -5.75 KCAL/MOL
REMARK 923 INTER-LIGAND FREE ENERGY PREDICTED BY IDOCK:   -5.23 KCAL/MOL
REMARK 924 INTRA-LIGAND FREE ENERGY PREDICTED BY IDOCK:   -0.52 KCAL/MOL
REMARK 927      BINDING AFFINITY PREDICTED BY RF-SCORE:    0.00 PKD
ROOT
HETATM    1  C   UNL     1      -7.363  17.705  68.707  1.00  0.00    -0.261 C  
HETATM    2  C   UNL     1      -7.881  18.453  67.468  1.00  0.00    -0.231 C  
HETATM    3  N   UNL     1      -9.195  17.932  67.038  1.00  0.00    -0.254 NA 
HETATM    4  C   UNL     1      -7.902  19.966  67.729  1.00  0.00    -0.329 C  
HETATM    5  C   UNL     1      -6.914  18.180  66.298  1.00  0.00    -0.290 C  
HETATM    6  H   UNL     1      -9.331  17.502  66.123  1.00  0.00     0.000 HD 
ENDROOT
BRANCH   3   7
HETATM    7  C   UNL     1     -10.298  18.071  68.007  1.00  0.00    -0.387 C  
BRANCH   7   8
HETATM    8  C   UNL     1     -11.105  16.765  68.285  1.00  0.00    -0.259 C  
HETATM    9  H   UNL     1     -11.649  15.808  69.880  1.00  0.00     0.000 HD 
HETATM   10  O   UNL     1     -11.157  16.603  69.711  1.00  0.00    -0.295 OA 
BRANCH   8  11
HETATM   11  C   UNL     1     -10.574  15.503  67.612  1.00  0.00    -0.291 A  
HETATM   12  C   UNL     1     -11.075  15.110  66.359  1.00  0.00    -0.312 A  
HETATM   13  C   UNL     1     -10.594  13.976  65.678  1.00  0.00    -0.313 A  
HETATM   14  C   UNL     1      -9.672  13.159  66.340  1.00  0.00    -0.269 A  
HETATM   15  H   UNL     1      -8.577  11.444  66.240  1.00  0.00     0.000 HD 
HETATM   16  C   UNL     1      -9.190  13.498  67.596  1.00  0.00    -0.214 A  
HETATM   17  O   UNL     1      -9.203  11.999  65.791  1.00  0.00    -0.178 OA 
HETATM   18  C   UNL     1      -9.614  14.677  68.217  1.00  0.00    -0.208 A  
BRANCH  13  19
HETATM   19  C   UNL     1     -11.131  13.673  64.305  1.00  0.00    -0.315 C  
HETATM   20  O   UNL     1     -12.130  14.622  63.935  1.00  0.00    -0.823 OA 
HETATM   21  H   UNL     1     -12.469  14.431  63.068  1.00  0.00     0.000 HD 
ENDBRANCH  13  19
ENDBRANCH   8  11
ENDBRANCH   7   8
ENDBRANCH   3   7
TORSDOF 4
ENDMDL
MODEL      122
REMARK 921   NORMALIZED FREE ENERGY PREDICTED BY IDOCK:   -4.07 KCAL/MOL
REMARK 922        TOTAL FREE ENERGY PREDICTED BY IDOCK:   -5.74 KCAL/MOL
REMARK 923 INTER-LIGAND FREE ENERGY PREDICTED BY IDOCK:   -5.13 KCAL/MOL
REMARK 924 INTRA-LIGAND FREE ENERGY PREDICTED BY IDOCK:   -0.61 KCAL/MOL
REMARK 927      BINDING AFFINITY PREDICTED BY RF-SCORE:    0.00 PKD
ROOT
HETATM    1  C   UNL     1      -8.103  12.133  68.771  1.00  0.00     0.033 C  
HETATM    2  C   UNL     1      -6.981  13.177  68.648  1.00  0.00    -0.102 C  
HETATM    3  N   UNL     1      -7.529  14.535  68.454  1.00  0.00    -0.108 NA 
HETATM    4  C   UNL     1      -6.035  13.087  69.854  1.00  0.00    -0.136 C  
HETATM    5  C   UNL     1      -6.167  12.864  67.375  1.00  0.00    -0.109 C  
HETATM    6  H   UNL     1      -7.341  15.078  67.612  1.00  0.00     0.000 HD 
ENDROOT
BRANCH   3   7
HETATM    7  C   UNL     1      -8.365  15.059  69.551  1.00  0.00    -0.092 C  
BRANCH   7   8
HETATM    8  C   UNL     1      -9.816  15.463  69.144  1.00  0.00    -0.247 C  
HETATM    9  H   UNL     1     -10.721  17.139  68.792  1.00  0.00     0.000 HD 
HETATM   10  O   UNL     1      -9.837  16.894  69.039  1.00  0.00    -0.259 OA 
BRANCH   8  11
HETATM   11  C   UNL     1     -10.924  14.969  70.071  1.00  0.00    -0.268 A  
HETATM   12  C   UNL     1     -11.191  15.649  71.273  1.00  0.00    -0.393 A  
HETATM   13  C   UNL     1     -12.223  15.258  72.145  1.00  0.00    -0.457 A  
HETATM   14  C   UNL     1     -12.918  14.081  71.849  1.00  0.00    -0.360 A  
HETATM   15  H   UNL     1     -14.359  12.783  72.472  1.00  0.00     0.000 HD 
HETATM   16  C   UNL     1     -12.649  13.365  70.692  1.00  0.00    -0.325 A  
HETATM   17  O   UNL     1     -13.887  13.582  72.673  1.00  0.00    -0.724 OA 
HETATM   18  C   UNL     1     -11.680  13.820  69.792  1.00  0.00    -0.367 A  
BRANCH  13  19
HETATM   19  C   UNL     1     -12.490  16.090  73.371  1.00  0.00    -0.558 C  
HETATM   20  O   UNL     1     -12.336  15.307  74.553  1.00  0.00    -0.655 OA 
HETATM   21  H   UNL     1     -12.505  15.831  75.327  1.00  0.00     0.000 HD 
ENDBRANCH  13  19
ENDBRANCH   8  11
ENDBRANCH   7   8
ENDBRANCH   3   7
TORSDOF 4
ENDMDL
MODEL      123
REMARK 921   NORMALIZED FREE ENERGY PREDICTED BY IDOCK:   -4.07 KCAL/MOL
REMARK 922        TOTAL FREE ENERGY PREDICTED BY IDOCK:   -5.72 KCAL/MOL
REMARK 923 INTER-LIGAND FREE ENERGY PREDICTED BY IDOCK:   -5.40 KCAL/MOL
REMARK 924 INTRA-LIGAND FREE ENERGY PREDICTED BY IDOCK:   -0.32 KCAL/MOL
REMARK 927      BINDING AFFINITY PREDICTED BY RF-SCORE:    0.00 PKD
ROOT
HETATM    1  C   UNL     1      -7.592  10.083  65.334  1.00  0.00    -0.138 C  
HETATM    2  C   UNL     1      -8.500   9.772  66.535  1.00  0.00    -0.124 C  
HETATM    3  N   UNL     1      -8.952  11.010  67.201  1.00  0.00    -0.142 NA 
HETATM    4  C   UNL     1      -9.668   8.874  66.101  1.00  0.00    -0.338 C  
HETATM    5  C   UNL     1      -7.669   9.005  67.584  1.00  0.00    -0.097 C  
HETATM    6  H   UNL     1      -8.714  11.219  68.170  1.00  0.00     0.000 HD 
ENDROOT
BRANCH   3   7
HETATM    7  C   UNL     1      -9.769  11.926  66.383  1.00  0.00    -0.221 C  
BRANCH   7   8
HETATM    8  C   UNL     1     -11.298  11.910  66.695  1.00  0.00    -0.337 C  
HETATM    9  H   UNL     1     -12.860  12.748  65.914  1.00  0.00     0.000 HD 
HETATM   10  O   UNL     1     -11.930  12.758  65.724  1.00  0.00    -0.409 OA 
BRANCH   8  11
HETATM   11  C   UNL     1     -11.689  12.320  68.112  1.00  0.00    -0.408 A  
HETATM   12  C   UNL     1     -11.931  11.336  69.087  1.00  0.00    -0.405 A  
HETATM   13  C   UNL     1     -12.258  11.659  70.417  1.00  0.00    -0.434 A  
HETATM   14  C   UNL     1     -12.461  13.006  70.730  1.00  0.00    -0.302 A  
HETATM   15  H   UNL     1     -12.990  14.328  72.189  1.00  0.00     0.000 HD 
HETATM   16  C   UNL     1     -12.271  13.998  69.779  1.00  0.00    -0.396 A  
HETATM   17  O   UNL     1     -12.852  13.412  71.976  1.00  0.00    -0.290 OA 
HETATM   18  C   UNL     1     -11.859  13.662  68.486  1.00  0.00    -0.406 A  
BRANCH  13  19
HETATM   19  C   UNL     1     -12.422  10.544  71.415  1.00  0.00    -0.411 C  
HETATM   20  O   UNL     1     -13.068   9.423  70.814  1.00  0.00    -0.543 OA 
HETATM   21  H   UNL     1     -13.173   8.719  71.443  1.00  0.00     0.000 HD 
ENDBRANCH  13  19
ENDBRANCH   8  11
ENDBRANCH   7   8
ENDBRANCH   3   7
TORSDOF 4
ENDMDL
MODEL      124
REMARK 921   NORMALIZED FREE ENERGY PREDICTED BY IDOCK:   -4.06 KCAL/MOL
REMARK 922        TOTAL FREE ENERGY PREDICTED BY IDOCK:   -5.72 KCAL/MOL
REMARK 923 INTER-LIGAND FREE ENERGY PREDICTED BY IDOCK:   -5.24 KCAL/MOL
REMARK 924 INTRA-LIGAND FREE ENERGY PREDICTED BY IDOCK:   -0.48 KCAL/MOL
REMARK 927      BINDING AFFINITY PREDICTED BY RF-SCORE:    0.00 PKD
ROOT
HETATM    1  C   UNL     1     -10.661   8.703  72.187  1.00  0.00    -0.411 C  
HETATM    2  C   UNL     1     -10.547   8.673  70.653  1.00  0.00    -0.211 C  
HETATM    3  N   UNL     1     -11.700   9.345  70.017  1.00  0.00    -0.456 NA 
HETATM    4  C   UNL     1      -9.201   9.260  70.207  1.00  0.00    -0.273 C  
HETATM    5  C   UNL     1     -10.607   7.203  70.192  1.00  0.00    -0.247 C  
HETATM    6  H   UNL     1     -12.344   8.846  69.404  1.00  0.00     0.000 HD 
ENDROOT
BRANCH   3   7
HETATM    7  C   UNL     1     -11.863  10.779  70.321  1.00  0.00    -0.349 C  
BRANCH   7   8
HETATM    8  C   UNL     1     -12.030  11.706  69.076  1.00  0.00    -0.305 C  
HETATM    9  H   UNL     1     -12.134  11.419  67.163  1.00  0.00     0.000 HD 
HETATM   10  O   UNL     1     -12.033  10.855  67.920  1.00  0.00    -0.585 OA 
BRANCH   8  11
HETATM   11  C   UNL     1     -10.991  12.814  68.934  1.00  0.00    -0.275 A  
HETATM   12  C   UNL     1     -11.288  14.118  69.370  1.00  0.00    -0.318 A  
HETATM   13  C   UNL     1     -10.355  15.168  69.295  1.00  0.00    -0.258 A  
HETATM   14  C   UNL     1      -9.138  14.915  68.654  1.00  0.00    -0.185 A  
HETATM   15  H   UNL     1      -7.371  15.719  68.032  1.00  0.00     0.000 HD 
HETATM   16  C   UNL     1      -8.831  13.650  68.175  1.00  0.00    -0.189 A  
HETATM   17  O   UNL     1      -8.198  15.890  68.468  1.00  0.00    -0.154 OA 
HETATM   18  C   UNL     1      -9.738  12.598  68.339  1.00  0.00    -0.187 A  
BRANCH  13  19
HETATM   19  C   UNL     1     -10.729  16.513  69.858  1.00  0.00    -0.269 C  
HETATM   20  O   UNL     1     -11.675  16.369  70.916  1.00  0.00    -0.573 OA 
HETATM   21  H   UNL     1     -11.912  17.218  71.271  1.00  0.00     0.000 HD 
ENDBRANCH  13  19
ENDBRANCH   8  11
ENDBRANCH   7   8
ENDBRANCH   3   7
TORSDOF 4
ENDMDL
MODEL      125
REMARK 921   NORMALIZED FREE ENERGY PREDICTED BY IDOCK:   -4.05 KCAL/MOL
REMARK 922        TOTAL FREE ENERGY PREDICTED BY IDOCK:   -5.71 KCAL/MOL
REMARK 923 INTER-LIGAND FREE ENERGY PREDICTED BY IDOCK:   -4.93 KCAL/MOL
REMARK 924 INTRA-LIGAND FREE ENERGY PREDICTED BY IDOCK:   -0.78 KCAL/MOL
REMARK 927      BINDING AFFINITY PREDICTED BY RF-SCORE:    0.00 PKD
ROOT
HETATM    1  C   UNL     1      -9.759   9.517  65.390  1.00  0.00    -0.314 C  
HETATM    2  C   UNL     1      -9.368   8.537  66.508  1.00  0.00    -0.203 C  
HETATM    3  N   UNL     1      -8.688   9.235  67.619  1.00  0.00    -0.116 NA 
HETATM    4  C   UNL     1     -10.595   7.740  66.973  1.00  0.00    -0.396 C  
HETATM    5  C   UNL     1      -8.335   7.541  65.939  1.00  0.00    -0.140 C  
HETATM    6  H   UNL     1      -7.727   9.021  67.883  1.00  0.00     0.000 HD 
ENDROOT
BRANCH   3   7
HETATM    7  C   UNL     1      -9.482  10.258  68.325  1.00  0.00    -0.142 C  
BRANCH   7   8
HETATM    8  C   UNL     1      -9.421  10.188  69.882  1.00  0.00    -0.107 C  
HETATM    9  H   UNL     1      -8.006   9.960  71.186  1.00  0.00     0.000 HD 
HETATM   10  O   UNL     1      -8.043  10.003  70.237  1.00  0.00    -0.162 OA 
BRANCH   8  11
HETATM   11  C   UNL     1     -10.299   9.122  70.531  1.00  0.00    -0.288 A  
HETATM   12  C   UNL     1     -11.599   9.446  70.961  1.00  0.00    -0.400 A  
HETATM   13  C   UNL     1     -12.462   8.493  71.531  1.00  0.00    -0.353 A  
HETATM   14  C   UNL     1     -11.951   7.215  71.780  1.00  0.00    -0.313 A  
HETATM   15  H   UNL     1     -12.343   5.376  72.565  1.00  0.00     0.000 HD 
HETATM   16  C   UNL     1     -10.659   6.876  71.406  1.00  0.00    -0.242 A  
HETATM   17  O   UNL     1     -12.690   6.244  72.397  1.00  0.00    -0.088 OA 
HETATM   18  C   UNL     1      -9.846   7.813  70.759  1.00  0.00    -0.183 A  
BRANCH  13  19
HETATM   19  C   UNL     1     -13.863   8.907  71.890  1.00  0.00    -0.440 C  
HETATM   20  O   UNL     1     -14.121   8.664  73.272  1.00  0.00    -1.041 OA 
HETATM   21  H   UNL     1     -15.006   8.925  73.499  1.00  0.00     0.000 HD 
ENDBRANCH  13  19
ENDBRANCH   8  11
ENDBRANCH   7   8
ENDBRANCH   3   7
TORSDOF 4
ENDMDL
MODEL      126
REMARK 921   NORMALIZED FREE ENERGY PREDICTED BY IDOCK:   -4.00 KCAL/MOL
REMARK 922        TOTAL FREE ENERGY PREDICTED BY IDOCK:   -5.65 KCAL/MOL
REMARK 923 INTER-LIGAND FREE ENERGY PREDICTED BY IDOCK:   -5.02 KCAL/MOL
REMARK 924 INTRA-LIGAND FREE ENERGY PREDICTED BY IDOCK:   -0.63 KCAL/MOL
REMARK 927      BINDING AFFINITY PREDICTED BY RF-SCORE:    0.00 PKD
ROOT
HETATM    1  C   UNL     1      -8.495  11.146  67.060  1.00  0.00    -0.146 C  
HETATM    2  C   UNL     1      -8.655   9.617  67.025  1.00  0.00    -0.128 C  
HETATM    3  N   UNL     1      -9.305   9.118  68.255  1.00  0.00    -0.135 NA 
HETATM    4  C   UNL     1      -9.395   9.188  65.750  1.00  0.00    -0.309 C  
HETATM    5  C   UNL     1      -7.249   8.984  67.002  1.00  0.00    -0.086 C  
HETATM    6  H   UNL     1      -8.832   8.477  68.893  1.00  0.00     0.000 HD 
ENDROOT
BRANCH   3   7
HETATM    7  C   UNL     1     -10.675   9.600  68.507  1.00  0.00    -0.200 C  
BRANCH   7   8
HETATM    8  C   UNL     1     -10.948  10.096  69.961  1.00  0.00    -0.307 C  
HETATM    9  H   UNL     1     -12.028   9.464  71.440  1.00  0.00     0.000 HD 
HETATM   10  O   UNL     1     -11.862   9.162  70.555  1.00  0.00    -0.218 OA 
BRANCH   8  11
HETATM   11  C   UNL     1     -11.472  11.524  70.086  1.00  0.00    -0.258 A  
HETATM   12  C   UNL     1     -12.439  11.836  71.057  1.00  0.00    -0.411 A  
HETATM   13  C   UNL     1     -12.929  13.143  71.239  1.00  0.00    -0.339 A  
HETATM   14  C   UNL     1     -12.515  14.127  70.335  1.00  0.00    -0.357 A  
HETATM   15  H   UNL     1     -12.710  16.075  69.771  1.00  0.00     0.000 HD 
HETATM   16  C   UNL     1     -11.593  13.840  69.339  1.00  0.00    -0.365 A  
HETATM   17  O   UNL     1     -12.991  15.407  70.385  1.00  0.00    -0.367 OA 
HETATM   18  C   UNL     1     -11.051  12.555  69.232  1.00  0.00    -0.203 A  
BRANCH  13  19
HETATM   19  C   UNL     1     -13.905  13.403  72.354  1.00  0.00    -0.564 C  
HETATM   20  O   UNL     1     -13.443  14.464  73.189  1.00  0.00    -0.625 OA 
HETATM   21  H   UNL     1     -14.059  14.629  73.893  1.00  0.00     0.000 HD 
ENDBRANCH  13  19
ENDBRANCH   8  11
ENDBRANCH   7   8
ENDBRANCH   3   7
TORSDOF 4
ENDMDL
MODEL      127
REMARK 921   NORMALIZED FREE ENERGY PREDICTED BY IDOCK:   -3.99 KCAL/MOL
REMARK 922        TOTAL FREE ENERGY PREDICTED BY IDOCK:   -5.63 KCAL/MOL
REMARK 923 INTER-LIGAND FREE ENERGY PREDICTED BY IDOCK:   -5.21 KCAL/MOL
REMARK 924 INTRA-LIGAND FREE ENERGY PREDICTED BY IDOCK:   -0.42 KCAL/MOL
REMARK 927      BINDING AFFINITY PREDICTED BY RF-SCORE:    0.00 PKD
ROOT
HETATM    1  C   UNL     1     -10.462  14.337  64.782  1.00  0.00    -0.421 C  
HETATM    2  C   UNL     1     -11.441  13.352  65.440  1.00  0.00    -0.302 C  
HETATM    3  N   UNL     1     -11.256  13.311  66.906  1.00  0.00    -0.296 NA 
HETATM    4  C   UNL     1     -12.885  13.684  65.036  1.00  0.00    -0.325 C  
HETATM    5  C   UNL     1     -11.115  11.932  64.933  1.00  0.00    -0.363 C  
HETATM    6  H   UNL     1     -10.974  12.459  67.390  1.00  0.00     0.000 HD 
ENDROOT
BRANCH   3   7
HETATM    7  C   UNL     1     -11.504  14.573  67.627  1.00  0.00    -0.353 C  
BRANCH   7   8
HETATM    8  C   UNL     1     -10.284  15.134  68.422  1.00  0.00    -0.221 C  
HETATM    9  H   UNL     1      -9.804  15.233  70.296  1.00  0.00     0.000 HD 
HETATM   10  O   UNL     1     -10.546  14.891  69.812  1.00  0.00    -0.233 OA 
BRANCH   8  11
HETATM   11  C   UNL     1      -9.956  16.604  68.178  1.00  0.00    -0.259 A  
HETATM   12  C   UNL     1      -8.695  17.112  68.540  1.00  0.00    -0.261 A  
HETATM   13  C   UNL     1      -8.328  18.450  68.304  1.00  0.00    -0.321 A  
HETATM   14  C   UNL     1      -9.304  19.316  67.802  1.00  0.00    -0.312 A  
HETATM   15  H   UNL     1      -9.726  21.237  67.267  1.00  0.00     0.000 HD 
HETATM   16  C   UNL     1     -10.570  18.854  67.474  1.00  0.00    -0.524 A  
HETATM   17  O   UNL     1      -9.063  20.648  67.609  1.00  0.00    -0.270 OA 
HETATM   18  C   UNL     1     -10.887  17.501  67.633  1.00  0.00    -0.229 A  
BRANCH  13  19
HETATM   19  C   UNL     1      -6.931  18.890  68.651  1.00  0.00    -0.285 C  
HETATM   20  O   UNL     1      -6.237  17.857  69.349  1.00  0.00    -0.233 OA 
HETATM   21  H   UNL     1      -5.355  18.135  69.568  1.00  0.00     0.000 HD 
ENDBRANCH  13  19
ENDBRANCH   8  11
ENDBRANCH   7   8
ENDBRANCH   3   7
TORSDOF 4
ENDMDL
MODEL      128
REMARK 921   NORMALIZED FREE ENERGY PREDICTED BY IDOCK:   -3.99 KCAL/MOL
REMARK 922        TOTAL FREE ENERGY PREDICTED BY IDOCK:   -5.63 KCAL/MOL
REMARK 923 INTER-LIGAND FREE ENERGY PREDICTED BY IDOCK:   -4.86 KCAL/MOL
REMARK 924 INTRA-LIGAND FREE ENERGY PREDICTED BY IDOCK:   -0.76 KCAL/MOL
REMARK 927      BINDING AFFINITY PREDICTED BY RF-SCORE:    0.00 PKD
ROOT
HETATM    1  C   UNL     1      -8.116  15.666  67.326  1.00  0.00    -0.224 C  
HETATM    2  C   UNL     1      -8.366  14.585  68.390  1.00  0.00    -0.153 C  
HETATM    3  N   UNL     1      -9.706  14.728  68.996  1.00  0.00    -0.288 NA 
HETATM    4  C   UNL     1      -8.133  13.188  67.796  1.00  0.00    -0.165 C  
HETATM    5  C   UNL     1      -7.358  14.793  69.539  1.00  0.00    -0.148 C  
HETATM    6  H   UNL     1      -9.831  14.920  69.989  1.00  0.00     0.000 HD 
ENDROOT
BRANCH   3   7
HETATM    7  C   UNL     1     -10.852  14.578  68.080  1.00  0.00    -0.244 C  
BRANCH   7   8
HETATM    8  C   UNL     1     -12.004  13.664  68.602  1.00  0.00    -0.360 C  
HETATM    9  H   UNL     1     -13.137  13.657  70.173  1.00  0.00     0.000 HD 
HETATM   10  O   UNL     1     -12.436  14.214  69.855  1.00  0.00    -0.341 OA 
BRANCH   8  11
HETATM   11  C   UNL     1     -11.660  12.184  68.746  1.00  0.00    -0.380 A  
HETATM   12  C   UNL     1     -11.787  11.551  69.995  1.00  0.00    -0.435 A  
HETATM   13  C   UNL     1     -11.518  10.181  70.175  1.00  0.00    -0.368 A  
HETATM   14  C   UNL     1     -10.995   9.471  69.091  1.00  0.00    -0.125 A  
HETATM   15  H   UNL     1     -10.279   7.673  68.453  1.00  0.00     0.000 HD 
HETATM   16  C   UNL     1     -10.818  10.078  67.856  1.00  0.00    -0.323 A  
HETATM   17  O   UNL     1     -10.634   8.156  69.189  1.00  0.00    -0.219 OA 
HETATM   18  C   UNL     1     -11.176  11.418  67.674  1.00  0.00    -0.346 A  
BRANCH  13  19
HETATM   19  C   UNL     1     -11.756   9.568  71.529  1.00  0.00    -0.402 C  
HETATM   20  O   UNL     1     -10.567   8.948  72.016  1.00  0.00    -0.341 OA 
HETATM   21  H   UNL     1     -10.717   8.561  72.871  1.00  0.00     0.000 HD 
ENDBRANCH  13  19
ENDBRANCH   8  11
ENDBRANCH   7   8
ENDBRANCH   3   7
TORSDOF 4
ENDMDL
MODEL      129
REMARK 921   NORMALIZED FREE ENERGY PREDICTED BY IDOCK:   -3.98 KCAL/MOL
REMARK 922        TOTAL FREE ENERGY PREDICTED BY IDOCK:   -5.61 KCAL/MOL
REMARK 923 INTER-LIGAND FREE ENERGY PREDICTED BY IDOCK:   -5.12 KCAL/MOL
REMARK 924 INTRA-LIGAND FREE ENERGY PREDICTED BY IDOCK:   -0.49 KCAL/MOL
REMARK 927      BINDING AFFINITY PREDICTED BY RF-SCORE:    0.00 PKD
ROOT
HETATM    1  C   UNL     1     -10.669  10.468  67.486  1.00  0.00    -0.326 C  
HETATM    2  C   UNL     1     -10.441  11.194  68.822  1.00  0.00    -0.203 C  
HETATM    3  N   UNL     1      -9.739  12.478  68.622  1.00  0.00    -0.402 NA 
HETATM    4  C   UNL     1     -11.770  11.357  69.574  1.00  0.00    -0.417 C  
HETATM    5  C   UNL     1      -9.502  10.329  69.689  1.00  0.00    -0.180 C  
HETATM    6  H   UNL     1      -8.821  12.660  69.027  1.00  0.00     0.000 HD 
ENDROOT
BRANCH   3   7
HETATM    7  C   UNL     1     -10.445  13.483  67.804  1.00  0.00    -0.240 C  
BRANCH   7   8
HETATM    8  C   UNL     1      -9.522  14.492  67.051  1.00  0.00    -0.239 C  
HETATM    9  H   UNL     1      -7.617  14.619  66.724  1.00  0.00     0.000 HD 
HETATM   10  O   UNL     1      -8.178  14.005  67.182  1.00  0.00    -0.182 OA 
BRANCH   8  11
HETATM   11  C   UNL     1      -9.622  15.945  67.507  1.00  0.00    -0.221 A  
HETATM   12  C   UNL     1      -8.920  16.948  66.815  1.00  0.00    -0.264 A  
HETATM   13  C   UNL     1      -9.006  18.307  67.170  1.00  0.00    -0.264 A  
HETATM   14  C   UNL     1      -9.722  18.637  68.325  1.00  0.00    -0.357 A  
HETATM   15  H   UNL     1     -10.288  20.143  69.575  1.00  0.00     0.000 HD 
HETATM   16  C   UNL     1     -10.391  17.663  69.053  1.00  0.00    -0.272 A  
HETATM   17  O   UNL     1      -9.801  19.919  68.790  1.00  0.00    -0.379 OA 
HETATM   18  C   UNL     1     -10.367  16.330  68.632  1.00  0.00    -0.263 A  
BRANCH  13  19
HETATM   19  C   UNL     1      -8.284  19.324  66.327  1.00  0.00    -0.318 C  
HETATM   20  O   UNL     1      -9.151  20.407  65.993  1.00  0.00    -0.594 OA 
HETATM   21  H   UNL     1      -8.696  21.049  65.461  1.00  0.00     0.000 HD 
ENDBRANCH  13  19
ENDBRANCH   8  11
ENDBRANCH   7   8
ENDBRANCH   3   7
TORSDOF 4
ENDMDL
MODEL      130
REMARK 921   NORMALIZED FREE ENERGY PREDICTED BY IDOCK:   -3.97 KCAL/MOL
REMARK 922        TOTAL FREE ENERGY PREDICTED BY IDOCK:   -5.61 KCAL/MOL
REMARK 923 INTER-LIGAND FREE ENERGY PREDICTED BY IDOCK:   -5.23 KCAL/MOL
REMARK 924 INTRA-LIGAND FREE ENERGY PREDICTED BY IDOCK:   -0.38 KCAL/MOL
REMARK 927      BINDING AFFINITY PREDICTED BY RF-SCORE:    0.00 PKD
ROOT
HETATM    1  C   UNL     1      -9.071  10.382  68.680  1.00  0.00    -0.157 C  
HETATM    2  C   UNL     1     -10.470   9.763  68.529  1.00  0.00    -0.210 C  
HETATM    3  N   UNL     1     -11.440  10.749  68.009  1.00  0.00    -0.522 NA 
HETATM    4  C   UNL     1     -10.401   8.493  67.668  1.00  0.00    -0.317 C  
HETATM    5  C   UNL     1     -10.979   9.367  69.930  1.00  0.00    -0.251 C  
HETATM    6  H   UNL     1     -12.256  11.038  68.548  1.00  0.00     0.000 HD 
ENDROOT
BRANCH   3   7
HETATM    7  C   UNL     1     -11.159  11.291  66.667  1.00  0.00    -0.235 C  
BRANCH   7   8
HETATM    8  C   UNL     1     -12.025  12.522  66.253  1.00  0.00    -0.343 C  
HETATM    9  H   UNL     1     -13.135  12.959  64.727  1.00  0.00     0.000 HD 
HETATM   10  O   UNL     1     -12.608  12.210  64.979  1.00  0.00    -0.514 OA 
BRANCH   8  11
HETATM   11  C   UNL     1     -11.293  13.860  66.204  1.00  0.00    -0.323 A  
HETATM   12  C   UNL     1     -10.372  14.195  67.214  1.00  0.00    -0.267 A  
HETATM   13  C   UNL     1      -9.644  15.399  67.197  1.00  0.00    -0.218 A  
HETATM   14  C   UNL     1      -9.945  16.332  66.201  1.00  0.00    -0.334 A  
HETATM   15  H   UNL     1      -9.548  18.191  65.468  1.00  0.00     0.000 HD 
HETATM   16  C   UNL     1     -10.879  16.047  65.214  1.00  0.00    -0.376 A  
HETATM   17  O   UNL     1      -9.343  17.557  66.146  1.00  0.00    -0.432 OA 
HETATM   18  C   UNL     1     -11.528  14.808  65.197  1.00  0.00    -0.371 A  
BRANCH  13  19
HETATM   19  C   UNL     1      -8.622  15.642  68.275  1.00  0.00    -0.158 C  
HETATM   20  O   UNL     1      -8.243  14.414  68.895  1.00  0.00    -0.200 OA 
HETATM   21  H   UNL     1      -7.598  14.567  69.576  1.00  0.00     0.000 HD 
ENDBRANCH  13  19
ENDBRANCH   8  11
ENDBRANCH   7   8
ENDBRANCH   3   7
TORSDOF 4
ENDMDL
MODEL      131
REMARK 921   NORMALIZED FREE ENERGY PREDICTED BY IDOCK:   -3.94 KCAL/MOL
REMARK 922        TOTAL FREE ENERGY PREDICTED BY IDOCK:   -5.57 KCAL/MOL
REMARK 923 INTER-LIGAND FREE ENERGY PREDICTED BY IDOCK:   -5.10 KCAL/MOL
REMARK 924 INTRA-LIGAND FREE ENERGY PREDICTED BY IDOCK:   -0.47 KCAL/MOL
REMARK 927      BINDING AFFINITY PREDICTED BY RF-SCORE:    0.00 PKD
ROOT
HETATM    1  C   UNL     1      -8.331   8.356  64.625  1.00  0.00    -0.137 C  
HETATM    2  C   UNL     1      -7.635   8.731  65.944  1.00  0.00    -0.090 C  
HETATM    3  N   UNL     1      -7.321  10.174  65.993  1.00  0.00    -0.112 NA 
HETATM    4  C   UNL     1      -8.478   8.269  67.142  1.00  0.00    -0.123 C  
HETATM    5  C   UNL     1      -6.278   8.000  66.001  1.00  0.00    -0.045 C  
HETATM    6  H   UNL     1      -6.362  10.515  66.059  1.00  0.00     0.000 HD 
ENDROOT
BRANCH   3   7
HETATM    7  C   UNL     1      -8.474  11.092  65.941  1.00  0.00    -0.140 C  
BRANCH   7   8
HETATM    8  C   UNL     1      -8.554  12.124  67.109  1.00  0.00    -0.185 C  
HETATM    9  H   UNL     1      -9.488  12.198  68.805  1.00  0.00     0.000 HD 
HETATM   10  O   UNL     1      -9.440  11.570  68.094  1.00  0.00    -0.171 OA 
BRANCH   8  11
HETATM   11  C   UNL     1      -8.989  13.533  66.717  1.00  0.00    -0.188 A  
HETATM   12  C   UNL     1     -10.098  13.718  65.873  1.00  0.00    -0.325 A  
HETATM   13  C   UNL     1     -10.563  14.996  65.510  1.00  0.00    -0.380 A  
HETATM   14  C   UNL     1      -9.812  16.103  65.916  1.00  0.00    -0.353 A  
HETATM   15  H   UNL     1      -9.633  18.131  65.828  1.00  0.00     0.000 HD 
HETATM   16  C   UNL     1      -8.688  15.951  66.716  1.00  0.00    -0.303 A  
HETATM   17  O   UNL     1     -10.142  17.379  65.552  1.00  0.00    -0.579 OA 
HETATM   18  C   UNL     1      -8.294  14.678  67.139  1.00  0.00    -0.236 A  
BRANCH  13  19
HETATM   19  C   UNL     1     -11.804  15.103  64.666  1.00  0.00    -0.332 C  
HETATM   20  O   UNL     1     -11.674  16.154  63.711  1.00  0.00    -1.404 OA 
HETATM   21  H   UNL     1     -12.457  16.222  63.178  1.00  0.00     0.000 HD 
ENDBRANCH  13  19
ENDBRANCH   8  11
ENDBRANCH   7   8
ENDBRANCH   3   7
TORSDOF 4
ENDMDL
MODEL      132
REMARK 921   NORMALIZED FREE ENERGY PREDICTED BY IDOCK:   -3.94 KCAL/MOL
REMARK 922        TOTAL FREE ENERGY PREDICTED BY IDOCK:   -5.57 KCAL/MOL
REMARK 923 INTER-LIGAND FREE ENERGY PREDICTED BY IDOCK:   -5.33 KCAL/MOL
REMARK 924 INTRA-LIGAND FREE ENERGY PREDICTED BY IDOCK:   -0.24 KCAL/MOL
REMARK 927      BINDING AFFINITY PREDICTED BY RF-SCORE:    0.00 PKD
ROOT
HETATM    1  C   UNL     1     -11.250  15.278  71.988  1.00  0.00    -0.323 C  
HETATM    2  C   UNL     1     -12.605  15.000  71.317  1.00  0.00    -0.339 C  
HETATM    3  N   UNL     1     -12.788  15.834  70.111  1.00  0.00    -0.639 NA 
HETATM    4  C   UNL     1     -12.759  13.500  71.027  1.00  0.00    -0.399 C  
HETATM    5  C   UNL     1     -13.723  15.418  72.294  1.00  0.00    -0.629 C  
HETATM    6  H   UNL     1     -13.541  16.517  70.037  1.00  0.00     0.000 HD 
ENDROOT
BRANCH   3   7
HETATM    7  C   UNL     1     -11.817  15.621  69.022  1.00  0.00    -0.364 C  
BRANCH   7   8
HETATM    8  C   UNL     1     -10.547  16.527  69.078  1.00  0.00    -0.324 C  
HETATM    9  H   UNL     1     -10.058  18.241  68.321  1.00  0.00     0.000 HD 
HETATM   10  O   UNL     1     -10.831  17.691  68.287  1.00  0.00    -0.324 OA 
BRANCH   8  11
HETATM   11  C   UNL     1      -9.246  15.868  68.630  1.00  0.00    -0.209 A  
HETATM   12  C   UNL     1      -9.213  14.489  68.353  1.00  0.00    -0.196 A  
HETATM   13  C   UNL     1      -8.050  13.839  67.902  1.00  0.00    -0.166 A  
HETATM   14  C   UNL     1      -6.866  14.582  67.848  1.00  0.00    -0.165 A  
HETATM   15  H   UNL     1      -4.867  14.526  67.456  1.00  0.00     0.000 HD 
HETATM   16  C   UNL     1      -6.857  15.935  68.156  1.00  0.00    -0.129 A  
HETATM   17  O   UNL     1      -5.671  14.021  67.493  1.00  0.00    -0.341 OA 
HETATM   18  C   UNL     1      -8.043  16.583  68.516  1.00  0.00    -0.218 A  
BRANCH  13  19
HETATM   19  C   UNL     1      -8.125  12.377  67.554  1.00  0.00    -0.173 C  
HETATM   20  O   UNL     1      -8.536  12.204  66.199  1.00  0.00    -0.394 OA 
HETATM   21  H   UNL     1      -8.583  11.281  65.979  1.00  0.00     0.000 HD 
ENDBRANCH  13  19
ENDBRANCH   8  11
ENDBRANCH   7   8
ENDBRANCH   3   7
TORSDOF 4
ENDMDL
MODEL      133
REMARK 921   NORMALIZED FREE ENERGY PREDICTED BY IDOCK:   -3.93 KCAL/MOL
REMARK 922        TOTAL FREE ENERGY PREDICTED BY IDOCK:   -5.56 KCAL/MOL
REMARK 923 INTER-LIGAND FREE ENERGY PREDICTED BY IDOCK:   -5.05 KCAL/MOL
REMARK 924 INTRA-LIGAND FREE ENERGY PREDICTED BY IDOCK:   -0.51 KCAL/MOL
REMARK 927      BINDING AFFINITY PREDICTED BY RF-SCORE:    0.00 PKD
ROOT
HETATM    1  C   UNL     1      -5.204  10.163  66.306  1.00  0.00    -0.045 C  
HETATM    2  C   UNL     1      -6.184   8.983  66.417  1.00  0.00    -0.064 C  
HETATM    3  N   UNL     1      -7.483   9.416  66.973  1.00  0.00    -0.091 NA 
HETATM    4  C   UNL     1      -6.327   8.280  65.059  1.00  0.00    -0.049 C  
HETATM    5  C   UNL     1      -5.608   7.969  67.426  1.00  0.00    -0.038 C  
HETATM    6  H   UNL     1      -7.841   9.049  67.854  1.00  0.00     0.000 HD 
ENDROOT
BRANCH   3   7
HETATM    7  C   UNL     1      -8.230  10.409  66.179  1.00  0.00    -0.144 C  
BRANCH   7   8
HETATM    8  C   UNL     1      -8.591  11.726  66.934  1.00  0.00    -0.177 C  
HETATM    9  H   UNL     1      -8.773  12.228  68.796  1.00  0.00     0.000 HD 
HETATM   10  O   UNL     1      -8.554  11.426  68.337  1.00  0.00    -0.146 OA 
BRANCH   8  11
HETATM   11  C   UNL     1      -9.921  12.366  66.548  1.00  0.00    -0.242 A  
HETATM   12  C   UNL     1     -10.369  12.312  65.216  1.00  0.00    -0.311 A  
HETATM   13  C   UNL     1     -11.604  12.853  64.814  1.00  0.00    -0.373 A  
HETATM   14  C   UNL     1     -12.342  13.569  65.761  1.00  0.00    -0.468 A  
HETATM   15  H   UNL     1     -14.019  14.678  66.091  1.00  0.00     0.000 HD 
HETATM   16  C   UNL     1     -11.907  13.676  67.075  1.00  0.00    -0.448 A  
HETATM   17  O   UNL     1     -13.517  14.192  65.447  1.00  0.00    -0.648 OA 
HETATM   18  C   UNL     1     -10.720  13.055  67.475  1.00  0.00    -0.248 A  
BRANCH  13  19
HETATM   19  C   UNL     1     -12.040  12.680  63.384  1.00  0.00    -0.525 C  
HETATM   20  O   UNL     1     -12.477  13.924  62.838  1.00  0.00    -1.034 OA 
HETATM   21  H   UNL     1     -12.752  13.816  61.936  1.00  0.00     0.000 HD 
ENDBRANCH  13  19
ENDBRANCH   8  11
ENDBRANCH   7   8
ENDBRANCH   3   7
TORSDOF 4
ENDMDL
MODEL      134
REMARK 921   NORMALIZED FREE ENERGY PREDICTED BY IDOCK:   -3.92 KCAL/MOL
REMARK 922        TOTAL FREE ENERGY PREDICTED BY IDOCK:   -5.55 KCAL/MOL
REMARK 923 INTER-LIGAND FREE ENERGY PREDICTED BY IDOCK:   -5.25 KCAL/MOL
REMARK 924 INTRA-LIGAND FREE ENERGY PREDICTED BY IDOCK:   -0.30 KCAL/MOL
REMARK 927      BINDING AFFINITY PREDICTED BY RF-SCORE:    0.00 PKD
ROOT
HETATM    1  C   UNL     1     -12.055  15.895  71.473  1.00  0.00    -0.533 C  
HETATM    2  C   UNL     1     -13.030  15.016  72.274  1.00  0.00    -0.349 C  
HETATM    3  N   UNL     1     -13.365  13.780  71.537  1.00  0.00    -0.337 NA 
HETATM    4  C   UNL     1     -12.467  14.735  73.675  1.00  0.00    -0.503 C  
HETATM    5  C   UNL     1     -14.356  15.786  72.435  1.00  0.00    -0.327 C  
HETATM    6  H   UNL     1     -14.319  13.568  71.245  1.00  0.00     0.000 HD 
ENDROOT
BRANCH   3   7
HETATM    7  C   UNL     1     -12.241  12.870  71.250  1.00  0.00     0.099 C  
BRANCH   7   8
HETATM    8  C   UNL     1     -12.401  12.004  69.961  1.00  0.00    -0.108 C  
HETATM    9  H   UNL     1     -11.875  10.212  69.446  1.00  0.00     0.000 HD 
HETATM   10  O   UNL     1     -11.777  10.739  70.230  1.00  0.00    -0.295 OA 
BRANCH   8  11
HETATM   11  C   UNL     1     -11.850  12.620  68.678  1.00  0.00    -0.342 A  
HETATM   12  C   UNL     1     -10.983  11.878  67.857  1.00  0.00    -0.270 A  
HETATM   13  C   UNL     1     -10.476  12.384  66.646  1.00  0.00    -0.251 A  
HETATM   14  C   UNL     1     -10.761  13.714  66.324  1.00  0.00    -0.285 A  
HETATM   15  H   UNL     1     -10.448  15.221  64.988  1.00  0.00     0.000 HD 
HETATM   16  C   UNL     1     -11.581  14.486  67.136  1.00  0.00    -0.406 A  
HETATM   17  O   UNL     1     -10.255  14.317  65.207  1.00  0.00    -0.353 OA 
HETATM   18  C   UNL     1     -12.146  13.936  68.290  1.00  0.00    -0.322 A  
BRANCH  13  19
HETATM   19  C   UNL     1      -9.617  11.492  65.790  1.00  0.00    -0.235 C  
HETATM   20  O   UNL     1      -9.401  12.081  64.509  1.00  0.00    -0.437 OA 
HETATM   21  H   UNL     1      -8.859  11.519  63.969  1.00  0.00     0.000 HD 
ENDBRANCH  13  19
ENDBRANCH   8  11
ENDBRANCH   7   8
ENDBRANCH   3   7
TORSDOF 4
ENDMDL
MODEL      135
REMARK 921   NORMALIZED FREE ENERGY PREDICTED BY IDOCK:   -3.92 KCAL/MOL
REMARK 922        TOTAL FREE ENERGY PREDICTED BY IDOCK:   -5.55 KCAL/MOL
REMARK 923 INTER-LIGAND FREE ENERGY PREDICTED BY IDOCK:   -5.33 KCAL/MOL
REMARK 924 INTRA-LIGAND FREE ENERGY PREDICTED BY IDOCK:   -0.22 KCAL/MOL
REMARK 927      BINDING AFFINITY PREDICTED BY RF-SCORE:    0.00 PKD
ROOT
HETATM    1  C   UNL     1      -8.707   6.958  68.938  1.00  0.00    -0.130 C  
HETATM    2  C   UNL     1     -10.011   6.609  68.202  1.00  0.00    -0.147 C  
HETATM    3  N   UNL     1     -10.692   7.825  67.711  1.00  0.00    -0.454 NA 
HETATM    4  C   UNL     1      -9.737   5.593  67.084  1.00  0.00    -0.151 C  
HETATM    5  C   UNL     1     -10.979   5.961  69.213  1.00  0.00    -0.397 C  
HETATM    6  H   UNL     1     -11.622   8.091  68.035  1.00  0.00     0.000 HD 
ENDROOT
BRANCH   3   7
HETATM    7  C   UNL     1      -9.949   8.632  66.725  1.00  0.00    -0.273 C  
BRANCH   7   8
HETATM    8  C   UNL     1      -9.583  10.076  67.190  1.00  0.00    -0.165 C  
HETATM    9  H   UNL     1      -9.343  10.938  68.908  1.00  0.00     0.000 HD 
HETATM   10  O   UNL     1      -9.566  10.059  68.626  1.00  0.00    -0.147 OA 
BRANCH   8  11
HETATM   11  C   UNL     1     -10.488  11.188  66.669  1.00  0.00    -0.298 A  
HETATM   12  C   UNL     1     -10.729  12.327  67.458  1.00  0.00    -0.255 A  
HETATM   13  C   UNL     1     -11.525  13.397  67.012  1.00  0.00    -0.372 A  
HETATM   14  C   UNL     1     -12.187  13.252  65.789  1.00  0.00    -0.456 A  
HETATM   15  H   UNL     1     -13.489  14.108  64.475  1.00  0.00     0.000 HD 
HETATM   16  C   UNL     1     -12.003  12.122  65.005  1.00  0.00    -0.343 A  
HETATM   17  O   UNL     1     -13.039  14.206  65.306  1.00  0.00    -0.763 OA 
HETATM   18  C   UNL     1     -11.137  11.108  65.427  1.00  0.00    -0.074 A  
BRANCH  13  19
HETATM   19  C   UNL     1     -11.666  14.612  67.889  1.00  0.00    -0.351 C  
HETATM   20  O   UNL     1     -12.561  14.352  68.969  1.00  0.00    -0.553 OA 
HETATM   21  H   UNL     1     -12.649  15.119  69.523  1.00  0.00     0.000 HD 
ENDBRANCH  13  19
ENDBRANCH   8  11
ENDBRANCH   7   8
ENDBRANCH   3   7
TORSDOF 4
ENDMDL
MODEL      136
REMARK 921   NORMALIZED FREE ENERGY PREDICTED BY IDOCK:   -3.92 KCAL/MOL
REMARK 922        TOTAL FREE ENERGY PREDICTED BY IDOCK:   -5.54 KCAL/MOL
REMARK 923 INTER-LIGAND FREE ENERGY PREDICTED BY IDOCK:   -5.19 KCAL/MOL
REMARK 924 INTRA-LIGAND FREE ENERGY PREDICTED BY IDOCK:   -0.35 KCAL/MOL
REMARK 927      BINDING AFFINITY PREDICTED BY RF-SCORE:    0.00 PKD
ROOT
HETATM    1  C   UNL     1      -8.377  15.879  66.616  1.00  0.00    -0.328 C  
HETATM    2  C   UNL     1      -9.308  15.199  67.633  1.00  0.00    -0.189 C  
HETATM    3  N   UNL     1     -10.552  14.727  66.990  1.00  0.00    -0.285 NA 
HETATM    4  C   UNL     1      -8.563  14.078  68.372  1.00  0.00    -0.174 C  
HETATM    5  C   UNL     1      -9.743  16.253  68.672  1.00  0.00    -0.235 C  
HETATM    6  H   UNL     1     -11.468  15.086  67.259  1.00  0.00     0.000 HD 
ENDROOT
BRANCH   3   7
HETATM    7  C   UNL     1     -10.392  13.706  65.938  1.00  0.00    -0.301 C  
BRANCH   7   8
HETATM    8  C   UNL     1     -11.308  12.451  66.086  1.00  0.00    -0.352 C  
HETATM    9  H   UNL     1     -13.186  12.088  65.784  1.00  0.00     0.000 HD 
HETATM   10  O   UNL     1     -12.629  12.851  65.694  1.00  0.00    -0.555 OA 
BRANCH   8  11
HETATM   11  C   UNL     1     -11.322  11.802  67.467  1.00  0.00    -0.377 A  
HETATM   12  C   UNL     1     -10.829  10.496  67.636  1.00  0.00    -0.355 A  
HETATM   13  C   UNL     1     -10.785   9.865  68.893  1.00  0.00    -0.244 A  
HETATM   14  C   UNL     1     -11.367  10.529  69.977  1.00  0.00    -0.318 A  
HETATM   15  H   UNL     1     -11.833  10.417  71.958  1.00  0.00     0.000 HD 
HETATM   16  C   UNL     1     -11.900  11.802  69.834  1.00  0.00    -0.423 A  
HETATM   17  O   UNL     1     -11.438   9.966  71.221  1.00  0.00    -0.365 OA 
HETATM   18  C   UNL     1     -11.853  12.448  68.594  1.00  0.00    -0.348 A  
BRANCH  13  19
HETATM   19  C   UNL     1     -10.168   8.496  68.996  1.00  0.00    -0.207 C  
HETATM   20  O   UNL     1      -8.759   8.594  69.195  1.00  0.00    -0.134 OA 
HETATM   21  H   UNL     1      -8.368   7.730  69.260  1.00  0.00     0.000 HD 
ENDBRANCH  13  19
ENDBRANCH   8  11
ENDBRANCH   7   8
ENDBRANCH   3   7
TORSDOF 4
ENDMDL
MODEL      137
REMARK 921   NORMALIZED FREE ENERGY PREDICTED BY IDOCK:   -3.90 KCAL/MOL
REMARK 922        TOTAL FREE ENERGY PREDICTED BY IDOCK:   -5.53 KCAL/MOL
REMARK 923 INTER-LIGAND FREE ENERGY PREDICTED BY IDOCK:   -4.90 KCAL/MOL
REMARK 924 INTRA-LIGAND FREE ENERGY PREDICTED BY IDOCK:   -0.63 KCAL/MOL
REMARK 927      BINDING AFFINITY PREDICTED BY RF-SCORE:    0.00 PKD
ROOT
HETATM    1  C   UNL     1      -7.893   5.991  73.159  1.00  0.00    -0.105 C  
HETATM    2  C   UNL     1      -8.885   5.771  72.006  1.00  0.00    -0.138 C  
HETATM    3  N   UNL     1     -10.279   5.981  72.449  1.00  0.00    -0.187 NA 
HETATM    4  C   UNL     1      -8.509   6.649  70.803  1.00  0.00    -0.134 C  
HETATM    5  C   UNL     1      -8.799   4.294  71.568  1.00  0.00    -0.147 C  
HETATM    6  H   UNL     1     -10.972   5.234  72.424  1.00  0.00     0.000 HD 
ENDROOT
BRANCH   3   7
HETATM    7  C   UNL     1     -10.609   7.336  72.930  1.00  0.00    -0.301 C  
BRANCH   7   8
HETATM    8  C   UNL     1     -11.979   7.899  72.439  1.00  0.00    -0.320 C  
HETATM    9  H   UNL     1     -13.461   7.187  71.415  1.00  0.00     0.000 HD 
HETATM   10  O   UNL     1     -12.627   6.844  71.714  1.00  0.00    -0.350 OA 
BRANCH   8  11
HETATM   11  C   UNL     1     -11.908   9.172  71.600  1.00  0.00    -0.443 A  
HETATM   12  C   UNL     1     -12.684  10.291  71.952  1.00  0.00    -0.478 A  
HETATM   13  C   UNL     1     -12.629  11.500  71.236  1.00  0.00    -0.452 A  
HETATM   14  C   UNL     1     -11.861  11.533  70.068  1.00  0.00    -0.355 A  
HETATM   15  H   UNL     1     -11.281  12.661  68.473  1.00  0.00     0.000 HD 
HETATM   16  C   UNL     1     -11.116  10.432  69.671  1.00  0.00    -0.328 A  
HETATM   17  O   UNL     1     -11.803  12.639  69.266  1.00  0.00    -0.301 OA 
HETATM   18  C   UNL     1     -11.115   9.268  70.446  1.00  0.00    -0.300 A  
BRANCH  13  19
HETATM   19  C   UNL     1     -13.434  12.673  71.729  1.00  0.00    -0.221 C  
HETATM   20  O   UNL     1     -12.720  13.892  71.531  1.00  0.00    -0.338 OA 
HETATM   21  H   UNL     1     -13.228  14.632  71.842  1.00  0.00     0.000 HD 
ENDBRANCH  13  19
ENDBRANCH   8  11
ENDBRANCH   7   8
ENDBRANCH   3   7
TORSDOF 4
ENDMDL
MODEL      138
REMARK 921   NORMALIZED FREE ENERGY PREDICTED BY IDOCK:   -3.89 KCAL/MOL
REMARK 922        TOTAL FREE ENERGY PREDICTED BY IDOCK:   -5.51 KCAL/MOL
REMARK 923 INTER-LIGAND FREE ENERGY PREDICTED BY IDOCK:   -5.04 KCAL/MOL
REMARK 924 INTRA-LIGAND FREE ENERGY PREDICTED BY IDOCK:   -0.47 KCAL/MOL
REMARK 927      BINDING AFFINITY PREDICTED BY RF-SCORE:    0.00 PKD
ROOT
HETATM    1  C   UNL     1      -5.148  18.683  65.241  1.00  0.00    -0.194 C  
HETATM    2  C   UNL     1      -6.401  19.447  65.701  1.00  0.00    -0.228 C  
HETATM    3  N   UNL     1      -7.609  18.602  65.608  1.00  0.00    -0.495 NA 
HETATM    4  C   UNL     1      -6.187  20.021  67.109  1.00  0.00    -0.207 C  
HETATM    5  C   UNL     1      -6.632  20.625  64.732  1.00  0.00    -0.275 C  
HETATM    6  H   UNL     1      -8.390  18.843  64.998  1.00  0.00     0.000 HD 
ENDROOT
BRANCH   3   7
HETATM    7  C   UNL     1      -7.620  17.390  66.449  1.00  0.00    -0.307 C  
BRANCH   7   8
HETATM    8  C   UNL     1      -8.751  17.338  67.523  1.00  0.00    -0.210 C  
HETATM    9  H   UNL     1      -8.797  17.149  69.450  1.00  0.00     0.000 HD 
HETATM   10  O   UNL     1      -8.108  17.181  68.797  1.00  0.00    -0.264 OA 
BRANCH   8  11
HETATM   11  C   UNL     1      -9.813  16.262  67.312  1.00  0.00    -0.243 A  
HETATM   12  C   UNL     1      -9.790  15.469  66.151  1.00  0.00    -0.342 A  
HETATM   13  C   UNL     1     -10.722  14.440  65.925  1.00  0.00    -0.308 A  
HETATM   14  C   UNL     1     -11.770  14.295  66.839  1.00  0.00    -0.408 A  
HETATM   15  H   UNL     1     -13.476  13.275  67.287  1.00  0.00     0.000 HD 
HETATM   16  C   UNL     1     -11.844  15.091  67.973  1.00  0.00    -0.266 A  
HETATM   17  O   UNL     1     -12.764  13.373  66.666  1.00  0.00    -0.155 OA 
HETATM   18  C   UNL     1     -10.857  16.049  68.225  1.00  0.00    -0.319 A  
BRANCH  13  19
HETATM   19  C   UNL     1     -10.576  13.587  64.693  1.00  0.00    -0.427 C  
HETATM   20  O   UNL     1     -11.856  13.261  64.153  1.00  0.00    -0.398 OA 
HETATM   21  H   UNL     1     -11.764  12.723  63.375  1.00  0.00     0.000 HD 
ENDBRANCH  13  19
ENDBRANCH   8  11
ENDBRANCH   7   8
ENDBRANCH   3   7
TORSDOF 4
ENDMDL
MODEL      139
REMARK 921   NORMALIZED FREE ENERGY PREDICTED BY IDOCK:   -3.85 KCAL/MOL
REMARK 922        TOTAL FREE ENERGY PREDICTED BY IDOCK:   -5.46 KCAL/MOL
REMARK 923 INTER-LIGAND FREE ENERGY PREDICTED BY IDOCK:   -4.81 KCAL/MOL
REMARK 924 INTRA-LIGAND FREE ENERGY PREDICTED BY IDOCK:   -0.65 KCAL/MOL
REMARK 927      BINDING AFFINITY PREDICTED BY RF-SCORE:    0.00 PKD
ROOT
HETATM    1  C   UNL     1      -7.934   9.919  65.244  1.00  0.00    -0.137 C  
HETATM    2  C   UNL     1      -9.412   9.977  65.663  1.00  0.00    -0.220 C  
HETATM    3  N   UNL     1      -9.942   8.627  65.946  1.00  0.00    -0.442 NA 
HETATM    4  C   UNL     1      -9.594  10.943  66.843  1.00  0.00    -0.203 C  
HETATM    5  C   UNL     1     -10.232  10.513  64.472  1.00  0.00    -0.355 C  
HETATM    6  H   UNL     1     -10.707   8.224  65.406  1.00  0.00     0.000 HD 
ENDROOT
BRANCH   3   7
HETATM    7  C   UNL     1      -9.300   7.897  67.055  1.00  0.00    -0.160 C  
BRANCH   7   8
HETATM    8  C   UNL     1     -10.192   6.817  67.743  1.00  0.00    -0.171 C  
HETATM    9  H   UNL     1     -11.816   5.877  67.261  1.00  0.00     0.000 HD 
HETATM   10  O   UNL     1     -11.273   6.535  66.842  1.00  0.00    -0.387 OA 
BRANCH   8  11
HETATM   11  C   UNL     1     -10.718   7.178  69.129  1.00  0.00    -0.216 A  
HETATM   12  C   UNL     1     -10.907   8.527  69.480  1.00  0.00    -0.134 A  
HETATM   13  C   UNL     1     -11.423   8.914  70.731  1.00  0.00    -0.319 A  
HETATM   14  C   UNL     1     -11.638   7.915  71.685  1.00  0.00    -0.272 A  
HETATM   15  H   UNL     1     -12.214   7.522  73.600  1.00  0.00     0.000 HD 
HETATM   16  C   UNL     1     -11.422   6.579  71.383  1.00  0.00    -0.360 A  
HETATM   17  O   UNL     1     -12.068   8.200  72.951  1.00  0.00    -0.278 OA 
HETATM   18  C   UNL     1     -10.993   6.208  70.105  1.00  0.00    -0.426 A  
BRANCH  13  19
HETATM   19  C   UNL     1     -11.667  10.376  70.994  1.00  0.00    -0.337 C  
HETATM   20  O   UNL     1     -13.018  10.596  71.394  1.00  0.00    -0.391 OA 
HETATM   21  H   UNL     1     -13.172  11.518  71.561  1.00  0.00     0.000 HD 
ENDBRANCH  13  19
ENDBRANCH   8  11
ENDBRANCH   7   8
ENDBRANCH   3   7
TORSDOF 4
ENDMDL
MODEL      140
REMARK 921   NORMALIZED FREE ENERGY PREDICTED BY IDOCK:   -3.85 KCAL/MOL
REMARK 922        TOTAL FREE ENERGY PREDICTED BY IDOCK:   -5.46 KCAL/MOL
REMARK 923 INTER-LIGAND FREE ENERGY PREDICTED BY IDOCK:   -4.97 KCAL/MOL
REMARK 924 INTRA-LIGAND FREE ENERGY PREDICTED BY IDOCK:   -0.49 KCAL/MOL
REMARK 927      BINDING AFFINITY PREDICTED BY RF-SCORE:    0.00 PKD
ROOT
HETATM    1  C   UNL     1     -10.175   8.794  71.856  1.00  0.00    -0.415 C  
HETATM    2  C   UNL     1     -11.395   8.652  70.931  1.00  0.00    -0.272 C  
HETATM    3  N   UNL     1     -11.063   9.037  69.544  1.00  0.00    -0.428 NA 
HETATM    4  C   UNL     1     -11.976   7.235  71.030  1.00  0.00    -0.362 C  
HETATM    5  C   UNL     1     -12.475   9.649  71.399  1.00  0.00    -0.465 C  
HETATM    6  H   UNL     1     -11.522   9.818  69.076  1.00  0.00     0.000 HD 
ENDROOT
BRANCH   3   7
HETATM    7  C   UNL     1     -10.031   8.224  68.874  1.00  0.00    -0.186 C  
BRANCH   7   8
HETATM    8  C   UNL     1     -10.387   7.757  67.429  1.00  0.00    -0.284 C  
HETATM    9  H   UNL     1     -10.097   6.138  66.405  1.00  0.00     0.000 HD 
HETATM   10  O   UNL     1      -9.880   6.422  67.285  1.00  0.00    -0.126 OA 
BRANCH   8  11
HETATM   11  C   UNL     1      -9.884   8.654  66.301  1.00  0.00    -0.320 A  
HETATM   12  C   UNL     1     -10.511   9.889  66.052  1.00  0.00    -0.112 A  
HETATM   13  C   UNL     1     -10.066  10.770  65.050  1.00  0.00    -0.377 A  
HETATM   14  C   UNL     1      -9.039  10.334  64.206  1.00  0.00    -0.243 A  
HETATM   15  H   UNL     1      -7.891  10.793  62.586  1.00  0.00     0.000 HD 
HETATM   16  C   UNL     1      -8.428   9.103  64.400  1.00  0.00    -0.198 A  
HETATM   17  O   UNL     1      -8.588  11.089  63.160  1.00  0.00    -0.132 OA 
HETATM   18  C   UNL     1      -8.826   8.280  65.458  1.00  0.00    -0.152 A  
BRANCH  13  19
HETATM   19  C   UNL     1     -10.745  12.105  64.903  1.00  0.00    -0.295 C  
HETATM   20  O   UNL     1      -9.803  13.111  64.535  1.00  0.00    -0.604 OA 
HETATM   21  H   UNL     1     -10.232  13.954  64.442  1.00  0.00     0.000 HD 
ENDBRANCH  13  19
ENDBRANCH   8  11
ENDBRANCH   7   8
ENDBRANCH   3   7
TORSDOF 4
ENDMDL
MODEL      141
REMARK 921   NORMALIZED FREE ENERGY PREDICTED BY IDOCK:   -3.84 KCAL/MOL
REMARK 922        TOTAL FREE ENERGY PREDICTED BY IDOCK:   -5.45 KCAL/MOL
REMARK 923 INTER-LIGAND FREE ENERGY PREDICTED BY IDOCK:   -5.03 KCAL/MOL
REMARK 924 INTRA-LIGAND FREE ENERGY PREDICTED BY IDOCK:   -0.42 KCAL/MOL
REMARK 927      BINDING AFFINITY PREDICTED BY RF-SCORE:    0.00 PKD
ROOT
HETATM    1  C   UNL     1      -8.119  17.742  66.428  1.00  0.00    -0.296 C  
HETATM    2  C   UNL     1      -8.997  18.789  67.134  1.00  0.00    -0.281 C  
HETATM    3  N   UNL     1     -10.274  18.200  67.588  1.00  0.00    -0.355 NA 
HETATM    4  C   UNL     1      -8.216  19.459  68.273  1.00  0.00    -0.372 C  
HETATM    5  C   UNL     1      -9.374  19.876  66.106  1.00  0.00    -0.442 C  
HETATM    6  H   UNL     1     -11.174  18.525  67.236  1.00  0.00     0.000 HD 
ENDROOT
BRANCH   3   7
HETATM    7  C   UNL     1     -10.171  17.115  68.582  1.00  0.00    -0.336 C  
BRANCH   7   8
HETATM    8  C   UNL     1     -11.320  16.061  68.535  1.00  0.00    -0.382 C  
HETATM    9  H   UNL     1     -12.734  15.527  69.746  1.00  0.00     0.000 HD 
HETATM   10  O   UNL     1     -12.035  16.169  69.775  1.00  0.00    -0.244 OA 
BRANCH   8  11
HETATM   11  C   UNL     1     -10.886  14.620  68.280  1.00  0.00    -0.249 A  
HETATM   12  C   UNL     1      -9.538  14.331  68.001  1.00  0.00    -0.223 A  
HETATM   13  C   UNL     1      -9.077  13.017  67.795  1.00  0.00    -0.200 A  
HETATM   14  C   UNL     1     -10.027  11.992  67.752  1.00  0.00    -0.195 A  
HETATM   15  H   UNL     1     -10.330   9.998  67.457  1.00  0.00     0.000 HD 
HETATM   16  C   UNL     1     -11.370  12.251  67.982  1.00  0.00    -0.348 A  
HETATM   17  O   UNL     1      -9.685  10.695  67.486  1.00  0.00    -0.163 OA 
HETATM   18  C   UNL     1     -11.795  13.551  68.273  1.00  0.00    -0.401 A  
BRANCH  13  19
HETATM   19  C   UNL     1      -7.605  12.790  67.581  1.00  0.00    -0.152 C  
HETATM   20  O   UNL     1      -6.997  13.944  67.004  1.00  0.00    -0.391 OA 
HETATM   21  H   UNL     1      -6.068  13.801  66.869  1.00  0.00     0.000 HD 
ENDBRANCH  13  19
ENDBRANCH   8  11
ENDBRANCH   7   8
ENDBRANCH   3   7
TORSDOF 4
ENDMDL
MODEL      142
REMARK 921   NORMALIZED FREE ENERGY PREDICTED BY IDOCK:   -3.84 KCAL/MOL
REMARK 922        TOTAL FREE ENERGY PREDICTED BY IDOCK:   -5.45 KCAL/MOL
REMARK 923 INTER-LIGAND FREE ENERGY PREDICTED BY IDOCK:   -4.74 KCAL/MOL
REMARK 924 INTRA-LIGAND FREE ENERGY PREDICTED BY IDOCK:   -0.71 KCAL/MOL
REMARK 927      BINDING AFFINITY PREDICTED BY RF-SCORE:    0.00 PKD
ROOT
HETATM    1  C   UNL     1     -10.654   6.326  72.305  1.00  0.00    -0.244 C  
HETATM    2  C   UNL     1      -9.476   7.109  71.702  1.00  0.00    -0.152 C  
HETATM    3  N   UNL     1      -9.413   6.939  70.235  1.00  0.00    -0.163 NA 
HETATM    4  C   UNL     1      -9.545   8.584  72.123  1.00  0.00    -0.382 C  
HETATM    5  C   UNL     1      -8.165   6.512  72.253  1.00  0.00    -0.106 C  
HETATM    6  H   UNL     1      -8.612   6.506  69.776  1.00  0.00     0.000 HD 
ENDROOT
BRANCH   3   7
HETATM    7  C   UNL     1     -10.577   7.432  69.474  1.00  0.00    -0.237 C  
BRANCH   7   8
HETATM    8  C   UNL     1     -10.232   8.285  68.214  1.00  0.00    -0.208 C  
HETATM    9  H   UNL     1      -8.596   8.767  67.296  1.00  0.00     0.000 HD 
HETATM   10  O   UNL     1      -8.805   8.248  68.063  1.00  0.00    -0.134 OA 
BRANCH   8  11
HETATM   11  C   UNL     1     -10.741   9.724  68.230  1.00  0.00    -0.277 A  
HETATM   12  C   UNL     1     -11.344  10.244  69.390  1.00  0.00    -0.279 A  
HETATM   13  C   UNL     1     -11.797  11.573  69.471  1.00  0.00    -0.419 A  
HETATM   14  C   UNL     1     -11.744  12.353  68.311  1.00  0.00    -0.345 A  
HETATM   15  H   UNL     1     -12.192  14.160  67.484  1.00  0.00     0.000 HD 
HETATM   16  C   UNL     1     -11.193  11.855  67.139  1.00  0.00    -0.377 A  
HETATM   17  O   UNL     1     -12.227  13.631  68.272  1.00  0.00    -0.329 OA 
HETATM   18  C   UNL     1     -10.667  10.559  67.105  1.00  0.00    -0.323 A  
BRANCH  13  19
HETATM   19  C   UNL     1     -12.358  12.070  70.776  1.00  0.00    -0.308 C  
HETATM   20  O   UNL     1     -11.957  13.418  71.015  1.00  0.00    -0.461 OA 
HETATM   21  H   UNL     1     -12.312  13.732  71.839  1.00  0.00     0.000 HD 
ENDBRANCH  13  19
ENDBRANCH   8  11
ENDBRANCH   7   8
ENDBRANCH   3   7
TORSDOF 4
ENDMDL
MODEL      143
REMARK 921   NORMALIZED FREE ENERGY PREDICTED BY IDOCK:   -3.82 KCAL/MOL
REMARK 922        TOTAL FREE ENERGY PREDICTED BY IDOCK:   -5.42 KCAL/MOL
REMARK 923 INTER-LIGAND FREE ENERGY PREDICTED BY IDOCK:   -4.93 KCAL/MOL
REMARK 924 INTRA-LIGAND FREE ENERGY PREDICTED BY IDOCK:   -0.49 KCAL/MOL
REMARK 927      BINDING AFFINITY PREDICTED BY RF-SCORE:    0.00 PKD
ROOT
HETATM    1  C   UNL     1      -8.152   5.279  71.595  1.00  0.00    -0.116 C  
HETATM    2  C   UNL     1      -9.360   5.463  70.663  1.00  0.00    -0.162 C  
HETATM    3  N   UNL     1     -10.587   5.766  71.428  1.00  0.00    -0.244 NA 
HETATM    4  C   UNL     1      -9.053   6.523  69.595  1.00  0.00    -0.141 C  
HETATM    5  C   UNL     1      -9.628   4.123  69.947  1.00  0.00    -0.282 C  
HETATM    6  H   UNL     1     -11.399   5.150  71.413  1.00  0.00     0.000 HD 
ENDROOT
BRANCH   3   7
HETATM    7  C   UNL     1     -10.569   7.013  72.216  1.00  0.00    -0.213 C  
BRANCH   7   8
HETATM    8  C   UNL     1     -11.931   7.773  72.286  1.00  0.00    -0.309 C  
HETATM    9  H   UNL     1     -13.758   7.349  71.804  1.00  0.00     0.000 HD 
HETATM   10  O   UNL     1     -12.930   6.887  71.761  1.00  0.00    -0.363 OA 
BRANCH   8  11
HETATM   11  C   UNL     1     -11.972   9.123  71.576  1.00  0.00    -0.422 A  
HETATM   12  C   UNL     1     -10.972   9.459  70.645  1.00  0.00    -0.352 A  
HETATM   13  C   UNL     1     -10.983  10.674  69.935  1.00  0.00    -0.337 A  
HETATM   14  C   UNL     1     -11.962  11.615  70.267  1.00  0.00    -0.358 A  
HETATM   15  H   UNL     1     -12.675  13.491  69.910  1.00  0.00     0.000 HD 
HETATM   16  C   UNL     1     -12.938  11.330  71.211  1.00  0.00    -0.427 A  
HETATM   17  O   UNL     1     -12.010  12.851  69.685  1.00  0.00    -0.313 OA 
HETATM   18  C   UNL     1     -12.962  10.081  71.841  1.00  0.00    -0.547 A  
BRANCH  13  19
HETATM   19  C   UNL     1      -9.918  10.918  68.901  1.00  0.00    -0.196 C  
HETATM   20  O   UNL     1      -8.810  10.042  69.103  1.00  0.00    -0.146 OA 
HETATM   21  H   UNL     1      -8.138  10.196  68.449  1.00  0.00     0.000 HD 
ENDBRANCH  13  19
ENDBRANCH   8  11
ENDBRANCH   7   8
ENDBRANCH   3   7
TORSDOF 4
ENDMDL
MODEL      144
REMARK 921   NORMALIZED FREE ENERGY PREDICTED BY IDOCK:   -3.81 KCAL/MOL
REMARK 922        TOTAL FREE ENERGY PREDICTED BY IDOCK:   -5.41 KCAL/MOL
REMARK 923 INTER-LIGAND FREE ENERGY PREDICTED BY IDOCK:   -4.97 KCAL/MOL
REMARK 924 INTRA-LIGAND FREE ENERGY PREDICTED BY IDOCK:   -0.44 KCAL/MOL
REMARK 927      BINDING AFFINITY PREDICTED BY RF-SCORE:    0.00 PKD
ROOT
HETATM    1  C   UNL     1      -6.862  11.489  66.850  1.00  0.00    -0.138 C  
HETATM    2  C   UNL     1      -7.959  11.412  67.925  1.00  0.00    -0.120 C  
HETATM    3  N   UNL     1      -8.823  12.610  67.896  1.00  0.00    -0.173 NA 
HETATM    4  C   UNL     1      -8.754  10.106  67.784  1.00  0.00    -0.121 C  
HETATM    5  C   UNL     1      -7.279  11.415  69.310  1.00  0.00    -0.075 C  
HETATM    6  H   UNL     1      -8.892  13.245  68.691  1.00  0.00     0.000 HD 
ENDROOT
BRANCH   3   7
HETATM    7  C   UNL     1      -9.581  12.834  66.651  1.00  0.00    -0.255 C  
BRANCH   7   8
HETATM    8  C   UNL     1     -11.126  12.962  66.828  1.00  0.00    -0.281 C  
HETATM    9  H   UNL     1     -12.448  14.299  66.361  1.00  0.00     0.000 HD 
HETATM   10  O   UNL     1     -11.508  14.221  66.253  1.00  0.00    -0.337 OA 
BRANCH   8  11
HETATM   11  C   UNL     1     -11.640  12.840  68.260  1.00  0.00    -0.375 A  
HETATM   12  C   UNL     1     -11.935  13.997  69.003  1.00  0.00    -0.392 A  
HETATM   13  C   UNL     1     -12.445  13.940  70.313  1.00  0.00    -0.380 A  
HETATM   14  C   UNL     1     -12.543  12.685  70.921  1.00  0.00    -0.249 A  
HETATM   15  H   UNL     1     -13.024  11.682  72.629  1.00  0.00     0.000 HD 
HETATM   16  C   UNL     1     -12.219  11.527  70.229  1.00  0.00    -0.415 A  
HETATM   17  O   UNL     1     -12.958  12.535  72.215  1.00  0.00    -0.304 OA 
HETATM   18  C   UNL     1     -11.798  11.599  68.897  1.00  0.00    -0.392 A  
BRANCH  13  19
HETATM   19  C   UNL     1     -12.808  15.225  71.006  1.00  0.00    -0.440 C  
HETATM   20  O   UNL     1     -11.839  16.235  70.732  1.00  0.00    -0.525 OA 
HETATM   21  H   UNL     1     -12.067  17.047  71.170  1.00  0.00     0.000 HD 
ENDBRANCH  13  19
ENDBRANCH   8  11
ENDBRANCH   7   8
ENDBRANCH   3   7
TORSDOF 4
ENDMDL
MODEL      145
REMARK 921   NORMALIZED FREE ENERGY PREDICTED BY IDOCK:   -3.81 KCAL/MOL
REMARK 922        TOTAL FREE ENERGY PREDICTED BY IDOCK:   -5.41 KCAL/MOL
REMARK 923 INTER-LIGAND FREE ENERGY PREDICTED BY IDOCK:   -4.86 KCAL/MOL
REMARK 924 INTRA-LIGAND FREE ENERGY PREDICTED BY IDOCK:   -0.55 KCAL/MOL
REMARK 927      BINDING AFFINITY PREDICTED BY RF-SCORE:    0.00 PKD
ROOT
HETATM    1  C   UNL     1     -10.702  16.668  65.416  1.00  0.00    -0.228 C  
HETATM    2  C   UNL     1     -10.369  16.393  66.892  1.00  0.00    -0.300 C  
HETATM    3  N   UNL     1     -11.298  15.404  67.476  1.00  0.00    -0.308 NA 
HETATM    4  C   UNL     1      -8.897  15.981  67.039  1.00  0.00    -0.235 C  
HETATM    5  C   UNL     1     -10.584  17.697  67.688  1.00  0.00    -0.364 C  
HETATM    6  H   UNL     1     -11.914  15.636  68.255  1.00  0.00     0.000 HD 
ENDROOT
BRANCH   3   7
HETATM    7  C   UNL     1     -11.284  14.061  66.866  1.00  0.00    -0.313 C  
BRANCH   7   8
HETATM    8  C   UNL     1     -11.558  12.882  67.851  1.00  0.00    -0.345 C  
HETATM    9  H   UNL     1     -11.260  12.584  69.742  1.00  0.00     0.000 HD 
HETATM   10  O   UNL     1     -11.093  13.302  69.143  1.00  0.00    -0.253 OA 
BRANCH   8  11
HETATM   11  C   UNL     1     -10.945  11.540  67.462  1.00  0.00    -0.308 A  
HETATM   12  C   UNL     1     -10.222  11.418  66.262  1.00  0.00    -0.274 A  
HETATM   13  C   UNL     1      -9.606  10.214  65.873  1.00  0.00    -0.274 A  
HETATM   14  C   UNL     1      -9.832   9.081  66.661  1.00  0.00    -0.248 A  
HETATM   15  H   UNL     1      -9.490   7.082  66.862  1.00  0.00     0.000 HD 
HETATM   16  C   UNL     1     -10.576   9.160  67.830  1.00  0.00    -0.289 A  
HETATM   17  O   UNL     1      -9.337   7.852  66.326  1.00  0.00    -0.188 OA 
HETATM   18  C   UNL     1     -11.105  10.386  68.245  1.00  0.00    -0.338 A  
BRANCH  13  19
HETATM   19  C   UNL     1      -8.786  10.193  64.612  1.00  0.00    -0.189 C  
HETATM   20  O   UNL     1      -9.183   9.112  63.771  1.00  0.00    -0.402 OA 
HETATM   21  H   UNL     1      -8.666   9.098  62.974  1.00  0.00     0.000 HD 
ENDBRANCH  13  19
ENDBRANCH   8  11
ENDBRANCH   7   8
ENDBRANCH   3   7
TORSDOF 4
ENDMDL
MODEL      146
REMARK 921   NORMALIZED FREE ENERGY PREDICTED BY IDOCK:   -3.80 KCAL/MOL
REMARK 922        TOTAL FREE ENERGY PREDICTED BY IDOCK:   -5.40 KCAL/MOL
REMARK 923 INTER-LIGAND FREE ENERGY PREDICTED BY IDOCK:   -5.06 KCAL/MOL
REMARK 924 INTRA-LIGAND FREE ENERGY PREDICTED BY IDOCK:   -0.33 KCAL/MOL
REMARK 927      BINDING AFFINITY PREDICTED BY RF-SCORE:    0.00 PKD
ROOT
HETATM    1  C   UNL     1     -12.635  12.595  65.494  1.00  0.00    -0.182 C  
HETATM    2  C   UNL     1     -11.570  12.336  64.416  1.00  0.00    -0.360 C  
HETATM    3  N   UNL     1     -11.158  13.592  63.755  1.00  0.00    -0.517 NA 
HETATM    4  C   UNL     1     -10.383  11.566  65.014  1.00  0.00    -0.333 C  
HETATM    5  C   UNL     1     -12.201  11.464  63.311  1.00  0.00     0.172 C  
HETATM    6  H   UNL     1     -11.302  13.749  62.758  1.00  0.00     0.000 HD 
ENDROOT
BRANCH   3   7
HETATM    7  C   UNL     1     -10.528  14.605  64.623  1.00  0.00    -0.175 C  
BRANCH   7   8
HETATM    8  C   UNL     1     -11.463  15.774  65.064  1.00  0.00    -0.122 C  
HETATM    9  H   UNL     1     -12.201  17.337  64.189  1.00  0.00     0.000 HD 
HETATM   10  O   UNL     1     -11.633  16.625  63.920  1.00  0.00    -1.204 OA 
BRANCH   8  11
HETATM   11  C   UNL     1     -10.992  16.576  66.274  1.00  0.00     0.085 A  
HETATM   12  C   UNL     1     -11.083  16.022  67.564  1.00  0.00    -0.207 A  
HETATM   13  C   UNL     1     -10.630  16.702  68.709  1.00  0.00    -0.340 A  
HETATM   14  C   UNL     1     -10.188  18.020  68.553  1.00  0.00    -0.385 A  
HETATM   15  H   UNL     1      -9.497  19.681  69.510  1.00  0.00     0.000 HD 
HETATM   16  C   UNL     1     -10.126  18.610  67.299  1.00  0.00    -0.388 A  
HETATM   17  O   UNL     1      -9.798  18.786  69.615  1.00  0.00     0.063 OA 
HETATM   18  C   UNL     1     -10.497  17.884  66.162  1.00  0.00    -0.321 A  
BRANCH  13  19
HETATM   19  C   UNL     1     -10.692  16.003  70.040  1.00  0.00    -0.328 C  
HETATM   20  O   UNL     1     -11.841  16.423  70.775  1.00  0.00    -0.521 OA 
HETATM   21  H   UNL     1     -11.881  15.982  71.615  1.00  0.00     0.000 HD 
ENDBRANCH  13  19
ENDBRANCH   8  11
ENDBRANCH   7   8
ENDBRANCH   3   7
TORSDOF 4
ENDMDL
MODEL      147
REMARK 921   NORMALIZED FREE ENERGY PREDICTED BY IDOCK:   -3.80 KCAL/MOL
REMARK 922        TOTAL FREE ENERGY PREDICTED BY IDOCK:   -5.40 KCAL/MOL
REMARK 923 INTER-LIGAND FREE ENERGY PREDICTED BY IDOCK:   -4.84 KCAL/MOL
REMARK 924 INTRA-LIGAND FREE ENERGY PREDICTED BY IDOCK:   -0.55 KCAL/MOL
REMARK 927      BINDING AFFINITY PREDICTED BY RF-SCORE:    0.00 PKD
ROOT
HETATM    1  C   UNL     1      -8.683  20.036  68.083  1.00  0.00    -0.229 C  
HETATM    2  C   UNL     1      -9.421  19.453  66.867  1.00  0.00    -0.333 C  
HETATM    3  N   UNL     1      -8.598  18.441  66.174  1.00  0.00    -0.490 NA 
HETATM    4  C   UNL     1     -10.795  18.912  67.287  1.00  0.00    -0.448 C  
HETATM    5  C   UNL     1      -9.644  20.589  65.847  1.00  0.00     0.010 C  
HETATM    6  H   UNL     1      -8.296  18.561  65.208  1.00  0.00     0.000 HD 
ENDROOT
BRANCH   3   7
HETATM    7  C   UNL     1      -8.240  17.246  66.961  1.00  0.00    -0.208 C  
BRANCH   7   8
HETATM    8  C   UNL     1      -8.872  15.909  66.462  1.00  0.00    -0.305 C  
HETATM    9  H   UNL     1     -10.061  15.416  65.015  1.00  0.00     0.000 HD 
HETATM   10  O   UNL     1      -9.677  16.230  65.318  1.00  0.00    -0.429 OA 
BRANCH   8  11
HETATM   11  C   UNL     1      -9.681  15.134  67.498  1.00  0.00    -0.205 A  
HETATM   12  C   UNL     1     -10.319  13.933  67.137  1.00  0.00    -0.265 A  
HETATM   13  C   UNL     1     -11.047  13.161  68.061  1.00  0.00    -0.290 A  
HETATM   14  C   UNL     1     -11.231  13.681  69.345  1.00  0.00    -0.196 A  
HETATM   15  H   UNL     1     -12.108  13.393  71.162  1.00  0.00     0.000 HD 
HETATM   16  C   UNL     1     -10.649  14.884  69.720  1.00  0.00    -0.189 A  
HETATM   17  O   UNL     1     -11.983  13.040  70.289  1.00  0.00    -0.337 OA 
HETATM   18  C   UNL     1      -9.855  15.593  68.813  1.00  0.00    -0.213 A  
BRANCH  13  19
HETATM   19  C   UNL     1     -11.630  11.849  67.609  1.00  0.00    -0.312 C  
HETATM   20  O   UNL     1     -12.359  12.016  66.394  1.00  0.00    -0.403 OA 
HETATM   21  H   UNL     1     -12.728  11.188  66.108  1.00  0.00     0.000 HD 
ENDBRANCH  13  19
ENDBRANCH   8  11
ENDBRANCH   7   8
ENDBRANCH   3   7
TORSDOF 4
ENDMDL
MODEL      148
REMARK 921   NORMALIZED FREE ENERGY PREDICTED BY IDOCK:   -3.80 KCAL/MOL
REMARK 922        TOTAL FREE ENERGY PREDICTED BY IDOCK:   -5.39 KCAL/MOL
REMARK 923 INTER-LIGAND FREE ENERGY PREDICTED BY IDOCK:   -4.69 KCAL/MOL
REMARK 924 INTRA-LIGAND FREE ENERGY PREDICTED BY IDOCK:   -0.70 KCAL/MOL
REMARK 927      BINDING AFFINITY PREDICTED BY RF-SCORE:    0.00 PKD
ROOT
HETATM    1  C   UNL     1      -6.203   9.636  66.153  1.00  0.00    -0.068 C  
HETATM    2  C   UNL     1      -6.309  10.549  67.385  1.00  0.00    -0.058 C  
HETATM    3  N   UNL     1      -7.713  10.706  67.818  1.00  0.00    -0.099 NA 
HETATM    4  C   UNL     1      -5.398  10.035  68.510  1.00  0.00    -0.039 C  
HETATM    5  C   UNL     1      -5.829  11.960  66.985  1.00  0.00    -0.153 C  
HETATM    6  H   UNL     1      -8.178  11.613  67.821  1.00  0.00     0.000 HD 
ENDROOT
BRANCH   3   7
HETATM    7  C   UNL     1      -8.401   9.474  68.245  1.00  0.00    -0.118 C  
BRANCH   7   8
HETATM    8  C   UNL     1      -9.860   9.310  67.714  1.00  0.00    -0.171 C  
HETATM    9  H   UNL     1     -10.912   7.828  67.046  1.00  0.00     0.000 HD 
HETATM   10  O   UNL     1     -10.025   7.927  67.369  1.00  0.00    -0.164 OA 
BRANCH   8  11
HETATM   11  C   UNL     1     -10.243  10.213  66.545  1.00  0.00    -0.288 A  
HETATM   12  C   UNL     1     -11.037  11.352  66.766  1.00  0.00    -0.343 A  
HETATM   13  C   UNL     1     -11.388  12.237  65.730  1.00  0.00    -0.400 A  
HETATM   14  C   UNL     1     -11.025  11.891  64.424  1.00  0.00    -0.337 A  
HETATM   15  H   UNL     1     -11.137  12.414  62.458  1.00  0.00     0.000 HD 
HETATM   16  C   UNL     1     -10.277  10.751  64.169  1.00  0.00    -0.412 A  
HETATM   17  O   UNL     1     -11.384  12.649  63.345  1.00  0.00    -0.482 OA 
HETATM   18  C   UNL     1      -9.862   9.932  65.224  1.00  0.00    -0.373 A  
BRANCH  13  19
HETATM   19  C   UNL     1     -12.176  13.474  66.068  1.00  0.00    -0.445 C  
HETATM   20  O   UNL     1     -13.243  13.660  65.141  1.00  0.00    -0.739 OA 
HETATM   21  H   UNL     1     -13.741  14.441  65.354  1.00  0.00     0.000 HD 
ENDBRANCH  13  19
ENDBRANCH   8  11
ENDBRANCH   7   8
ENDBRANCH   3   7
TORSDOF 4
ENDMDL
MODEL      149
REMARK 921   NORMALIZED FREE ENERGY PREDICTED BY IDOCK:   -3.76 KCAL/MOL
REMARK 922        TOTAL FREE ENERGY PREDICTED BY IDOCK:   -5.35 KCAL/MOL
REMARK 923 INTER-LIGAND FREE ENERGY PREDICTED BY IDOCK:   -5.02 KCAL/MOL
REMARK 924 INTRA-LIGAND FREE ENERGY PREDICTED BY IDOCK:   -0.33 KCAL/MOL
REMARK 927      BINDING AFFINITY PREDICTED BY RF-SCORE:    0.00 PKD
ROOT
HETATM    1  C   UNL     1     -10.678  16.684  65.411  1.00  0.00    -0.228 C  
HETATM    2  C   UNL     1     -10.248  16.277  66.830  1.00  0.00    -0.288 C  
HETATM    3  N   UNL     1     -10.997  15.093  67.299  1.00  0.00    -0.321 NA 
HETATM    4  C   UNL     1      -8.727  16.075  66.888  1.00  0.00    -0.259 C  
HETATM    5  C   UNL     1     -10.618  17.421  67.796  1.00  0.00    -0.371 C  
HETATM    6  H   UNL     1     -11.607  15.128  68.115  1.00  0.00     0.000 HD 
ENDROOT
BRANCH   3   7
HETATM    7  C   UNL     1     -10.812  13.856  66.517  1.00  0.00    -0.295 C  
BRANCH   7   8
HETATM    8  C   UNL     1     -11.272  12.545  67.228  1.00  0.00    -0.295 C  
HETATM    9  H   UNL     1     -11.409  11.968  69.072  1.00  0.00     0.000 HD 
HETATM   10  O   UNL     1     -11.129  12.765  68.639  1.00  0.00    -0.240 OA 
BRANCH   8  11
HETATM   11  C   UNL     1     -10.549  11.272  66.799  1.00  0.00    -0.305 A  
HETATM   12  C   UNL     1     -10.841  10.050  67.432  1.00  0.00    -0.313 A  
HETATM   13  C   UNL     1     -10.231   8.841  67.051  1.00  0.00    -0.351 A  
HETATM   14  C   UNL     1      -9.216   8.895  66.091  1.00  0.00    -0.217 A  
HETATM   15  H   UNL     1      -7.827   7.822  65.057  1.00  0.00     0.000 HD 
HETATM   16  C   UNL     1      -8.876  10.093  65.478  1.00  0.00    -0.191 A  
HETATM   17  O   UNL     1      -8.516   7.785  65.709  1.00  0.00    -0.133 OA 
HETATM   18  C   UNL     1      -9.557  11.269  65.807  1.00  0.00    -0.256 A  
BRANCH  13  19
HETATM   19  C   UNL     1     -10.661   7.567  67.728  1.00  0.00    -0.206 C  
HETATM   20  O   UNL     1     -11.498   6.798  66.867  1.00  0.00    -0.752 OA 
HETATM   21  H   UNL     1     -11.770   5.994  67.294  1.00  0.00     0.000 HD 
ENDBRANCH  13  19
ENDBRANCH   8  11
ENDBRANCH   7   8
ENDBRANCH   3   7
TORSDOF 4
ENDMDL
MODEL      150
REMARK 921   NORMALIZED FREE ENERGY PREDICTED BY IDOCK:   -3.74 KCAL/MOL
REMARK 922        TOTAL FREE ENERGY PREDICTED BY IDOCK:   -5.32 KCAL/MOL
REMARK 923 INTER-LIGAND FREE ENERGY PREDICTED BY IDOCK:   -4.94 KCAL/MOL
REMARK 924 INTRA-LIGAND FREE ENERGY PREDICTED BY IDOCK:   -0.38 KCAL/MOL
REMARK 927      BINDING AFFINITY PREDICTED BY RF-SCORE:    0.00 PKD
ROOT
HETATM    1  C   UNL     1      -8.827   7.066  71.007  1.00  0.00    -0.146 C  
HETATM    2  C   UNL     1      -9.159   7.383  72.474  1.00  0.00    -0.140 C  
HETATM    3  N   UNL     1     -10.124   8.498  72.576  1.00  0.00    -0.287 NA 
HETATM    4  C   UNL     1      -9.640   6.117  73.198  1.00  0.00    -0.147 C  
HETATM    5  C   UNL     1      -7.871   7.874  73.167  1.00  0.00    -0.187 C  
HETATM    6  H   UNL     1      -9.889   9.374  73.041  1.00  0.00     0.000 HD 
ENDROOT
BRANCH   3   7
HETATM    7  C   UNL     1     -11.448   8.268  71.968  1.00  0.00    -0.334 C  
BRANCH   7   8
HETATM    8  C   UNL     1     -12.379   9.519  71.913  1.00  0.00    -0.373 C  
HETATM    9  H   UNL     1     -14.290   9.793  71.747  1.00  0.00     0.000 HD 
HETATM   10  O   UNL     1     -13.723   9.032  71.780  1.00  0.00    -0.390 OA 
BRANCH   8  11
HETATM   11  C   UNL     1     -12.058  10.535  70.820  1.00  0.00    -0.470 A  
HETATM   12  C   UNL     1     -11.457  10.112  69.621  1.00  0.00    -0.256 A  
HETATM   13  C   UNL     1     -11.174  11.000  68.567  1.00  0.00    -0.329 A  
HETATM   14  C   UNL     1     -11.394  12.364  68.786  1.00  0.00    -0.293 A  
HETATM   15  H   UNL     1     -11.232  14.236  67.998  1.00  0.00     0.000 HD 
HETATM   16  C   UNL     1     -11.947  12.817  69.975  1.00  0.00    -0.371 A  
HETATM   17  O   UNL     1     -11.082  13.310  67.850  1.00  0.00    -0.246 OA 
HETATM   18  C   UNL     1     -12.305  11.907  70.975  1.00  0.00    -0.362 A  
BRANCH  13  19
HETATM   19  C   UNL     1     -10.603  10.450  67.288  1.00  0.00    -0.267 C  
HETATM   20  O   UNL     1     -10.942   9.072  67.138  1.00  0.00    -0.347 OA 
HETATM   21  H   UNL     1     -10.581   8.724  66.331  1.00  0.00     0.000 HD 
ENDBRANCH  13  19
ENDBRANCH   8  11
ENDBRANCH   7   8
ENDBRANCH   3   7
TORSDOF 4
ENDMDL
MODEL      151
REMARK 921   NORMALIZED FREE ENERGY PREDICTED BY IDOCK:   -3.73 KCAL/MOL
REMARK 922        TOTAL FREE ENERGY PREDICTED BY IDOCK:   -5.32 KCAL/MOL
REMARK 923 INTER-LIGAND FREE ENERGY PREDICTED BY IDOCK:   -4.81 KCAL/MOL
REMARK 924 INTRA-LIGAND FREE ENERGY PREDICTED BY IDOCK:   -0.50 KCAL/MOL
REMARK 927      BINDING AFFINITY PREDICTED BY RF-SCORE:    0.00 PKD
ROOT
HETATM    1  C   UNL     1     -11.167   6.897  70.243  1.00  0.00    -0.363 C  
HETATM    2  C   UNL     1     -10.586   7.702  71.418  1.00  0.00    -0.213 C  
HETATM    3  N   UNL     1     -10.182   9.057  70.991  1.00  0.00    -0.251 NA 
HETATM    4  C   UNL     1     -11.575   7.721  72.592  1.00  0.00    -0.398 C  
HETATM    5  C   UNL     1      -9.294   7.004  71.889  1.00  0.00    -0.147 C  
HETATM    6  H   UNL     1      -9.214   9.374  71.046  1.00  0.00     0.000 HD 
ENDROOT
BRANCH   3   7
HETATM    7  C   UNL     1     -11.260   9.926  70.483  1.00  0.00    -0.330 C  
BRANCH   7   8
HETATM    8  C   UNL     1     -11.055  10.455  69.029  1.00  0.00    -0.248 C  
HETATM    9  H   UNL     1      -9.663  10.277  67.693  1.00  0.00     0.000 HD 
HETATM   10  O   UNL     1      -9.788   9.955  68.578  1.00  0.00    -0.150 OA 
BRANCH   8  11
HETATM   11  C   UNL     1     -11.135  11.969  68.859  1.00  0.00    -0.298 A  
HETATM   12  C   UNL     1     -10.299  12.618  67.933  1.00  0.00    -0.221 A  
HETATM   13  C   UNL     1     -10.357  14.007  67.711  1.00  0.00    -0.236 A  
HETATM   14  C   UNL     1     -11.196  14.765  68.532  1.00  0.00    -0.276 A  
HETATM   15  H   UNL     1     -11.837  16.642  69.000  1.00  0.00     0.000 HD 
HETATM   16  C   UNL     1     -12.004  14.158  69.484  1.00  0.00    -0.389 A  
HETATM   17  O   UNL     1     -11.266  16.127  68.442  1.00  0.00    -0.345 OA 
HETATM   18  C   UNL     1     -11.997  12.767  69.628  1.00  0.00    -0.354 A  
BRANCH  13  19
HETATM   19  C   UNL     1      -9.481  14.607  66.645  1.00  0.00    -0.278 C  
HETATM   20  O   UNL     1     -10.272  15.238  65.640  1.00  0.00    -0.315 OA 
HETATM   21  H   UNL     1      -9.720  15.617  64.966  1.00  0.00     0.000 HD 
ENDBRANCH  13  19
ENDBRANCH   8  11
ENDBRANCH   7   8
ENDBRANCH   3   7
TORSDOF 4
ENDMDL
MODEL      152
REMARK 921   NORMALIZED FREE ENERGY PREDICTED BY IDOCK:   -3.73 KCAL/MOL
REMARK 922        TOTAL FREE ENERGY PREDICTED BY IDOCK:   -5.31 KCAL/MOL
REMARK 923 INTER-LIGAND FREE ENERGY PREDICTED BY IDOCK:   -4.64 KCAL/MOL
REMARK 924 INTRA-LIGAND FREE ENERGY PREDICTED BY IDOCK:   -0.67 KCAL/MOL
REMARK 927      BINDING AFFINITY PREDICTED BY RF-SCORE:    0.00 PKD
ROOT
HETATM    1  C   UNL     1      -8.464  11.003  66.882  1.00  0.00    -0.139 C  
HETATM    2  C   UNL     1      -9.919  10.522  67.009  1.00  0.00    -0.201 C  
HETATM    3  N   UNL     1     -10.050   9.102  66.621  1.00  0.00    -0.265 NA 
HETATM    4  C   UNL     1     -10.451  10.800  68.422  1.00  0.00    -0.207 C  
HETATM    5  C   UNL     1     -10.781  11.316  66.006  1.00  0.00    -0.301 C  
HETATM    6  H   UNL     1     -10.628   8.809  65.834  1.00  0.00     0.000 HD 
ENDROOT
BRANCH   3   7
HETATM    7  C   UNL     1      -9.296   8.134  67.439  1.00  0.00    -0.141 C  
BRANCH   7   8
HETATM    8  C   UNL     1     -10.055   6.810  67.768  1.00  0.00    -0.154 C  
HETATM    9  H   UNL     1     -11.724   6.013  67.190  1.00  0.00     0.000 HD 
HETATM   10  O   UNL     1     -11.262   6.818  66.990  1.00  0.00    -0.393 OA 
BRANCH   8  11
HETATM   11  C   UNL     1     -10.361   6.572  69.244  1.00  0.00    -0.237 A  
HETATM   12  C   UNL     1     -10.835   7.628  70.043  1.00  0.00    -0.250 A  
HETATM   13  C   UNL     1     -11.167   7.454  71.400  1.00  0.00    -0.272 A  
HETATM   14  C   UNL     1     -10.895   6.213  71.985  1.00  0.00    -0.247 A  
HETATM   15  H   UNL     1     -10.930   5.129  73.709  1.00  0.00     0.000 HD 
HETATM   16  C   UNL     1     -10.388   5.164  71.232  1.00  0.00    -0.276 A  
HETATM   17  O   UNL     1     -11.115   5.972  73.312  1.00  0.00    -0.244 OA 
HETATM   18  C   UNL     1     -10.149   5.331  69.864  1.00  0.00    -0.333 A  
BRANCH  13  19
HETATM   19  C   UNL     1     -11.743   8.618  72.160  1.00  0.00    -0.371 C  
HETATM   20  O   UNL     1     -12.953   8.242  72.815  1.00  0.00    -0.609 OA 
HETATM   21  H   UNL     1     -13.317   8.976  73.295  1.00  0.00     0.000 HD 
ENDBRANCH  13  19
ENDBRANCH   8  11
ENDBRANCH   7   8
ENDBRANCH   3   7
TORSDOF 4
ENDMDL
MODEL      153
REMARK 921   NORMALIZED FREE ENERGY PREDICTED BY IDOCK:   -3.72 KCAL/MOL
REMARK 922        TOTAL FREE ENERGY PREDICTED BY IDOCK:   -5.29 KCAL/MOL
REMARK 923 INTER-LIGAND FREE ENERGY PREDICTED BY IDOCK:   -5.05 KCAL/MOL
REMARK 924 INTRA-LIGAND FREE ENERGY PREDICTED BY IDOCK:   -0.25 KCAL/MOL
REMARK 927      BINDING AFFINITY PREDICTED BY RF-SCORE:    0.00 PKD
ROOT
HETATM    1  C   UNL     1      -8.005  10.506  67.887  1.00  0.00    -0.106 C  
HETATM    2  C   UNL     1      -9.494  10.648  68.244  1.00  0.00    -0.159 C  
HETATM    3  N   UNL     1      -9.770  11.951  68.885  1.00  0.00    -0.413 NA 
HETATM    4  C   UNL     1     -10.365  10.404  67.003  1.00  0.00    -0.295 C  
HETATM    5  C   UNL     1      -9.845   9.576  69.296  1.00  0.00    -0.184 C  
HETATM    6  H   UNL     1     -10.127  12.018  69.838  1.00  0.00     0.000 HD 
ENDROOT
BRANCH   3   7
HETATM    7  C   UNL     1      -9.498  13.147  68.067  1.00  0.00    -0.220 C  
BRANCH   7   8
HETATM    8  C   UNL     1      -9.884  14.506  68.730  1.00  0.00    -0.220 C  
HETATM    9  H   UNL     1     -11.300  15.095  69.913  1.00  0.00     0.000 HD 
HETATM   10  O   UNL     1     -11.065  14.268  69.510  1.00  0.00    -0.245 OA 
BRANCH   8  11
HETATM   11  C   UNL     1     -10.091  15.674  67.770  1.00  0.00    -0.226 A  
HETATM   12  C   UNL     1     -10.306  16.970  68.274  1.00  0.00    -0.347 A  
HETATM   13  C   UNL     1     -10.466  18.087  67.434  1.00  0.00    -0.399 A  
HETATM   14  C   UNL     1     -10.530  17.864  66.056  1.00  0.00    -0.293 A  
HETATM   15  H   UNL     1     -10.800  18.724  64.228  1.00  0.00     0.000 HD 
HETATM   16  C   UNL     1     -10.364  16.591  65.529  1.00  0.00    -0.307 A  
HETATM   17  O   UNL     1     -10.756  18.876  65.165  1.00  0.00    -0.438 OA 
HETATM   18  C   UNL     1     -10.116  15.506  66.377  1.00  0.00    -0.301 A  
BRANCH  13  19
HETATM   19  C   UNL     1     -10.612  19.448  68.059  1.00  0.00    -0.338 C  
HETATM   20  O   UNL     1     -10.136  19.438  69.404  1.00  0.00    -0.555 OA 
HETATM   21  H   UNL     1     -10.228  20.298  69.798  1.00  0.00     0.000 HD 
ENDBRANCH  13  19
ENDBRANCH   8  11
ENDBRANCH   7   8
ENDBRANCH   3   7
TORSDOF 4
ENDMDL
MODEL      154
REMARK 921   NORMALIZED FREE ENERGY PREDICTED BY IDOCK:   -3.70 KCAL/MOL
REMARK 922        TOTAL FREE ENERGY PREDICTED BY IDOCK:   -5.28 KCAL/MOL
REMARK 923 INTER-LIGAND FREE ENERGY PREDICTED BY IDOCK:   -4.67 KCAL/MOL
REMARK 924 INTRA-LIGAND FREE ENERGY PREDICTED BY IDOCK:   -0.61 KCAL/MOL
REMARK 927      BINDING AFFINITY PREDICTED BY RF-SCORE:    0.00 PKD
ROOT
HETATM    1  C   UNL     1     -10.041  12.653  64.083  1.00  0.00    -0.293 C  
HETATM    2  C   UNL     1     -11.414  12.302  64.680  1.00  0.00    -0.336 C  
HETATM    3  N   UNL     1     -11.998  13.455  65.395  1.00  0.00    -0.364 NA 
HETATM    4  C   UNL     1     -12.344  11.748  63.591  1.00  0.00    -0.488 C  
HETATM    5  C   UNL     1     -11.212  11.203  65.744  1.00  0.00    -0.001 C  
HETATM    6  H   UNL     1     -12.198  13.425  66.395  1.00  0.00     0.000 HD 
ENDROOT
BRANCH   3   7
HETATM    7  C   UNL     1     -12.276  14.651  64.579  1.00  0.00    -0.456 C  
BRANCH   7   8
HETATM    8  C   UNL     1     -11.778  16.000  65.186  1.00  0.00     0.348 C  
HETATM    9  H   UNL     1     -10.869  17.561  64.486  1.00  0.00     0.000 HD 
HETATM   10  O   UNL     1     -11.172  16.740  64.116  1.00  0.00    -1.155 OA 
BRANCH   8  11
HETATM   11  C   UNL     1     -10.825  15.879  66.372  1.00  0.00    -0.193 A  
HETATM   12  C   UNL     1      -9.434  15.899  66.162  1.00  0.00    -0.375 A  
HETATM   13  C   UNL     1      -8.512  15.828  67.222  1.00  0.00    -0.212 A  
HETATM   14  C   UNL     1      -9.013  15.610  68.509  1.00  0.00    -0.192 A  
HETATM   15  H   UNL     1      -8.532  15.306  70.466  1.00  0.00     0.000 HD 
HETATM   16  C   UNL     1     -10.378  15.543  68.744  1.00  0.00    -0.217 A  
HETATM   17  O   UNL     1      -8.192  15.454  69.591  1.00  0.00    -0.235 OA 
HETATM   18  C   UNL     1     -11.281  15.705  67.688  1.00  0.00    -0.274 A  
BRANCH  13  19
HETATM   19  C   UNL     1      -7.043  15.937  66.914  1.00  0.00    -0.096 C  
HETATM   20  O   UNL     1      -6.495  17.122  67.489  1.00  0.00    -0.125 OA 
HETATM   21  H   UNL     1      -5.568  17.191  67.294  1.00  0.00     0.000 HD 
ENDBRANCH  13  19
ENDBRANCH   8  11
ENDBRANCH   7   8
ENDBRANCH   3   7
TORSDOF 4
ENDMDL
MODEL      155
REMARK 921   NORMALIZED FREE ENERGY PREDICTED BY IDOCK:   -3.70 KCAL/MOL
REMARK 922        TOTAL FREE ENERGY PREDICTED BY IDOCK:   -5.28 KCAL/MOL
REMARK 923 INTER-LIGAND FREE ENERGY PREDICTED BY IDOCK:   -5.00 KCAL/MOL
REMARK 924 INTRA-LIGAND FREE ENERGY PREDICTED BY IDOCK:   -0.28 KCAL/MOL
REMARK 927      BINDING AFFINITY PREDICTED BY RF-SCORE:    0.00 PKD
ROOT
HETATM    1  C   UNL     1      -9.351   4.673  68.465  1.00  0.00    -0.190 C  
HETATM    2  C   UNL     1      -8.871   5.538  69.642  1.00  0.00    -0.111 C  
HETATM    3  N   UNL     1      -9.380   6.920  69.535  1.00  0.00    -0.148 NA 
HETATM    4  C   UNL     1      -9.238   4.874  70.977  1.00  0.00    -0.192 C  
HETATM    5  C   UNL     1      -7.334   5.646  69.567  1.00  0.00    -0.067 C  
HETATM    6  H   UNL     1      -8.755   7.720  69.441  1.00  0.00     0.000 HD 
ENDROOT
BRANCH   3   7
HETATM    7  C   UNL     1     -10.846   7.076  69.573  1.00  0.00    -0.238 C  
BRANCH   7   8
HETATM    8  C   UNL     1     -11.426   7.571  70.935  1.00  0.00    -0.281 C  
HETATM    9  H   UNL     1     -12.863   6.993  72.099  1.00  0.00     0.000 HD 
HETATM   10  O   UNL     1     -12.510   6.692  71.270  1.00  0.00    -0.340 OA 
BRANCH   8  11
HETATM   11  C   UNL     1     -11.876   9.029  70.971  1.00  0.00    -0.339 A  
HETATM   12  C   UNL     1     -11.367   9.946  70.034  1.00  0.00    -0.303 A  
HETATM   13  C   UNL     1     -11.776  11.292  70.000  1.00  0.00    -0.428 A  
HETATM   14  C   UNL     1     -12.627  11.742  71.014  1.00  0.00    -0.310 A  
HETATM   15  H   UNL     1     -13.598  13.353  71.796  1.00  0.00     0.000 HD 
HETATM   16  C   UNL     1     -13.113  10.871  71.978  1.00  0.00    -0.462 A  
HETATM   17  O   UNL     1     -13.020  13.047  71.107  1.00  0.00    -0.280 OA 
HETATM   18  C   UNL     1     -12.765   9.516  71.941  1.00  0.00    -0.496 A  
BRANCH  13  19
HETATM   19  C   UNL     1     -11.240  12.185  68.914  1.00  0.00    -0.269 C  
HETATM   20  O   UNL     1     -11.950  11.976  67.695  1.00  0.00    -0.547 OA 
HETATM   21  H   UNL     1     -11.612  12.539  67.008  1.00  0.00     0.000 HD 
ENDBRANCH  13  19
ENDBRANCH   8  11
ENDBRANCH   7   8
ENDBRANCH   3   7
TORSDOF 4
ENDMDL
MODEL      156
REMARK 921   NORMALIZED FREE ENERGY PREDICTED BY IDOCK:   -3.66 KCAL/MOL
REMARK 922        TOTAL FREE ENERGY PREDICTED BY IDOCK:   -5.23 KCAL/MOL
REMARK 923 INTER-LIGAND FREE ENERGY PREDICTED BY IDOCK:   -4.76 KCAL/MOL
REMARK 924 INTRA-LIGAND FREE ENERGY PREDICTED BY IDOCK:   -0.47 KCAL/MOL
REMARK 927      BINDING AFFINITY PREDICTED BY RF-SCORE:    0.00 PKD
ROOT
HETATM    1  C   UNL     1     -11.229  14.972  66.992  1.00  0.00    -0.328 C  
HETATM    2  C   UNL     1     -11.262  14.561  65.511  1.00  0.00    -0.335 C  
HETATM    3  N   UNL     1     -10.207  13.573  65.205  1.00  0.00    -0.407 NA 
HETATM    4  C   UNL     1     -12.664  14.066  65.126  1.00  0.00    -0.419 C  
HETATM    5  C   UNL     1     -10.939  15.803  64.656  1.00  0.00    -0.333 C  
HETATM    6  H   UNL     1      -9.461  13.770  64.538  1.00  0.00     0.000 HD 
ENDROOT
BRANCH   3   7
HETATM    7  C   UNL     1     -10.296  12.286  65.920  1.00  0.00    -0.252 C  
BRANCH   7   8
HETATM    8  C   UNL     1      -9.354  12.146  67.156  1.00  0.00    -0.193 C  
HETATM    9  H   UNL     1      -7.532  11.544  67.424  1.00  0.00     0.000 HD 
HETATM   10  O   UNL     1      -8.105  11.629  66.672  1.00  0.00    -0.165 OA 
BRANCH   8  11
HETATM   11  C   UNL     1      -9.889  11.293  68.302  1.00  0.00    -0.201 A  
HETATM   12  C   UNL     1     -11.117  11.617  68.906  1.00  0.00    -0.287 A  
HETATM   13  C   UNL     1     -11.673  10.844  69.942  1.00  0.00    -0.418 A  
HETATM   14  C   UNL     1     -10.909   9.791  70.454  1.00  0.00    -0.311 A  
HETATM   15  H   UNL     1     -10.813   8.314  71.854  1.00  0.00     0.000 HD 
HETATM   16  C   UNL     1      -9.674   9.472  69.907  1.00  0.00    -0.252 A  
HETATM   17  O   UNL     1     -11.332   9.030  71.507  1.00  0.00    -0.292 OA 
HETATM   18  C   UNL     1      -9.179  10.199  68.819  1.00  0.00    -0.164 A  
BRANCH  13  19
HETATM   19  C   UNL     1     -13.029  11.217  70.477  1.00  0.00     0.023 C  
HETATM   20  O   UNL     1     -12.915  11.805  71.772  1.00  0.00    -0.423 OA 
HETATM   21  H   UNL     1     -13.770  12.041  72.110  1.00  0.00     0.000 HD 
ENDBRANCH  13  19
ENDBRANCH   8  11
ENDBRANCH   7   8
ENDBRANCH   3   7
TORSDOF 4
ENDMDL
MODEL      157
REMARK 921   NORMALIZED FREE ENERGY PREDICTED BY IDOCK:   -3.65 KCAL/MOL
REMARK 922        TOTAL FREE ENERGY PREDICTED BY IDOCK:   -5.22 KCAL/MOL
REMARK 923 INTER-LIGAND FREE ENERGY PREDICTED BY IDOCK:   -4.85 KCAL/MOL
REMARK 924 INTRA-LIGAND FREE ENERGY PREDICTED BY IDOCK:   -0.37 KCAL/MOL
REMARK 927      BINDING AFFINITY PREDICTED BY RF-SCORE:    0.00 PKD
ROOT
HETATM    1  C   UNL     1      -9.766  11.919  68.923  1.00  0.00     0.041 C  
HETATM    2  C   UNL     1     -11.166  11.768  68.304  1.00  0.00    -0.255 C  
HETATM    3  N   UNL     1     -11.668  13.060  67.794  1.00  0.00    -0.346 NA 
HETATM    4  C   UNL     1     -11.158  10.671  67.230  1.00  0.00    -0.313 C  
HETATM    5  C   UNL     1     -12.144  11.343  69.418  1.00  0.00    -0.358 C  
HETATM    6  H   UNL     1     -12.511  13.497  68.168  1.00  0.00     0.000 HD 
ENDROOT
BRANCH   3   7
HETATM    7  C   UNL     1     -10.881  13.681  66.712  1.00  0.00    -0.290 C  
BRANCH   7   8
HETATM    8  C   UNL     1     -11.192  15.187  66.446  1.00  0.00    -0.277 C  
HETATM    9  H   UNL     1     -11.497  16.260  64.863  1.00  0.00     0.000 HD 
HETATM   10  O   UNL     1     -11.309  15.344  65.024  1.00  0.00    -0.370 OA 
BRANCH   8  11
HETATM   11  C   UNL     1     -10.187  16.181  67.023  1.00  0.00    -0.285 A  
HETATM   12  C   UNL     1     -10.270  17.543  66.681  1.00  0.00    -0.332 A  
HETATM   13  C   UNL     1      -9.392  18.507  67.212  1.00  0.00    -0.286 A  
HETATM   14  C   UNL     1      -8.336  18.058  68.011  1.00  0.00    -0.260 A  
HETATM   15  H   UNL     1      -6.673  18.604  69.054  1.00  0.00     0.000 HD 
HETATM   16  C   UNL     1      -8.203  16.715  68.332  1.00  0.00    -0.206 A  
HETATM   17  O   UNL     1      -7.391  18.909  68.512  1.00  0.00    -0.276 OA 
HETATM   18  C   UNL     1      -9.138  15.785  67.866  1.00  0.00    -0.186 A  
BRANCH  13  19
HETATM   19  C   UNL     1      -9.602  19.953  66.854  1.00  0.00    -0.394 C  
HETATM   20  O   UNL     1     -10.645  20.087  65.890  1.00  0.00    -0.456 OA 
HETATM   21  H   UNL     1     -10.778  21.000  65.664  1.00  0.00     0.000 HD 
ENDBRANCH  13  19
ENDBRANCH   8  11
ENDBRANCH   7   8
ENDBRANCH   3   7
TORSDOF 4
ENDMDL
MODEL      158
REMARK 921   NORMALIZED FREE ENERGY PREDICTED BY IDOCK:   -3.65 KCAL/MOL
REMARK 922        TOTAL FREE ENERGY PREDICTED BY IDOCK:   -5.21 KCAL/MOL
REMARK 923 INTER-LIGAND FREE ENERGY PREDICTED BY IDOCK:   -4.88 KCAL/MOL
REMARK 924 INTRA-LIGAND FREE ENERGY PREDICTED BY IDOCK:   -0.33 KCAL/MOL
REMARK 927      BINDING AFFINITY PREDICTED BY RF-SCORE:    0.00 PKD
ROOT
HETATM    1  C   UNL     1     -10.540   6.896  67.231  1.00  0.00    -0.393 C  
HETATM    2  C   UNL     1     -10.236   7.009  68.734  1.00  0.00    -0.176 C  
HETATM    3  N   UNL     1     -10.002   8.413  69.131  1.00  0.00    -0.191 NA 
HETATM    4  C   UNL     1     -11.348   6.340  69.555  1.00  0.00    -0.475 C  
HETATM    5  C   UNL     1      -8.915   6.264  69.017  1.00  0.00    -0.123 C  
HETATM    6  H   UNL     1      -9.110   8.724  69.513  1.00  0.00     0.000 HD 
ENDROOT
BRANCH   3   7
HETATM    7  C   UNL     1     -11.135   9.338  68.941  1.00  0.00     0.079 C  
BRANCH   7   8
HETATM    8  C   UNL     1     -11.450  10.261  70.160  1.00  0.00    -0.309 C  
HETATM    9  H   UNL     1     -12.752  10.233  71.593  1.00  0.00     0.000 HD 
HETATM   10  O   UNL     1     -12.561   9.672  70.852  1.00  0.00    -0.288 OA 
BRANCH   8  11
HETATM   11  C   UNL     1     -11.729  11.723  69.827  1.00  0.00    -0.408 A  
HETATM   12  C   UNL     1     -11.454  12.216  68.538  1.00  0.00    -0.349 A  
HETATM   13  C   UNL     1     -11.726  13.546  68.168  1.00  0.00    -0.396 A  
HETATM   14  C   UNL     1     -12.174  14.422  69.162  1.00  0.00    -0.220 A  
HETATM   15  H   UNL     1     -12.699  16.344  69.591  1.00  0.00     0.000 HD 
HETATM   16  C   UNL     1     -12.414  13.976  70.453  1.00  0.00    -0.418 A  
HETATM   17  O   UNL     1     -12.395  15.748  68.916  1.00  0.00    -0.142 OA 
HETATM   18  C   UNL     1     -12.222  12.629  70.778  1.00  0.00    -0.331 A  
BRANCH  13  19
HETATM   19  C   UNL     1     -11.475  13.969  66.745  1.00  0.00    -0.363 C  
HETATM   20  O   UNL     1     -11.791  12.910  65.843  1.00  0.00    -0.379 OA 
HETATM   21  H   UNL     1     -11.632  13.176  64.945  1.00  0.00     0.000 HD 
ENDBRANCH  13  19
ENDBRANCH   8  11
ENDBRANCH   7   8
ENDBRANCH   3   7
TORSDOF 4
ENDMDL
MODEL      159
REMARK 921   NORMALIZED FREE ENERGY PREDICTED BY IDOCK:   -3.63 KCAL/MOL
REMARK 922        TOTAL FREE ENERGY PREDICTED BY IDOCK:   -5.19 KCAL/MOL
REMARK 923 INTER-LIGAND FREE ENERGY PREDICTED BY IDOCK:   -5.54 KCAL/MOL
REMARK 924 INTRA-LIGAND FREE ENERGY PREDICTED BY IDOCK:    0.35 KCAL/MOL
REMARK 927      BINDING AFFINITY PREDICTED BY RF-SCORE:    0.00 PKD
ROOT
HETATM    1  C   UNL     1      -9.302   7.746  70.274  1.00  0.00    -0.156 C  
HETATM    2  C   UNL     1     -10.258   7.269  69.169  1.00  0.00    -0.197 C  
HETATM    3  N   UNL     1     -10.973   8.404  68.550  1.00  0.00    -0.429 NA 
HETATM    4  C   UNL     1      -9.501   6.416  68.141  1.00  0.00    -0.114 C  
HETATM    5  C   UNL     1     -11.345   6.387  69.817  1.00  0.00    -0.494 C  
HETATM    6  H   UNL     1     -11.988   8.491  68.593  1.00  0.00     0.000 HD 
ENDROOT
BRANCH   3   7
HETATM    7  C   UNL     1     -10.133   9.405  67.866  1.00  0.00    -0.194 C  
BRANCH   7   8
HETATM    8  C   UNL     1     -10.746  10.837  67.778  1.00  0.00    -0.251 C  
HETATM    9  H   UNL     1     -10.049  12.599  67.371  1.00  0.00     0.000 HD 
HETATM   10  O   UNL     1      -9.676  11.727  67.425  1.00  0.00    -0.177 OA 
BRANCH   8  11
HETATM   11  C   UNL     1     -11.469  11.325  69.030  1.00  0.00    -0.369 A  
HETATM   12  C   UNL     1     -12.003  10.396  69.941  1.00  0.00    -0.289 A  
HETATM   13  C   UNL     1     -12.647  10.792  71.128  1.00  0.00    -0.532 A  
HETATM   14  C   UNL     1     -12.858  12.159  71.332  1.00  0.00    -0.276 A  
HETATM   15  H   UNL     1     -13.681  13.564  72.557  1.00  0.00     0.000 HD 
HETATM   16  C   UNL     1     -12.380  13.099  70.431  1.00  0.00    -0.351 A  
HETATM   17  O   UNL     1     -13.538  12.635  72.418  1.00  0.00    -0.550 OA 
HETATM   18  C   UNL     1     -11.664  12.688  69.301  1.00  0.00    -0.379 A  
BRANCH  13  19
HETATM   19  C   UNL     1     -13.118   9.730  72.085  1.00  0.00    -0.422 C  
HETATM   20  O   UNL     1     -14.169   8.959  71.503  1.00  0.00    -0.364 OA 
HETATM   21  H   UNL     1     -14.467   8.289  72.107  1.00  0.00     0.000 HD 
ENDBRANCH  13  19
ENDBRANCH   8  11
ENDBRANCH   7   8
ENDBRANCH   3   7
TORSDOF 4
ENDMDL
MODEL      160
REMARK 921   NORMALIZED FREE ENERGY PREDICTED BY IDOCK:   -3.63 KCAL/MOL
REMARK 922        TOTAL FREE ENERGY PREDICTED BY IDOCK:   -5.19 KCAL/MOL
REMARK 923 INTER-LIGAND FREE ENERGY PREDICTED BY IDOCK:   -4.90 KCAL/MOL
REMARK 924 INTRA-LIGAND FREE ENERGY PREDICTED BY IDOCK:   -0.29 KCAL/MOL
REMARK 927      BINDING AFFINITY PREDICTED BY RF-SCORE:    0.00 PKD
ROOT
HETATM    1  C   UNL     1      -8.341   8.287  64.628  1.00  0.00    -0.115 C  
HETATM    2  C   UNL     1      -8.036   8.876  66.015  1.00  0.00    -0.111 C  
HETATM    3  N   UNL     1      -7.974  10.352  65.969  1.00  0.00    -0.139 NA 
HETATM    4  C   UNL     1      -9.048   8.359  67.048  1.00  0.00    -0.171 C  
HETATM    5  C   UNL     1      -6.630   8.407  66.442  1.00  0.00    -0.058 C  
HETATM    6  H   UNL     1      -7.123  10.863  66.200  1.00  0.00     0.000 HD 
ENDROOT
BRANCH   3   7
HETATM    7  C   UNL     1      -9.214  11.041  65.569  1.00  0.00    -0.213 C  
BRANCH   7   8
HETATM    8  C   UNL     1      -9.717  12.133  66.564  1.00  0.00    -0.223 C  
HETATM    9  H   UNL     1     -11.083  12.207  67.936  1.00  0.00     0.000 HD 
HETATM   10  O   UNL     1     -10.777  11.542  67.331  1.00  0.00    -0.210 OA 
BRANCH   8  11
HETATM   11  C   UNL     1     -10.170  13.446  65.932  1.00  0.00    -0.302 A  
HETATM   12  C   UNL     1      -9.682  14.670  66.425  1.00  0.00    -0.315 A  
HETATM   13  C   UNL     1     -10.039  15.906  65.856  1.00  0.00    -0.376 A  
HETATM   14  C   UNL     1     -11.003  15.905  64.843  1.00  0.00    -0.411 A  
HETATM   15  H   UNL     1     -12.121  17.060  63.591  1.00  0.00     0.000 HD 
HETATM   16  C   UNL     1     -11.534  14.717  64.362  1.00  0.00    -0.272 A  
HETATM   17  O   UNL     1     -11.466  17.061  64.279  1.00  0.00    -1.124 OA 
HETATM   18  C   UNL     1     -11.100  13.493  64.881  1.00  0.00    -0.356 A  
BRANCH  13  19
HETATM   19  C   UNL     1      -9.409  17.162  66.396  1.00  0.00    -0.262 C  
HETATM   20  O   UNL     1      -9.362  17.127  67.822  1.00  0.00    -0.239 OA 
HETATM   21  H   UNL     1      -8.964  17.920  68.163  1.00  0.00     0.000 HD 
ENDBRANCH  13  19
ENDBRANCH   8  11
ENDBRANCH   7   8
ENDBRANCH   3   7
TORSDOF 4
ENDMDL
MODEL      161
REMARK 921   NORMALIZED FREE ENERGY PREDICTED BY IDOCK:   -3.62 KCAL/MOL
REMARK 922        TOTAL FREE ENERGY PREDICTED BY IDOCK:   -5.18 KCAL/MOL
REMARK 923 INTER-LIGAND FREE ENERGY PREDICTED BY IDOCK:   -4.66 KCAL/MOL
REMARK 924 INTRA-LIGAND FREE ENERGY PREDICTED BY IDOCK:   -0.52 KCAL/MOL
REMARK 927      BINDING AFFINITY PREDICTED BY RF-SCORE:    0.00 PKD
ROOT
HETATM    1  C   UNL     1     -12.130  11.918  63.792  1.00  0.00    -0.547 C  
HETATM    2  C   UNL     1     -11.803  12.821  64.993  1.00  0.00    -0.382 C  
HETATM    3  N   UNL     1     -11.676  12.034  66.237  1.00  0.00    -0.547 NA 
HETATM    4  C   UNL     1     -10.556  13.668  64.699  1.00  0.00    -0.446 C  
HETATM    5  C   UNL     1     -12.992  13.777  65.217  1.00  0.00    -0.328 C  
HETATM    6  H   UNL     1     -12.297  12.177  67.032  1.00  0.00     0.000 HD 
ENDROOT
BRANCH   3   7
HETATM    7  C   UNL     1     -10.597  11.029  66.261  1.00  0.00    -0.237 C  
BRANCH   7   8
HETATM    8  C   UNL     1      -9.543  11.213  67.397  1.00  0.00    -0.168 C  
HETATM    9  H   UNL     1      -7.636  11.549  67.450  1.00  0.00     0.000 HD 
HETATM   10  O   UNL     1      -8.277  11.437  66.759  1.00  0.00    -0.151 OA 
BRANCH   8  11
HETATM   11  C   UNL     1      -9.451  10.071  68.405  1.00  0.00    -0.146 A  
HETATM   12  C   UNL     1     -10.446   9.078  68.436  1.00  0.00    -0.234 A  
HETATM   13  C   UNL     1     -10.390   7.984  69.320  1.00  0.00    -0.224 A  
HETATM   14  C   UNL     1      -9.366   7.966  70.272  1.00  0.00    -0.159 A  
HETATM   15  H   UNL     1      -8.576   6.971  71.865  1.00  0.00     0.000 HD 
HETATM   16  C   UNL     1      -8.393   8.954  70.294  1.00  0.00    -0.153 A  
HETATM   17  O   UNL     1      -9.272   6.984  71.218  1.00  0.00    -0.152 OA 
HETATM   18  C   UNL     1      -8.416   9.985  69.349  1.00  0.00    -0.176 A  
BRANCH  13  19
HETATM   19  C   UNL     1     -11.456   6.926  69.231  1.00  0.00    -0.007 C  
HETATM   20  O   UNL     1     -12.245   6.905  70.420  1.00  0.00    -0.600 OA 
HETATM   21  H   UNL     1     -12.918   6.237  70.364  1.00  0.00     0.000 HD 
ENDBRANCH  13  19
ENDBRANCH   8  11
ENDBRANCH   7   8
ENDBRANCH   3   7
TORSDOF 4
ENDMDL
MODEL      162
REMARK 921   NORMALIZED FREE ENERGY PREDICTED BY IDOCK:   -3.61 KCAL/MOL
REMARK 922        TOTAL FREE ENERGY PREDICTED BY IDOCK:   -5.16 KCAL/MOL
REMARK 923 INTER-LIGAND FREE ENERGY PREDICTED BY IDOCK:   -4.74 KCAL/MOL
REMARK 924 INTRA-LIGAND FREE ENERGY PREDICTED BY IDOCK:   -0.42 KCAL/MOL
REMARK 927      BINDING AFFINITY PREDICTED BY RF-SCORE:    0.00 PKD
ROOT
HETATM    1  C   UNL     1     -11.750  13.280  66.469  1.00  0.00    -0.423 C  
HETATM    2  C   UNL     1     -11.421  13.741  67.898  1.00  0.00    -0.314 C  
HETATM    3  N   UNL     1     -12.077  12.881  68.904  1.00  0.00    -0.222 NA 
HETATM    4  C   UNL     1      -9.900  13.826  68.094  1.00  0.00    -0.239 C  
HETATM    5  C   UNL     1     -12.010  15.153  68.099  1.00  0.00    -0.151 C  
HETATM    6  H   UNL     1     -12.765  13.248  69.561  1.00  0.00     0.000 HD 
ENDROOT
BRANCH   3   7
HETATM    7  C   UNL     1     -11.679  11.461  68.903  1.00  0.00    -0.343 C  
BRANCH   7   8
HETATM    8  C   UNL     1     -12.181  10.630  70.124  1.00  0.00    -0.320 C  
HETATM    9  H   UNL     1     -12.534  11.019  71.989  1.00  0.00     0.000 HD 
HETATM   10  O   UNL     1     -12.229  11.525  71.246  1.00  0.00    -0.255 OA 
BRANCH   8  11
HETATM   11  C   UNL     1     -11.365   9.384  70.457  1.00  0.00    -0.328 A  
HETATM   12  C   UNL     1     -11.360   8.875  71.768  1.00  0.00    -0.431 A  
HETATM   13  C   UNL     1     -10.654   7.710  72.120  1.00  0.00    -0.281 A  
HETATM   14  C   UNL     1      -9.841   7.120  71.147  1.00  0.00    -0.179 A  
HETATM   15  H   UNL     1      -8.510   5.628  70.754  1.00  0.00     0.000 HD 
HETATM   16  C   UNL     1      -9.792   7.623  69.855  1.00  0.00    -0.184 A  
HETATM   17  O   UNL     1      -9.062   6.029  71.415  1.00  0.00    -0.143 OA 
HETATM   18  C   UNL     1     -10.570   8.730  69.502  1.00  0.00    -0.224 A  
BRANCH  13  19
HETATM   19  C   UNL     1     -10.768   7.191  73.528  1.00  0.00    -0.333 C  
HETATM   20  O   UNL     1      -9.528   7.335  74.218  1.00  0.00    -0.372 OA 
HETATM   21  H   UNL     1      -9.599   7.008  75.108  1.00  0.00     0.000 HD 
ENDBRANCH  13  19
ENDBRANCH   8  11
ENDBRANCH   7   8
ENDBRANCH   3   7
TORSDOF 4
ENDMDL
MODEL      163
REMARK 921   NORMALIZED FREE ENERGY PREDICTED BY IDOCK:   -3.60 KCAL/MOL
REMARK 922        TOTAL FREE ENERGY PREDICTED BY IDOCK:   -5.15 KCAL/MOL
REMARK 923 INTER-LIGAND FREE ENERGY PREDICTED BY IDOCK:   -4.71 KCAL/MOL
REMARK 924 INTRA-LIGAND FREE ENERGY PREDICTED BY IDOCK:   -0.45 KCAL/MOL
REMARK 927      BINDING AFFINITY PREDICTED BY RF-SCORE:    0.00 PKD
ROOT
HETATM    1  C   UNL     1     -11.044   9.962  70.647  1.00  0.00    -0.409 C  
HETATM    2  C   UNL     1     -12.329  10.805  70.707  1.00  0.00    -0.383 C  
HETATM    3  N   UNL     1     -12.074  12.201  70.299  1.00  0.00    -0.364 NA 
HETATM    4  C   UNL     1     -13.442  10.141  69.883  1.00  0.00     1.075 C  
HETATM    5  C   UNL     1     -12.794  10.872  72.177  1.00  0.00    -0.166 C  
HETATM    6  H   UNL     1     -12.216  12.985  70.936  1.00  0.00     0.000 HD 
ENDROOT
BRANCH   3   7
HETATM    7  C   UNL     1     -11.602  12.397  68.915  1.00  0.00    -0.316 C  
BRANCH   7   8
HETATM    8  C   UNL     1     -10.694  13.647  68.694  1.00  0.00    -0.256 C  
HETATM    9  H   UNL     1     -10.392  15.302  69.653  1.00  0.00     0.000 HD 
HETATM   10  O   UNL     1     -10.944  14.542  69.788  1.00  0.00    -0.230 OA 
BRANCH   8  11
HETATM   11  C   UNL     1     -10.868  14.361  67.356  1.00  0.00    -0.293 A  
HETATM   12  C   UNL     1     -10.388  15.673  67.192  1.00  0.00    -0.285 A  
HETATM   13  C   UNL     1     -10.490  16.363  65.970  1.00  0.00    -0.333 A  
HETATM   14  C   UNL     1     -11.199  15.752  64.931  1.00  0.00    -0.350 A  
HETATM   15  H   UNL     1     -11.895  15.959  63.027  1.00  0.00     0.000 HD 
HETATM   16  C   UNL     1     -11.720  14.474  65.077  1.00  0.00    -0.392 A  
HETATM   17  O   UNL     1     -11.413  16.374  63.733  1.00  0.00    -1.002 OA 
HETATM   18  C   UNL     1     -11.532  13.770  66.270  1.00  0.00    -0.349 A  
BRANCH  13  19
HETATM   19  C   UNL     1      -9.879  17.734  65.859  1.00  0.00    -0.063 C  
HETATM   20  O   UNL     1     -10.786  18.639  65.232  1.00  0.00    -0.591 OA 
HETATM   21  H   UNL     1     -10.402  19.505  65.162  1.00  0.00     0.000 HD 
ENDBRANCH  13  19
ENDBRANCH   8  11
ENDBRANCH   7   8
ENDBRANCH   3   7
TORSDOF 4
ENDMDL
MODEL      164
REMARK 921   NORMALIZED FREE ENERGY PREDICTED BY IDOCK:   -3.59 KCAL/MOL
REMARK 922        TOTAL FREE ENERGY PREDICTED BY IDOCK:   -5.14 KCAL/MOL
REMARK 923 INTER-LIGAND FREE ENERGY PREDICTED BY IDOCK:   -4.68 KCAL/MOL
REMARK 924 INTRA-LIGAND FREE ENERGY PREDICTED BY IDOCK:   -0.46 KCAL/MOL
REMARK 927      BINDING AFFINITY PREDICTED BY RF-SCORE:    0.00 PKD
ROOT
HETATM    1  C   UNL     1      -8.824   4.217  71.871  1.00  0.00    -0.137 C  
HETATM    2  C   UNL     1      -9.468   5.002  73.026  1.00  0.00    -0.142 C  
HETATM    3  N   UNL     1      -9.034   6.414  73.024  1.00  0.00    -0.130 NA 
HETATM    4  C   UNL     1     -10.996   4.853  72.985  1.00  0.00    -0.358 C  
HETATM    5  C   UNL     1      -8.964   4.405  74.357  1.00  0.00    -0.106 C  
HETATM    6  H   UNL     1      -8.514   6.819  73.802  1.00  0.00     0.000 HD 
ENDROOT
BRANCH   3   7
HETATM    7  C   UNL     1      -9.396   7.202  71.832  1.00  0.00    -0.138 C  
BRANCH   7   8
HETATM    8  C   UNL     1     -10.217   8.498  72.118  1.00  0.00    -0.333 C  
HETATM    9  H   UNL     1     -11.836   8.899  73.103  1.00  0.00     0.000 HD 
HETATM   10  O   UNL     1     -11.336   8.111  72.930  1.00  0.00    -0.387 OA 
BRANCH   8  11
HETATM   11  C   UNL     1     -10.680   9.272  70.887  1.00  0.00    -0.371 A  
HETATM   12  C   UNL     1     -10.077   9.034  69.638  1.00  0.00    -0.202 A  
HETATM   13  C   UNL     1     -10.490   9.694  68.466  1.00  0.00    -0.241 A  
HETATM   14  C   UNL     1     -11.452  10.701  68.587  1.00  0.00    -0.263 A  
HETATM   15  H   UNL     1     -12.517  12.131  67.600  1.00  0.00     0.000 HD 
HETATM   16  C   UNL     1     -12.036  10.988  69.813  1.00  0.00    -0.428 A  
HETATM   17  O   UNL     1     -11.863  11.446  67.518  1.00  0.00    -0.614 OA 
HETATM   18  C   UNL     1     -11.675  10.260  70.951  1.00  0.00    -0.472 A  
BRANCH  13  19
HETATM   19  C   UNL     1      -9.844   9.321  67.159  1.00  0.00    -0.195 C  
HETATM   20  O   UNL     1      -9.406  10.487  66.464  1.00  0.00    -0.158 OA 
HETATM   21  H   UNL     1      -8.998  10.252  65.639  1.00  0.00     0.000 HD 
ENDBRANCH  13  19
ENDBRANCH   8  11
ENDBRANCH   7   8
ENDBRANCH   3   7
TORSDOF 4
ENDMDL
MODEL      165
REMARK 921   NORMALIZED FREE ENERGY PREDICTED BY IDOCK:   -3.58 KCAL/MOL
REMARK 922        TOTAL FREE ENERGY PREDICTED BY IDOCK:   -5.13 KCAL/MOL
REMARK 923 INTER-LIGAND FREE ENERGY PREDICTED BY IDOCK:   -4.70 KCAL/MOL
REMARK 924 INTRA-LIGAND FREE ENERGY PREDICTED BY IDOCK:   -0.43 KCAL/MOL
REMARK 927      BINDING AFFINITY PREDICTED BY RF-SCORE:    0.00 PKD
ROOT
HETATM    1  C   UNL     1     -10.628   6.332  72.354  1.00  0.00    -0.241 C  
HETATM    2  C   UNL     1      -9.462   7.087  71.693  1.00  0.00    -0.156 C  
HETATM    3  N   UNL     1      -9.545   7.019  70.220  1.00  0.00    -0.169 NA 
HETATM    4  C   UNL     1      -9.397   8.529  72.216  1.00  0.00    -0.363 C  
HETATM    5  C   UNL     1      -8.147   6.377  72.076  1.00  0.00    -0.108 C  
HETATM    6  H   UNL     1      -8.819   6.574  69.658  1.00  0.00     0.000 HD 
ENDROOT
BRANCH   3   7
HETATM    7  C   UNL     1     -10.739   7.632  69.608  1.00  0.00    -0.228 C  
BRANCH   7   8
HETATM    8  C   UNL     1     -10.459   8.538  68.369  1.00  0.00    -0.171 C  
HETATM    9  H   UNL     1      -8.876   9.029  67.365  1.00  0.00     0.000 HD 
HETATM   10  O   UNL     1      -9.047   8.477  68.119  1.00  0.00    -0.138 OA 
BRANCH   8  11
HETATM   11  C   UNL     1     -10.928   9.985  68.490  1.00  0.00    -0.255 A  
HETATM   12  C   UNL     1     -11.175  10.744  67.331  1.00  0.00    -0.315 A  
HETATM   13  C   UNL     1     -11.643  12.070  67.385  1.00  0.00    -0.388 A  
HETATM   14  C   UNL     1     -11.747  12.675  68.642  1.00  0.00    -0.325 A  
HETATM   15  H   UNL     1     -12.193  14.392  69.644  1.00  0.00     0.000 HD 
HETATM   16  C   UNL     1     -11.470  11.966  69.802  1.00  0.00    -0.303 A  
HETATM   17  O   UNL     1     -12.122  13.980  68.791  1.00  0.00    -0.349 OA 
HETATM   18  C   UNL     1     -11.092  10.621  69.730  1.00  0.00    -0.358 A  
BRANCH  13  19
HETATM   19  C   UNL     1     -11.956  12.781  66.097  1.00  0.00    -0.414 C  
HETATM   20  O   UNL     1     -12.805  13.903  66.335  1.00  0.00    -0.420 OA 
HETATM   21  H   UNL     1     -13.003  14.352  65.522  1.00  0.00     0.000 HD 
ENDBRANCH  13  19
ENDBRANCH   8  11
ENDBRANCH   7   8
ENDBRANCH   3   7
TORSDOF 4
ENDMDL
MODEL      166
REMARK 921   NORMALIZED FREE ENERGY PREDICTED BY IDOCK:   -3.56 KCAL/MOL
REMARK 922        TOTAL FREE ENERGY PREDICTED BY IDOCK:   -5.10 KCAL/MOL
REMARK 923 INTER-LIGAND FREE ENERGY PREDICTED BY IDOCK:   -4.57 KCAL/MOL
REMARK 924 INTRA-LIGAND FREE ENERGY PREDICTED BY IDOCK:   -0.54 KCAL/MOL
REMARK 927      BINDING AFFINITY PREDICTED BY RF-SCORE:    0.00 PKD
ROOT
HETATM    1  C   UNL     1      -9.953   4.756  67.509  1.00  0.00    -0.194 C  
HETATM    2  C   UNL     1      -9.137   5.617  68.486  1.00  0.00    -0.114 C  
HETATM    3  N   UNL     1      -8.994   7.002  67.990  1.00  0.00    -0.127 NA 
HETATM    4  C   UNL     1      -9.748   5.553  69.893  1.00  0.00    -0.233 C  
HETATM    5  C   UNL     1      -7.706   5.044  68.557  1.00  0.00    -0.079 C  
HETATM    6  H   UNL     1      -8.083   7.407  67.774  1.00  0.00     0.000 HD 
ENDROOT
BRANCH   3   7
HETATM    7  C   UNL     1     -10.245   7.765  67.826  1.00  0.00    -0.212 C  
BRANCH   7   8
HETATM    8  C   UNL     1     -10.239   9.193  68.455  1.00  0.00    -0.198 C  
HETATM    9  H   UNL     1     -11.259  10.078  69.844  1.00  0.00     0.000 HD 
HETATM   10  O   UNL     1     -11.263   9.209  69.461  1.00  0.00    -0.118 OA 
BRANCH   8  11
HETATM   11  C   UNL     1     -10.422  10.348  67.475  1.00  0.00    -0.292 A  
HETATM   12  C   UNL     1     -10.143  10.162  66.109  1.00  0.00    -0.314 A  
HETATM   13  C   UNL     1     -10.328  11.182  65.157  1.00  0.00    -0.354 A  
HETATM   14  C   UNL     1     -10.689  12.450  65.622  1.00  0.00    -0.264 A  
HETATM   15  H   UNL     1     -11.067  14.383  65.098  1.00  0.00     0.000 HD 
HETATM   16  C   UNL     1     -10.931  12.676  66.969  1.00  0.00    -0.300 A  
HETATM   17  O   UNL     1     -10.822  13.521  64.783  1.00  0.00    -0.337 OA 
HETATM   18  C   UNL     1     -10.828  11.626  67.887  1.00  0.00    -0.255 A  
BRANCH  13  19
HETATM   19  C   UNL     1     -10.081  10.873  63.705  1.00  0.00    -0.353 C  
HETATM   20  O   UNL     1     -11.161  11.341  62.900  1.00  0.00    -0.822 OA 
HETATM   21  H   UNL     1     -11.005  11.146  61.983  1.00  0.00     0.000 HD 
ENDBRANCH  13  19
ENDBRANCH   8  11
ENDBRANCH   7   8
ENDBRANCH   3   7
TORSDOF 4
ENDMDL
MODEL      167
REMARK 921   NORMALIZED FREE ENERGY PREDICTED BY IDOCK:   -3.55 KCAL/MOL
REMARK 922        TOTAL FREE ENERGY PREDICTED BY IDOCK:   -5.09 KCAL/MOL
REMARK 923 INTER-LIGAND FREE ENERGY PREDICTED BY IDOCK:   -4.97 KCAL/MOL
REMARK 924 INTRA-LIGAND FREE ENERGY PREDICTED BY IDOCK:   -0.12 KCAL/MOL
REMARK 927      BINDING AFFINITY PREDICTED BY RF-SCORE:    0.00 PKD
ROOT
HETATM    1  C   UNL     1      -8.874  14.700  65.881  1.00  0.00     0.502 C  
HETATM    2  C   UNL     1     -10.398  14.904  65.894  1.00  0.00    -0.314 C  
HETATM    3  N   UNL     1     -11.011  14.300  67.095  1.00  0.00    -0.296 NA 
HETATM    4  C   UNL     1     -10.738  16.394  65.742  1.00  0.00    -0.245 C  
HETATM    5  C   UNL     1     -10.997  14.149  64.689  1.00  0.00    -0.393 C  
HETATM    6  H   UNL     1     -11.691  13.544  67.032  1.00  0.00     0.000 HD 
ENDROOT
BRANCH   3   7
HETATM    7  C   UNL     1     -10.581  14.857  68.392  1.00  0.00    -0.244 C  
BRANCH   7   8
HETATM    8  C   UNL     1     -11.564  15.887  69.030  1.00  0.00    -0.389 C  
HETATM    9  H   UNL     1     -11.556  17.808  69.280  1.00  0.00     0.000 HD 
HETATM   10  O   UNL     1     -10.958  17.181  68.892  1.00  0.00    -0.236 OA 
BRANCH   8  11
HETATM   11  C   UNL     1     -11.951  15.620  70.482  1.00  0.00    -0.417 A  
HETATM   12  C   UNL     1     -12.772  14.523  70.800  1.00  0.00    -0.425 A  
HETATM   13  C   UNL     1     -13.129  14.210  72.125  1.00  0.00    -0.489 A  
HETATM   14  C   UNL     1     -12.743  15.099  73.132  1.00  0.00    -0.481 A  
HETATM   15  H   UNL     1     -12.842  15.523  75.123  1.00  0.00     0.000 HD 
HETATM   16  C   UNL     1     -11.968  16.214  72.845  1.00  0.00    -0.623 A  
HETATM   17  O   UNL     1     -13.105  14.919  74.438  1.00  0.00     0.263 OA 
HETATM   18  C   UNL     1     -11.549  16.458  71.533  1.00  0.00    -0.328 A  
BRANCH  13  19
HETATM   19  C   UNL     1     -13.946  12.972  72.382  1.00  0.00    -0.327 C  
HETATM   20  O   UNL     1     -13.173  11.799  72.133  1.00  0.00    -0.526 OA 
HETATM   21  H   UNL     1     -13.688  11.018  72.296  1.00  0.00     0.000 HD 
ENDBRANCH  13  19
ENDBRANCH   8  11
ENDBRANCH   7   8
ENDBRANCH   3   7
TORSDOF 4
ENDMDL
MODEL      168
REMARK 921   NORMALIZED FREE ENERGY PREDICTED BY IDOCK:   -3.55 KCAL/MOL
REMARK 922        TOTAL FREE ENERGY PREDICTED BY IDOCK:   -5.09 KCAL/MOL
REMARK 923 INTER-LIGAND FREE ENERGY PREDICTED BY IDOCK:   -4.74 KCAL/MOL
REMARK 924 INTRA-LIGAND FREE ENERGY PREDICTED BY IDOCK:   -0.35 KCAL/MOL
REMARK 927      BINDING AFFINITY PREDICTED BY RF-SCORE:    0.00 PKD
ROOT
HETATM    1  C   UNL     1     -10.262  14.139  64.798  1.00  0.00    -0.311 C  
HETATM    2  C   UNL     1     -11.456  13.171  64.851  1.00  0.00    -0.309 C  
HETATM    3  N   UNL     1     -11.057  11.857  65.395  1.00  0.00    -0.313 NA 
HETATM    4  C   UNL     1     -12.621  13.803  65.627  1.00  0.00    -0.551 C  
HETATM    5  C   UNL     1     -11.928  12.906  63.407  1.00  0.00    -0.612 C  
HETATM    6  H   UNL     1     -11.126  11.002  64.844  1.00  0.00     0.000 HD 
ENDROOT
BRANCH   3   7
HETATM    7  C   UNL     1     -10.552  11.854  66.781  1.00  0.00    -0.229 C  
BRANCH   7   8
HETATM    8  C   UNL     1     -11.107  10.710  67.687  1.00  0.00    -0.319 C  
HETATM    9  H   UNL     1     -11.368  10.482  69.593  1.00  0.00     0.000 HD 
HETATM   10  O   UNL     1     -11.031  11.178  69.042  1.00  0.00    -0.205 OA 
BRANCH   8  11
HETATM   11  C   UNL     1     -10.417   9.357  67.539  1.00  0.00    -0.343 A  
HETATM   12  C   UNL     1      -9.732   9.043  66.352  1.00  0.00    -0.337 A  
HETATM   13  C   UNL     1      -9.049   7.825  66.177  1.00  0.00    -0.199 A  
HETATM   14  C   UNL     1      -9.167   6.860  67.182  1.00  0.00    -0.139 A  
HETATM   15  H   UNL     1      -8.681   4.965  67.754  1.00  0.00     0.000 HD 
HETATM   16  C   UNL     1      -9.872   7.124  68.348  1.00  0.00    -0.157 A  
HETATM   17  O   UNL     1      -8.601   5.621  67.071  1.00  0.00    -0.111 OA 
HETATM   18  C   UNL     1     -10.469   8.375  68.540  1.00  0.00    -0.201 A  
BRANCH  13  19
HETATM   19  C   UNL     1      -8.275   7.603  64.905  1.00  0.00    -0.095 C  
HETATM   20  O   UNL     1      -8.784   6.475  64.197  1.00  0.00    -0.310 OA 
HETATM   21  H   UNL     1      -8.296   6.335  63.394  1.00  0.00     0.000 HD 
ENDBRANCH  13  19
ENDBRANCH   8  11
ENDBRANCH   7   8
ENDBRANCH   3   7
TORSDOF 4
ENDMDL
MODEL      169
REMARK 921   NORMALIZED FREE ENERGY PREDICTED BY IDOCK:   -3.55 KCAL/MOL
REMARK 922        TOTAL FREE ENERGY PREDICTED BY IDOCK:   -5.08 KCAL/MOL
REMARK 923 INTER-LIGAND FREE ENERGY PREDICTED BY IDOCK:   -4.28 KCAL/MOL
REMARK 924 INTRA-LIGAND FREE ENERGY PREDICTED BY IDOCK:   -0.80 KCAL/MOL
REMARK 927      BINDING AFFINITY PREDICTED BY RF-SCORE:    0.00 PKD
ROOT
HETATM    1  C   UNL     1      -7.750  12.719  68.762  1.00  0.00     0.007 C  
HETATM    2  C   UNL     1      -8.975  13.218  67.979  1.00  0.00    -0.191 C  
HETATM    3  N   UNL     1     -10.035  13.698  68.889  1.00  0.00    -0.422 NA 
HETATM    4  C   UNL     1      -8.555  14.278  66.950  1.00  0.00    -0.172 C  
HETATM    5  C   UNL     1      -9.582  12.022  67.217  1.00  0.00    -0.185 C  
HETATM    6  H   UNL     1     -10.955  13.260  68.925  1.00  0.00     0.000 HD 
ENDROOT
BRANCH   3   7
HETATM    7  C   UNL     1      -9.685  14.848  69.744  1.00  0.00     0.104 C  
BRANCH   7   8
HETATM    8  C   UNL     1     -10.439  16.174  69.415  1.00  0.00    -0.283 C  
HETATM    9  H   UNL     1     -11.985  16.636  68.343  1.00  0.00     0.000 HD 
HETATM   10  O   UNL     1     -11.526  15.829  68.544  1.00  0.00    -0.356 OA 
BRANCH   8  11
HETATM   11  C   UNL     1      -9.587  17.286  68.809  1.00  0.00    -0.269 A  
HETATM   12  C   UNL     1     -10.195  18.305  68.054  1.00  0.00    -0.402 A  
HETATM   13  C   UNL     1      -9.462  19.373  67.504  1.00  0.00    -0.395 A  
HETATM   14  C   UNL     1      -8.069  19.339  67.623  1.00  0.00    -0.277 A  
HETATM   15  H   UNL     1      -6.321  20.268  67.140  1.00  0.00     0.000 HD 
HETATM   16  C   UNL     1      -7.436  18.324  68.326  1.00  0.00    -0.288 A  
HETATM   17  O   UNL     1      -7.267  20.292  67.060  1.00  0.00    -0.244 OA 
HETATM   18  C   UNL     1      -8.190  17.319  68.941  1.00  0.00    -0.181 A  
BRANCH  13  19
HETATM   19  C   UNL     1     -10.203  20.463  66.778  1.00  0.00    -0.257 C  
HETATM   20  O   UNL     1      -9.762  20.554  65.424  1.00  0.00    -0.473 OA 
HETATM   21  H   UNL     1     -10.229  21.242  64.965  1.00  0.00     0.000 HD 
ENDBRANCH  13  19
ENDBRANCH   8  11
ENDBRANCH   7   8
ENDBRANCH   3   7
TORSDOF 4
ENDMDL
MODEL      170
REMARK 921   NORMALIZED FREE ENERGY PREDICTED BY IDOCK:   -3.52 KCAL/MOL
REMARK 922        TOTAL FREE ENERGY PREDICTED BY IDOCK:   -5.05 KCAL/MOL
REMARK 923 INTER-LIGAND FREE ENERGY PREDICTED BY IDOCK:   -4.79 KCAL/MOL
REMARK 924 INTRA-LIGAND FREE ENERGY PREDICTED BY IDOCK:   -0.26 KCAL/MOL
REMARK 927      BINDING AFFINITY PREDICTED BY RF-SCORE:    0.00 PKD
ROOT
HETATM    1  C   UNL     1     -10.164   5.073  67.323  1.00  0.00    -0.219 C  
HETATM    2  C   UNL     1      -9.594   5.815  68.543  1.00  0.00    -0.126 C  
HETATM    3  N   UNL     1      -9.241   7.210  68.206  1.00  0.00    -0.133 NA 
HETATM    4  C   UNL     1     -10.567   5.721  69.727  1.00  0.00    -0.388 C  
HETATM    5  C   UNL     1      -8.273   5.131  68.951  1.00  0.00    -0.088 C  
HETATM    6  H   UNL     1      -8.284   7.555  68.272  1.00  0.00     0.000 HD 
ENDROOT
BRANCH   3   7
HETATM    7  C   UNL     1     -10.354   8.073  67.770  1.00  0.00    -0.231 C  
BRANCH   7   8
HETATM    8  C   UNL     1     -10.169   9.594  68.068  1.00  0.00    -0.194 C  
HETATM    9  H   UNL     1     -10.938  10.842  69.335  1.00  0.00     0.000 HD 
HETATM   10  O   UNL     1     -11.051   9.916  69.154  1.00  0.00    -0.218 OA 
BRANCH   8  11
HETATM   11  C   UNL     1     -10.397  10.531  66.885  1.00  0.00    -0.293 A  
HETATM   12  C   UNL     1     -10.833  11.851  67.106  1.00  0.00    -0.301 A  
HETATM   13  C   UNL     1     -11.023  12.766  66.055  1.00  0.00    -0.306 A  
HETATM   14  C   UNL     1     -10.885  12.296  64.746  1.00  0.00    -0.304 A  
HETATM   15  H   UNL     1     -11.027  12.770  62.769  1.00  0.00     0.000 HD 
HETATM   16  C   UNL     1     -10.497  10.987  64.494  1.00  0.00    -0.411 A  
HETATM   17  O   UNL     1     -11.121  13.090  63.659  1.00  0.00    -0.383 OA 
HETATM   18  C   UNL     1     -10.226  10.118  65.555  1.00  0.00    -0.288 A  
BRANCH  13  19
HETATM   19  C   UNL     1     -11.414  14.181  66.388  1.00  0.00    -0.354 C  
HETATM   20  O   UNL     1     -12.252  14.213  67.543  1.00  0.00    -0.549 OA 
HETATM   21  H   UNL     1     -12.499  15.106  67.753  1.00  0.00     0.000 HD 
ENDBRANCH  13  19
ENDBRANCH   8  11
ENDBRANCH   7   8
ENDBRANCH   3   7
TORSDOF 4
ENDMDL
MODEL      171
REMARK 921   NORMALIZED FREE ENERGY PREDICTED BY IDOCK:   -3.51 KCAL/MOL
REMARK 922        TOTAL FREE ENERGY PREDICTED BY IDOCK:   -5.04 KCAL/MOL
REMARK 923 INTER-LIGAND FREE ENERGY PREDICTED BY IDOCK:   -4.45 KCAL/MOL
REMARK 924 INTRA-LIGAND FREE ENERGY PREDICTED BY IDOCK:   -0.60 KCAL/MOL
REMARK 927      BINDING AFFINITY PREDICTED BY RF-SCORE:    0.00 PKD
ROOT
HETATM    1  C   UNL     1      -6.332   6.951  73.521  1.00  0.00    -0.063 C  
HETATM    2  C   UNL     1      -7.408   6.012  72.952  1.00  0.00    -0.094 C  
HETATM    3  N   UNL     1      -8.686   6.156  73.680  1.00  0.00    -0.124 NA 
HETATM    4  C   UNL     1      -7.561   6.230  71.440  1.00  0.00    -0.098 C  
HETATM    5  C   UNL     1      -6.951   4.557  73.184  1.00  0.00    -0.068 C  
HETATM    6  H   UNL     1      -9.103   5.382  74.196  1.00  0.00     0.000 HD 
ENDROOT
BRANCH   3   7
HETATM    7  C   UNL     1      -9.323   7.485  73.614  1.00  0.00    -0.277 C  
BRANCH   7   8
HETATM    8  C   UNL     1     -10.809   7.485  73.138  1.00  0.00    -0.395 C  
HETATM    9  H   UNL     1     -11.979   6.182  72.311  1.00  0.00     0.000 HD 
HETATM   10  O   UNL     1     -11.075   6.181  72.601  1.00  0.00    -0.247 OA 
BRANCH   8  11
HETATM   11  C   UNL     1     -11.182   8.574  72.136  1.00  0.00    -0.432 A  
HETATM   12  C   UNL     1     -10.231   9.029  71.205  1.00  0.00    -0.384 A  
HETATM   13  C   UNL     1     -10.533  10.003  70.236  1.00  0.00    -0.331 A  
HETATM   14  C   UNL     1     -11.790  10.614  70.294  1.00  0.00    -0.342 A  
HETATM   15  H   UNL     1     -13.002  12.036  69.481  1.00  0.00     0.000 HD 
HETATM   16  C   UNL     1     -12.736  10.216  71.227  1.00  0.00    -0.509 A  
HETATM   17  O   UNL     1     -12.148  11.621  69.442  1.00  0.00    -0.306 OA 
HETATM   18  C   UNL     1     -12.447   9.183  72.125  1.00  0.00    -0.436 A  
BRANCH  13  19
HETATM   19  C   UNL     1      -9.479  10.374  69.229  1.00  0.00    -0.198 C  
HETATM   20  O   UNL     1      -9.792   9.828  67.949  1.00  0.00    -0.143 OA 
HETATM   21  H   UNL     1      -9.127  10.062  67.312  1.00  0.00     0.000 HD 
ENDBRANCH  13  19
ENDBRANCH   8  11
ENDBRANCH   7   8
ENDBRANCH   3   7
TORSDOF 4
ENDMDL
MODEL      172
REMARK 921   NORMALIZED FREE ENERGY PREDICTED BY IDOCK:   -3.51 KCAL/MOL
REMARK 922        TOTAL FREE ENERGY PREDICTED BY IDOCK:   -5.04 KCAL/MOL
REMARK 923 INTER-LIGAND FREE ENERGY PREDICTED BY IDOCK:   -4.77 KCAL/MOL
REMARK 924 INTRA-LIGAND FREE ENERGY PREDICTED BY IDOCK:   -0.26 KCAL/MOL
REMARK 927      BINDING AFFINITY PREDICTED BY RF-SCORE:    0.00 PKD
ROOT
HETATM    1  C   UNL     1     -10.798   8.414  72.321  1.00  0.00    -0.422 C  
HETATM    2  C   UNL     1     -11.971   8.308  71.332  1.00  0.00    -0.299 C  
HETATM    3  N   UNL     1     -11.833   9.282  70.229  1.00  0.00    -0.469 NA 
HETATM    4  C   UNL     1     -12.117   6.864  70.830  1.00  0.00    -0.424 C  
HETATM    5  C   UNL     1     -13.267   8.691  72.076  1.00  0.00    -0.422 C  
HETATM    6  H   UNL     1     -12.519  10.020  70.072  1.00  0.00     0.000 HD 
ENDROOT
BRANCH   3   7
HETATM    7  C   UNL     1     -10.646   9.124  69.369  1.00  0.00    -0.223 C  
BRANCH   7   8
HETATM    8  C   UNL     1     -10.761   9.771  67.954  1.00  0.00    -0.258 C  
HETATM    9  H   UNL     1      -9.806   9.574  66.280  1.00  0.00     0.000 HD 
HETATM   10  O   UNL     1      -9.736   9.180  67.141  1.00  0.00    -0.161 OA 
BRANCH   8  11
HETATM   11  C   UNL     1     -10.676  11.294  67.914  1.00  0.00    -0.250 A  
HETATM   12  C   UNL     1      -9.436  11.924  67.702  1.00  0.00    -0.182 A  
HETATM   13  C   UNL     1      -9.308  13.323  67.621  1.00  0.00    -0.212 A  
HETATM   14  C   UNL     1     -10.441  14.099  67.880  1.00  0.00    -0.237 A  
HETATM   15  H   UNL     1     -11.170  15.993  68.072  1.00  0.00     0.000 HD 
HETATM   16  C   UNL     1     -11.670  13.507  68.134  1.00  0.00    -0.396 A  
HETATM   17  O   UNL     1     -10.399  15.465  67.896  1.00  0.00    -0.241 OA 
HETATM   18  C   UNL     1     -11.795  12.114  68.122  1.00  0.00    -0.362 A  
BRANCH  13  19
HETATM   19  C   UNL     1      -7.957  13.910  67.313  1.00  0.00    -0.129 C  
HETATM   20  O   UNL     1      -6.932  13.210  68.016  1.00  0.00    -0.087 OA 
HETATM   21  H   UNL     1      -6.079  13.580  67.822  1.00  0.00     0.000 HD 
ENDBRANCH  13  19
ENDBRANCH   8  11
ENDBRANCH   7   8
ENDBRANCH   3   7
TORSDOF 4
ENDMDL
MODEL      173
REMARK 921   NORMALIZED FREE ENERGY PREDICTED BY IDOCK:   -3.50 KCAL/MOL
REMARK 922        TOTAL FREE ENERGY PREDICTED BY IDOCK:   -5.02 KCAL/MOL
REMARK 923 INTER-LIGAND FREE ENERGY PREDICTED BY IDOCK:   -4.58 KCAL/MOL
REMARK 924 INTRA-LIGAND FREE ENERGY PREDICTED BY IDOCK:   -0.44 KCAL/MOL
REMARK 927      BINDING AFFINITY PREDICTED BY RF-SCORE:    0.00 PKD
ROOT
HETATM    1  C   UNL     1      -8.666  10.786  68.435  1.00  0.00    -0.142 C  
HETATM    2  C   UNL     1      -8.539   9.856  67.217  1.00  0.00    -0.125 C  
HETATM    3  N   UNL     1      -8.755   8.444  67.595  1.00  0.00    -0.136 NA 
HETATM    4  C   UNL     1      -9.479  10.317  66.093  1.00  0.00    -0.229 C  
HETATM    5  C   UNL     1      -7.090   9.938  66.695  1.00  0.00    -0.087 C  
HETATM    6  H   UNL     1      -8.026   7.739  67.486  1.00  0.00     0.000 HD 
ENDROOT
BRANCH   3   7
HETATM    7  C   UNL     1     -10.085   8.114  68.140  1.00  0.00    -0.198 C  
BRANCH   7   8
HETATM    8  C   UNL     1     -10.094   7.640  69.627  1.00  0.00    -0.194 C  
HETATM    9  H   UNL     1     -10.054   5.917  70.511  1.00  0.00     0.000 HD 
HETATM   10  O   UNL     1     -10.048   6.205  69.606  1.00  0.00    -0.163 OA 
BRANCH   8  11
HETATM   11  C   UNL     1     -11.265   8.134  70.471  1.00  0.00    -0.249 A  
HETATM   12  C   UNL     1     -11.489   9.515  70.624  1.00  0.00    -0.362 A  
HETATM   13  C   UNL     1     -12.574  10.024  71.361  1.00  0.00    -0.518 A  
HETATM   14  C   UNL     1     -13.376   9.113  72.055  1.00  0.00    -0.445 A  
HETATM   15  H   UNL     1     -14.954   8.898  73.327  1.00  0.00     0.000 HD 
HETATM   16  C   UNL     1     -13.156   7.747  71.958  1.00  0.00    -0.233 A  
HETATM   17  O   UNL     1     -14.408   9.517  72.856  1.00  0.00    -0.257 OA 
HETATM   18  C   UNL     1     -12.126   7.257  71.148  1.00  0.00    -0.376 A  
BRANCH  13  19
HETATM   19  C   UNL     1     -12.783  11.513  71.407  1.00  0.00    -0.364 C  
HETATM   20  O   UNL     1     -11.844  12.180  70.565  1.00  0.00    -0.500 OA 
HETATM   21  H   UNL     1     -11.976  13.120  70.594  1.00  0.00     0.000 HD 
ENDBRANCH  13  19
ENDBRANCH   8  11
ENDBRANCH   7   8
ENDBRANCH   3   7
TORSDOF 4
ENDMDL
MODEL      174
REMARK 921   NORMALIZED FREE ENERGY PREDICTED BY IDOCK:   -3.49 KCAL/MOL
REMARK 922        TOTAL FREE ENERGY PREDICTED BY IDOCK:   -5.02 KCAL/MOL
REMARK 923 INTER-LIGAND FREE ENERGY PREDICTED BY IDOCK:   -4.52 KCAL/MOL
REMARK 924 INTRA-LIGAND FREE ENERGY PREDICTED BY IDOCK:   -0.50 KCAL/MOL
REMARK 927      BINDING AFFINITY PREDICTED BY RF-SCORE:    0.00 PKD
ROOT
HETATM    1  C   UNL     1     -10.063   6.801  70.499  1.00  0.00    -0.201 C  
HETATM    2  C   UNL     1      -9.399   8.119  70.929  1.00  0.00    -0.151 C  
HETATM    3  N   UNL     1      -9.395   9.103  69.827  1.00  0.00    -0.172 NA 
HETATM    4  C   UNL     1     -10.063   8.661  72.203  1.00  0.00    -0.388 C  
HETATM    5  C   UNL     1      -7.916   7.833  71.246  1.00  0.00    -0.094 C  
HETATM    6  H   UNL     1      -8.529   9.464  69.429  1.00  0.00     0.000 HD 
ENDROOT
BRANCH   3   7
HETATM    7  C   UNL     1     -10.718   9.531  69.335  1.00  0.00    -0.225 C  
BRANCH   7   8
HETATM    8  C   UNL     1     -11.041  11.045  69.534  1.00  0.00    -0.263 C  
HETATM    9  H   UNL     1     -12.534  12.038  70.269  1.00  0.00     0.000 HD 
HETATM   10  O   UNL     1     -12.337  11.117  70.148  1.00  0.00    -0.304 OA 
BRANCH   8  11
HETATM   11  C   UNL     1     -10.987  11.904  68.274  1.00  0.00    -0.273 A  
HETATM   12  C   UNL     1     -10.367  13.166  68.309  1.00  0.00    -0.256 A  
HETATM   13  C   UNL     1     -10.258  13.982  67.168  1.00  0.00    -0.258 A  
HETATM   14  C   UNL     1     -10.896  13.559  65.999  1.00  0.00    -0.278 A  
HETATM   15  H   UNL     1     -11.341  14.029  64.066  1.00  0.00     0.000 HD 
HETATM   16  C   UNL     1     -11.551  12.337  65.944  1.00  0.00    -0.450 A  
HETATM   17  O   UNL     1     -10.907  14.317  64.861  1.00  0.00    -0.373 OA 
HETATM   18  C   UNL     1     -11.573  11.500  67.064  1.00  0.00    -0.203 A  
BRANCH  13  19
HETATM   19  C   UNL     1      -9.509  15.284  67.277  1.00  0.00    -0.208 C  
HETATM   20  O   UNL     1      -8.612  15.441  66.179  1.00  0.00    -0.418 OA 
HETATM   21  H   UNL     1      -8.139  16.262  66.248  1.00  0.00     0.000 HD 
ENDBRANCH  13  19
ENDBRANCH   8  11
ENDBRANCH   7   8
ENDBRANCH   3   7
TORSDOF 4
ENDMDL
MODEL      175
REMARK 921   NORMALIZED FREE ENERGY PREDICTED BY IDOCK:   -3.48 KCAL/MOL
REMARK 922        TOTAL FREE ENERGY PREDICTED BY IDOCK:   -5.00 KCAL/MOL
REMARK 923 INTER-LIGAND FREE ENERGY PREDICTED BY IDOCK:   -4.63 KCAL/MOL
REMARK 924 INTRA-LIGAND FREE ENERGY PREDICTED BY IDOCK:   -0.38 KCAL/MOL
REMARK 927      BINDING AFFINITY PREDICTED BY RF-SCORE:    0.00 PKD
ROOT
HETATM    1  C   UNL     1     -11.006   8.478  72.011  1.00  0.00    -0.410 C  
HETATM    2  C   UNL     1     -10.349   8.491  70.621  1.00  0.00    -0.199 C  
HETATM    3  N   UNL     1     -11.215   9.153  69.624  1.00  0.00    -0.431 NA 
HETATM    4  C   UNL     1      -8.950   9.120  70.698  1.00  0.00    -0.292 C  
HETATM    5  C   UNL     1     -10.194   7.032  70.145  1.00  0.00    -0.206 C  
HETATM    6  H   UNL     1     -11.581   8.656  68.812  1.00  0.00     0.000 HD 
ENDROOT
BRANCH   3   7
HETATM    7  C   UNL     1     -11.521  10.575  69.872  1.00  0.00    -0.310 C  
BRANCH   7   8
HETATM    8  C   UNL     1     -11.603  11.468  68.595  1.00  0.00    -0.313 C  
HETATM    9  H   UNL     1     -10.842  11.381  66.815  1.00  0.00     0.000 HD 
HETATM   10  O   UNL     1     -10.792  10.838  67.592  1.00  0.00    -0.236 OA 
BRANCH   8  11
HETATM   11  C   UNL     1     -11.201  12.928  68.782  1.00  0.00    -0.323 A  
HETATM   12  C   UNL     1      -9.841  13.284  68.817  1.00  0.00    -0.012 A  
HETATM   13  C   UNL     1      -9.416  14.619  68.951  1.00  0.00    -0.173 A  
HETATM   14  C   UNL     1     -10.392  15.595  69.174  1.00  0.00    -0.241 A  
HETATM   15  H   UNL     1     -10.734  17.571  69.540  1.00  0.00     0.000 HD 
HETATM   16  C   UNL     1     -11.740  15.269  69.187  1.00  0.00    -0.355 A  
HETATM   17  O   UNL     1     -10.072  16.907  69.388  1.00  0.00    -0.244 OA 
HETATM   18  C   UNL     1     -12.146  13.950  68.963  1.00  0.00    -0.365 A  
BRANCH  13  19
HETATM   19  C   UNL     1      -7.942  14.919  68.900  1.00  0.00    -0.163 C  
HETATM   20  O   UNL     1      -7.345  14.728  70.181  1.00  0.00    -0.353 OA 
HETATM   21  H   UNL     1      -6.415  14.917  70.149  1.00  0.00     0.000 HD 
ENDBRANCH  13  19
ENDBRANCH   8  11
ENDBRANCH   7   8
ENDBRANCH   3   7
TORSDOF 4
ENDMDL
MODEL      176
REMARK 921   NORMALIZED FREE ENERGY PREDICTED BY IDOCK:   -3.47 KCAL/MOL
REMARK 922        TOTAL FREE ENERGY PREDICTED BY IDOCK:   -4.99 KCAL/MOL
REMARK 923 INTER-LIGAND FREE ENERGY PREDICTED BY IDOCK:   -4.45 KCAL/MOL
REMARK 924 INTRA-LIGAND FREE ENERGY PREDICTED BY IDOCK:   -0.53 KCAL/MOL
REMARK 927      BINDING AFFINITY PREDICTED BY RF-SCORE:    0.00 PKD
ROOT
HETATM    1  C   UNL     1      -6.854   9.889  66.004  1.00  0.00    -0.099 C  
HETATM    2  C   UNL     1      -6.667  10.394  67.445  1.00  0.00    -0.072 C  
HETATM    3  N   UNL     1      -7.963  10.511  68.145  1.00  0.00    -0.108 NA 
HETATM    4  C   UNL     1      -5.667   9.503  68.196  1.00  0.00    -0.040 C  
HETATM    5  C   UNL     1      -6.087  11.822  67.386  1.00  0.00    -0.108 C  
HETATM    6  H   UNL     1      -8.311  11.405  68.489  1.00  0.00     0.000 HD 
ENDROOT
BRANCH   3   7
HETATM    7  C   UNL     1      -8.723   9.259  68.317  1.00  0.00    -0.129 C  
BRANCH   7   8
HETATM    8  C   UNL     1     -10.273   9.403  68.211  1.00  0.00    -0.196 C  
HETATM    9  H   UNL     1     -11.641   8.641  67.071  1.00  0.00     0.000 HD 
HETATM   10  O   UNL     1     -10.698   8.553  67.136  1.00  0.00    -0.280 OA 
BRANCH   8  11
HETATM   11  C   UNL     1     -10.793  10.825  68.019  1.00  0.00    -0.302 A  
HETATM   12  C   UNL     1     -11.126  11.284  66.732  1.00  0.00    -0.314 A  
HETATM   13  C   UNL     1     -11.644  12.573  66.504  1.00  0.00    -0.447 A  
HETATM   14  C   UNL     1     -11.710  13.452  67.589  1.00  0.00    -0.359 A  
HETATM   15  H   UNL     1     -12.174  15.343  68.190  1.00  0.00     0.000 HD 
HETATM   16  C   UNL     1     -11.349  13.041  68.864  1.00  0.00    -0.333 A  
HETATM   17  O   UNL     1     -12.129  14.745  67.452  1.00  0.00    -0.303 OA 
HETATM   18  C   UNL     1     -10.921  11.728  69.085  1.00  0.00    -0.261 A  
BRANCH  13  19
HETATM   19  C   UNL     1     -12.048  12.954  65.105  1.00  0.00    -0.445 C  
HETATM   20  O   UNL     1     -13.376  13.473  65.089  1.00  0.00    -0.655 OA 
HETATM   21  H   UNL     1     -13.632  13.714  64.207  1.00  0.00     0.000 HD 
ENDBRANCH  13  19
ENDBRANCH   8  11
ENDBRANCH   7   8
ENDBRANCH   3   7
TORSDOF 4
ENDMDL
MODEL      177
REMARK 921   NORMALIZED FREE ENERGY PREDICTED BY IDOCK:   -3.46 KCAL/MOL
REMARK 922        TOTAL FREE ENERGY PREDICTED BY IDOCK:   -4.98 KCAL/MOL
REMARK 923 INTER-LIGAND FREE ENERGY PREDICTED BY IDOCK:   -4.54 KCAL/MOL
REMARK 924 INTRA-LIGAND FREE ENERGY PREDICTED BY IDOCK:   -0.44 KCAL/MOL
REMARK 927      BINDING AFFINITY PREDICTED BY RF-SCORE:    0.00 PKD
ROOT
HETATM    1  C   UNL     1     -11.593  14.820  67.857  1.00  0.00    -0.373 C  
HETATM    2  C   UNL     1     -10.057  14.892  67.835  1.00  0.00    -0.227 C  
HETATM    3  N   UNL     1      -9.458  13.828  68.666  1.00  0.00    -0.365 NA 
HETATM    4  C   UNL     1      -9.544  14.871  66.388  1.00  0.00    -0.317 C  
HETATM    5  C   UNL     1      -9.626  16.225  68.479  1.00  0.00    -0.222 C  
HETATM    6  H   UNL     1      -8.882  14.039  69.480  1.00  0.00     0.000 HD 
ENDROOT
BRANCH   3   7
HETATM    7  C   UNL     1      -9.741  12.442  68.249  1.00  0.00    -0.218 C  
BRANCH   7   8
HETATM    8  C   UNL     1      -8.875  11.348  68.949  1.00  0.00    -0.001 C  
HETATM    9  H   UNL     1      -7.132  10.569  68.620  1.00  0.00     0.000 HD 
HETATM   10  O   UNL     1      -7.659  11.235  68.194  1.00  0.00    -0.095 OA 
BRANCH   8  11
HETATM   11  C   UNL     1      -9.540   9.985  69.117  1.00  0.00    -0.217 A  
HETATM   12  C   UNL     1      -9.663   9.121  68.013  1.00  0.00    -0.177 A  
HETATM   13  C   UNL     1     -10.234   7.840  68.121  1.00  0.00    -0.244 A  
HETATM   14  C   UNL     1     -10.801   7.478  69.347  1.00  0.00    -0.150 A  
HETATM   15  H   UNL     1     -11.827   6.039  70.361  1.00  0.00     0.000 HD 
HETATM   16  C   UNL     1     -10.733   8.326  70.444  1.00  0.00    -0.239 A  
HETATM   17  O   UNL     1     -11.442   6.285  69.528  1.00  0.00    -0.428 OA 
HETATM   18  C   UNL     1     -10.081   9.559  70.339  1.00  0.00    -0.329 A  
BRANCH  13  19
HETATM   19  C   UNL     1     -10.254   6.951  66.907  1.00  0.00    -0.240 C  
HETATM   20  O   UNL     1     -11.550   6.387  66.718  1.00  0.00    -0.700 OA 
HETATM   21  H   UNL     1     -11.563   5.825  65.951  1.00  0.00     0.000 HD 
ENDBRANCH  13  19
ENDBRANCH   8  11
ENDBRANCH   7   8
ENDBRANCH   3   7
TORSDOF 4
ENDMDL
MODEL      178
REMARK 921   NORMALIZED FREE ENERGY PREDICTED BY IDOCK:   -3.45 KCAL/MOL
REMARK 922        TOTAL FREE ENERGY PREDICTED BY IDOCK:   -4.97 KCAL/MOL
REMARK 923 INTER-LIGAND FREE ENERGY PREDICTED BY IDOCK:   -4.99 KCAL/MOL
REMARK 924 INTRA-LIGAND FREE ENERGY PREDICTED BY IDOCK:    0.03 KCAL/MOL
REMARK 927      BINDING AFFINITY PREDICTED BY RF-SCORE:    0.00 PKD
ROOT
HETATM    1  C   UNL     1      -8.951   9.408  63.453  1.00  0.00    -0.150 C  
HETATM    2  C   UNL     1      -8.992  10.171  64.787  1.00  0.00    -0.203 C  
HETATM    3  N   UNL     1      -9.395  11.578  64.589  1.00  0.00    -0.407 NA 
HETATM    4  C   UNL     1      -9.888   9.436  65.794  1.00  0.00    -0.345 C  
HETATM    5  C   UNL     1      -7.561  10.217  65.362  1.00  0.00    -0.146 C  
HETATM    6  H   UNL     1      -8.777  12.355  64.825  1.00  0.00     0.000 HD 
ENDROOT
BRANCH   3   7
HETATM    7  C   UNL     1     -10.742  11.795  64.030  1.00  0.00    -0.378 C  
BRANCH   7   8
HETATM    8  C   UNL     1     -11.624  12.824  64.803  1.00  0.00    -0.325 C  
HETATM    9  H   UNL     1     -12.980  14.113  64.298  1.00  0.00     0.000 HD 
HETATM   10  O   UNL     1     -12.443  13.486  63.827  1.00  0.00    -0.696 OA 
BRANCH   8  11
HETATM   11  C   UNL     1     -10.865  13.837  65.654  1.00  0.00    -0.287 A  
HETATM   12  C   UNL     1      -9.864  13.402  66.542  1.00  0.00    -0.286 A  
HETATM   13  C   UNL     1      -9.110  14.296  67.322  1.00  0.00    -0.221 A  
HETATM   14  C   UNL     1      -9.461  15.649  67.289  1.00  0.00    -0.216 A  
HETATM   15  H   UNL     1      -9.074  17.501  68.044  1.00  0.00     0.000 HD 
HETATM   16  C   UNL     1     -10.472  16.105  66.455  1.00  0.00    -0.304 A  
HETATM   17  O   UNL     1      -8.835  16.582  68.067  1.00  0.00    -0.191 OA 
HETATM   18  C   UNL     1     -11.151  15.211  65.620  1.00  0.00    -0.334 A  
BRANCH  13  19
HETATM   19  C   UNL     1      -8.005  13.750  68.186  1.00  0.00    -0.150 C  
HETATM   20  O   UNL     1      -8.104  14.264  69.513  1.00  0.00    -0.354 OA 
HETATM   21  H   UNL     1      -7.407  13.920  70.059  1.00  0.00     0.000 HD 
ENDBRANCH  13  19
ENDBRANCH   8  11
ENDBRANCH   7   8
ENDBRANCH   3   7
TORSDOF 4
ENDMDL
MODEL      179
REMARK 921   NORMALIZED FREE ENERGY PREDICTED BY IDOCK:   -3.45 KCAL/MOL
REMARK 922        TOTAL FREE ENERGY PREDICTED BY IDOCK:   -4.97 KCAL/MOL
REMARK 923 INTER-LIGAND FREE ENERGY PREDICTED BY IDOCK:   -4.78 KCAL/MOL
REMARK 924 INTRA-LIGAND FREE ENERGY PREDICTED BY IDOCK:   -0.19 KCAL/MOL
REMARK 927      BINDING AFFINITY PREDICTED BY RF-SCORE:    0.00 PKD
ROOT
HETATM    1  C   UNL     1     -13.523  14.668  72.885  1.00  0.00    -0.528 C  
HETATM    2  C   UNL     1     -12.581  14.592  71.672  1.00  0.00    -0.337 C  
HETATM    3  N   UNL     1     -12.105  13.212  71.448  1.00  0.00    -0.165 NA 
HETATM    4  C   UNL     1     -13.259  15.193  70.432  1.00  0.00    -0.169 C  
HETATM    5  C   UNL     1     -11.322  15.428  71.984  1.00  0.00    -0.466 C  
HETATM    6  H   UNL     1     -11.117  12.966  71.503  1.00  0.00     0.000 HD 
ENDROOT
BRANCH   3   7
HETATM    7  C   UNL     1     -13.142  12.210  71.138  1.00  0.00    -0.023 C  
BRANCH   7   8
HETATM    8  C   UNL     1     -12.623  10.908  70.452  1.00  0.00    -0.294 C  
HETATM    9  H   UNL     1     -11.420   9.479  70.965  1.00  0.00     0.000 HD 
HETATM   10  O   UNL     1     -11.736  10.271  71.383  1.00  0.00    -0.341 OA 
BRANCH   8  11
HETATM   11  C   UNL     1     -11.946  11.099  69.098  1.00  0.00    -0.413 A  
HETATM   12  C   UNL     1     -11.295  10.017  68.478  1.00  0.00    -0.115 A  
HETATM   13  C   UNL     1     -10.686  10.130  67.214  1.00  0.00    -0.316 A  
HETATM   14  C   UNL     1     -10.635  11.396  66.625  1.00  0.00    -0.258 A  
HETATM   15  H   UNL     1      -9.966  12.479  65.033  1.00  0.00     0.000 HD 
HETATM   16  C   UNL     1     -11.232  12.492  67.231  1.00  0.00    -0.347 A  
HETATM   17  O   UNL     1     -10.002  11.619  65.434  1.00  0.00    -0.234 OA 
HETATM   18  C   UNL     1     -11.909  12.341  68.445  1.00  0.00    -0.358 A  
BRANCH  13  19
HETATM   19  C   UNL     1     -10.081   8.902  66.590  1.00  0.00    -0.287 C  
HETATM   20  O   UNL     1      -8.769   8.672  67.101  1.00  0.00    -0.126 OA 
HETATM   21  H   UNL     1      -8.387   7.897  66.707  1.00  0.00     0.000 HD 
ENDBRANCH  13  19
ENDBRANCH   8  11
ENDBRANCH   7   8
ENDBRANCH   3   7
TORSDOF 4
ENDMDL
MODEL      180
REMARK 921   NORMALIZED FREE ENERGY PREDICTED BY IDOCK:   -3.44 KCAL/MOL
REMARK 922        TOTAL FREE ENERGY PREDICTED BY IDOCK:   -4.95 KCAL/MOL
REMARK 923 INTER-LIGAND FREE ENERGY PREDICTED BY IDOCK:   -4.37 KCAL/MOL
REMARK 924 INTRA-LIGAND FREE ENERGY PREDICTED BY IDOCK:   -0.58 KCAL/MOL
REMARK 927      BINDING AFFINITY PREDICTED BY RF-SCORE:    0.00 PKD
ROOT
HETATM    1  C   UNL     1     -11.357  15.335  67.595  1.00  0.00    -0.315 C  
HETATM    2  C   UNL     1     -10.287  15.020  68.653  1.00  0.00    -0.236 C  
HETATM    3  N   UNL     1     -10.249  13.576  68.964  1.00  0.00    -0.431 NA 
HETATM    4  C   UNL     1      -8.922  15.565  68.209  1.00  0.00    -0.185 C  
HETATM    5  C   UNL     1     -10.682  15.725  69.967  1.00  0.00    -0.347 C  
HETATM    6  H   UNL     1     -10.452  13.220  69.898  1.00  0.00     0.000 HD 
ENDROOT
BRANCH   3   7
HETATM    7  C   UNL     1      -9.899  12.680  67.846  1.00  0.00    -0.218 C  
BRANCH   7   8
HETATM    8  C   UNL     1     -10.764  11.386  67.737  1.00  0.00    -0.211 C  
HETATM    9  H   UNL     1     -12.663  11.016  67.644  1.00  0.00     0.000 HD 
HETATM   10  O   UNL     1     -12.137  11.804  67.710  1.00  0.00    -0.595 OA 
BRANCH   8  11
HETATM   11  C   UNL     1     -10.533  10.342  68.826  1.00  0.00    -0.219 A  
HETATM   12  C   UNL     1      -9.457   9.443  68.722  1.00  0.00    -0.150 A  
HETATM   13  C   UNL     1      -9.177   8.486  69.715  1.00  0.00    -0.157 A  
HETATM   14  C   UNL     1     -10.081   8.362  70.775  1.00  0.00    -0.193 A  
HETATM   15  H   UNL     1     -10.548   7.329  72.468  1.00  0.00     0.000 HD 
HETATM   16  C   UNL     1     -11.176   9.207  70.884  1.00  0.00    -0.359 A  
HETATM   17  O   UNL     1      -9.935   7.413  71.748  1.00  0.00    -0.171 OA 
HETATM   18  C   UNL     1     -11.387  10.211  69.932  1.00  0.00    -0.335 A  
BRANCH  13  19
HETATM   19  C   UNL     1      -7.959   7.616  69.562  1.00  0.00    -0.125 C  
HETATM   20  O   UNL     1      -8.304   6.239  69.701  1.00  0.00    -0.122 OA 
HETATM   21  H   UNL     1      -7.535   5.689  69.604  1.00  0.00     0.000 HD 
ENDBRANCH  13  19
ENDBRANCH   8  11
ENDBRANCH   7   8
ENDBRANCH   3   7
TORSDOF 4
ENDMDL
MODEL      181
REMARK 921   NORMALIZED FREE ENERGY PREDICTED BY IDOCK:   -3.44 KCAL/MOL
REMARK 922        TOTAL FREE ENERGY PREDICTED BY IDOCK:   -4.95 KCAL/MOL
REMARK 923 INTER-LIGAND FREE ENERGY PREDICTED BY IDOCK:   -4.52 KCAL/MOL
REMARK 924 INTRA-LIGAND FREE ENERGY PREDICTED BY IDOCK:   -0.43 KCAL/MOL
REMARK 927      BINDING AFFINITY PREDICTED BY RF-SCORE:    0.00 PKD
ROOT
HETATM    1  C   UNL     1      -9.771  13.254  66.132  1.00  0.00    -0.258 C  
HETATM    2  C   UNL     1     -10.353  11.831  66.103  1.00  0.00    -0.230 C  
HETATM    3  N   UNL     1      -9.462  10.873  66.791  1.00  0.00    -0.175 NA 
HETATM    4  C   UNL     1     -11.779  11.826  66.673  1.00  0.00    -0.174 C  
HETATM    5  C   UNL     1     -10.421  11.365  64.634  1.00  0.00    -0.373 C  
HETATM    6  H   UNL     1      -9.034  10.088  66.301  1.00  0.00     0.000 HD 
ENDROOT
BRANCH   3   7
HETATM    7  C   UNL     1      -9.230  11.118  68.226  1.00  0.00    -0.169 C  
BRANCH   7   8
HETATM    8  C   UNL     1      -9.185   9.840  69.120  1.00  0.00    -0.176 C  
HETATM    9  H   UNL     1      -8.919   7.950  68.787  1.00  0.00     0.000 HD 
HETATM   10  O   UNL     1      -8.946   8.728  68.243  1.00  0.00    -0.140 OA 
BRANCH   8  11
HETATM   11  C   UNL     1     -10.417   9.595  69.986  1.00  0.00    -0.301 A  
HETATM   12  C   UNL     1     -10.441   8.513  70.885  1.00  0.00    -0.248 A  
HETATM   13  C   UNL     1     -11.536   8.264  71.733  1.00  0.00    -0.353 A  
HETATM   14  C   UNL     1     -12.676   9.058  71.578  1.00  0.00    -0.339 A  
HETATM   15  H   UNL     1     -14.589   9.385  72.199  1.00  0.00     0.000 HD 
HETATM   16  C   UNL     1     -12.699  10.107  70.670  1.00  0.00    -0.334 A  
HETATM   17  O   UNL     1     -13.814   8.845  72.304  1.00  0.00    -0.434 OA 
HETATM   18  C   UNL     1     -11.567  10.394  69.899  1.00  0.00    -0.358 A  
BRANCH  13  19
HETATM   19  C   UNL     1     -11.445   7.131  72.720  1.00  0.00    -0.195 C  
HETATM   20  O   UNL     1     -11.260   5.889  72.045  1.00  0.00    -0.264 OA 
HETATM   21  H   UNL     1     -11.203   5.174  72.667  1.00  0.00     0.000 HD 
ENDBRANCH  13  19
ENDBRANCH   8  11
ENDBRANCH   7   8
ENDBRANCH   3   7
TORSDOF 4
ENDMDL
MODEL      182
REMARK 921   NORMALIZED FREE ENERGY PREDICTED BY IDOCK:   -3.43 KCAL/MOL
REMARK 922        TOTAL FREE ENERGY PREDICTED BY IDOCK:   -4.94 KCAL/MOL
REMARK 923 INTER-LIGAND FREE ENERGY PREDICTED BY IDOCK:   -4.48 KCAL/MOL
REMARK 924 INTRA-LIGAND FREE ENERGY PREDICTED BY IDOCK:   -0.45 KCAL/MOL
REMARK 927      BINDING AFFINITY PREDICTED BY RF-SCORE:    0.00 PKD
ROOT
HETATM    1  C   UNL     1      -9.884  11.583  68.021  1.00  0.00    -0.192 C  
HETATM    2  C   UNL     1     -11.081  12.416  68.509  1.00  0.00    -0.258 C  
HETATM    3  N   UNL     1     -10.635  13.621  69.239  1.00  0.00    -0.436 NA 
HETATM    4  C   UNL     1     -12.013  12.748  67.335  1.00  0.00    -0.335 C  
HETATM    5  C   UNL     1     -11.874  11.573  69.529  1.00  0.00    -0.419 C  
HETATM    6  H   UNL     1     -10.865  13.773  70.220  1.00  0.00     0.000 HD 
ENDROOT
BRANCH   3   7
HETATM    7  C   UNL     1      -9.836  14.590  68.465  1.00  0.00    -0.231 C  
BRANCH   7   8
HETATM    8  C   UNL     1      -9.759  16.024  69.075  1.00  0.00    -0.244 C  
HETATM    9  H   UNL     1     -11.059  17.388  69.528  1.00  0.00     0.000 HD 
HETATM   10  O   UNL     1     -11.106  16.515  69.156  1.00  0.00    -0.311 OA 
BRANCH   8  11
HETATM   11  C   UNL     1      -8.864  17.011  68.333  1.00  0.00    -0.247 A  
HETATM   12  C   UNL     1      -8.166  18.002  69.046  1.00  0.00    -0.039 A  
HETATM   13  C   UNL     1      -7.299  18.914  68.416  1.00  0.00    -0.318 A  
HETATM   14  C   UNL     1      -7.234  18.894  67.019  1.00  0.00    -0.209 A  
HETATM   15  H   UNL     1      -6.433  19.774  65.365  1.00  0.00     0.000 HD 
HETATM   16  C   UNL     1      -7.943  17.955  66.284  1.00  0.00    -0.279 A  
HETATM   17  O   UNL     1      -6.477  19.787  66.314  1.00  0.00    -0.188 OA 
HETATM   18  C   UNL     1      -8.730  17.000  66.936  1.00  0.00    -0.251 A  
BRANCH  13  19
HETATM   19  C   UNL     1      -6.532  19.891  69.265  1.00  0.00    -0.345 C  
HETATM   20  O   UNL     1      -5.157  19.916  68.885  1.00  0.00    -0.183 OA 
HETATM   21  H   UNL     1      -4.672  20.533  69.421  1.00  0.00     0.000 HD 
ENDBRANCH  13  19
ENDBRANCH   8  11
ENDBRANCH   7   8
ENDBRANCH   3   7
TORSDOF 4
ENDMDL
MODEL      183
REMARK 921   NORMALIZED FREE ENERGY PREDICTED BY IDOCK:   -3.43 KCAL/MOL
REMARK 922        TOTAL FREE ENERGY PREDICTED BY IDOCK:   -4.94 KCAL/MOL
REMARK 923 INTER-LIGAND FREE ENERGY PREDICTED BY IDOCK:   -4.67 KCAL/MOL
REMARK 924 INTRA-LIGAND FREE ENERGY PREDICTED BY IDOCK:   -0.27 KCAL/MOL
REMARK 927      BINDING AFFINITY PREDICTED BY RF-SCORE:    0.00 PKD
ROOT
HETATM    1  C   UNL     1     -11.004  10.775  67.162  1.00  0.00    -0.324 C  
HETATM    2  C   UNL     1     -10.761  11.269  68.598  1.00  0.00    -0.205 C  
HETATM    3  N   UNL     1      -9.566  12.135  68.673  1.00  0.00    -0.384 NA 
HETATM    4  C   UNL     1     -12.021  11.953  69.147  1.00  0.00    -0.336 C  
HETATM    5  C   UNL     1     -10.453  10.045  69.485  1.00  0.00    -0.260 C  
HETATM    6  H   UNL     1      -8.753  11.885  69.235  1.00  0.00     0.000 HD 
ENDROOT
BRANCH   3   7
HETATM    7  C   UNL     1      -9.618  13.381  67.887  1.00  0.00    -0.216 C  
BRANCH   7   8
HETATM    8  C   UNL     1      -8.305  14.225  67.893  1.00  0.00    -0.162 C  
HETATM    9  H   UNL     1      -6.727  14.289  69.016  1.00  0.00     0.000 HD 
HETATM   10  O   UNL     1      -7.526  13.775  69.012  1.00  0.00    -0.088 OA 
BRANCH   8  11
HETATM   11  C   UNL     1      -8.492  15.739  67.934  1.00  0.00    -0.161 A  
HETATM   12  C   UNL     1      -9.280  16.377  66.959  1.00  0.00    -0.236 A  
HETATM   13  C   UNL     1      -9.515  17.764  66.971  1.00  0.00    -0.271 A  
HETATM   14  C   UNL     1      -8.837  18.533  67.923  1.00  0.00    -0.284 A  
HETATM   15  H   UNL     1      -8.485  20.417  68.614  1.00  0.00     0.000 HD 
HETATM   16  C   UNL     1      -8.020  17.937  68.873  1.00  0.00    -0.175 A  
HETATM   17  O   UNL     1      -8.945  19.895  67.967  1.00  0.00    -0.317 OA 
HETATM   18  C   UNL     1      -7.871  16.547  68.899  1.00  0.00    -0.240 A  
BRANCH  13  19
HETATM   19  C   UNL     1     -10.434  18.353  65.935  1.00  0.00    -0.321 C  
HETATM   20  O   UNL     1     -10.728  17.394  64.921  1.00  0.00    -0.691 OA 
HETATM   21  H   UNL     1     -11.309  17.765  64.266  1.00  0.00     0.000 HD 
ENDBRANCH  13  19
ENDBRANCH   8  11
ENDBRANCH   7   8
ENDBRANCH   3   7
TORSDOF 4
ENDMDL
MODEL      184
REMARK 921   NORMALIZED FREE ENERGY PREDICTED BY IDOCK:   -3.43 KCAL/MOL
REMARK 922        TOTAL FREE ENERGY PREDICTED BY IDOCK:   -4.93 KCAL/MOL
REMARK 923 INTER-LIGAND FREE ENERGY PREDICTED BY IDOCK:   -4.32 KCAL/MOL
REMARK 924 INTRA-LIGAND FREE ENERGY PREDICTED BY IDOCK:   -0.62 KCAL/MOL
REMARK 927      BINDING AFFINITY PREDICTED BY RF-SCORE:    0.00 PKD
ROOT
HETATM    1  C   UNL     1      -8.300  12.128  67.971  1.00  0.00    -0.167 C  
HETATM    2  C   UNL     1      -7.131  13.061  68.329  1.00  0.00    -0.103 C  
HETATM    3  N   UNL     1      -7.457  14.470  68.026  1.00  0.00    -0.123 NA 
HETATM    4  C   UNL     1      -6.711  12.853  69.791  1.00  0.00     0.163 C  
HETATM    5  C   UNL     1      -5.932  12.700  67.428  1.00  0.00    -0.132 C  
HETATM    6  H   UNL     1      -6.926  15.011  67.344  1.00  0.00     0.000 HD 
ENDROOT
BRANCH   3   7
HETATM    7  C   UNL     1      -8.594  15.047  68.767  1.00  0.00    -0.182 C  
BRANCH   7   8
HETATM    8  C   UNL     1      -9.341  16.207  68.038  1.00  0.00    -0.203 C  
HETATM    9  H   UNL     1     -10.585  17.588  68.585  1.00  0.00     0.000 HD 
HETATM   10  O   UNL     1     -10.130  16.882  69.029  1.00  0.00    -0.271 OA 
BRANCH   8  11
HETATM   11  C   UNL     1     -10.200  15.794  66.846  1.00  0.00    -0.280 A  
HETATM   12  C   UNL     1     -10.831  14.537  66.836  1.00  0.00    -0.305 A  
HETATM   13  C   UNL     1     -11.663  14.121  65.780  1.00  0.00    -0.360 A  
HETATM   14  C   UNL     1     -11.758  14.950  64.658  1.00  0.00    -0.404 A  
HETATM   15  H   UNL     1     -12.548  15.163  62.792  1.00  0.00     0.000 HD 
HETATM   16  C   UNL     1     -11.114  16.179  64.621  1.00  0.00    -0.310 A  
HETATM   17  O   UNL     1     -12.483  14.599  63.554  1.00  0.00    -0.681 OA 
HETATM   18  C   UNL     1     -10.364  16.613  65.718  1.00  0.00    -0.338 A  
BRANCH  13  19
HETATM   19  C   UNL     1     -12.361  12.792  65.887  1.00  0.00    -0.252 C  
HETATM   20  O   UNL     1     -12.401  12.141  64.618  1.00  0.00    -0.372 OA 
HETATM   21  H   UNL     1     -12.842  11.302  64.685  1.00  0.00     0.000 HD 
ENDBRANCH  13  19
ENDBRANCH   8  11
ENDBRANCH   7   8
ENDBRANCH   3   7
TORSDOF 4
ENDMDL
MODEL      185
REMARK 921   NORMALIZED FREE ENERGY PREDICTED BY IDOCK:   -3.42 KCAL/MOL
REMARK 922        TOTAL FREE ENERGY PREDICTED BY IDOCK:   -4.93 KCAL/MOL
REMARK 923 INTER-LIGAND FREE ENERGY PREDICTED BY IDOCK:   -4.43 KCAL/MOL
REMARK 924 INTRA-LIGAND FREE ENERGY PREDICTED BY IDOCK:   -0.50 KCAL/MOL
REMARK 927      BINDING AFFINITY PREDICTED BY RF-SCORE:    0.00 PKD
ROOT
HETATM    1  C   UNL     1      -7.100  11.184  67.165  1.00  0.00    -0.113 C  
HETATM    2  C   UNL     1      -8.636  11.253  67.123  1.00  0.00    -0.147 C  
HETATM    3  N   UNL     1      -9.134  12.498  67.742  1.00  0.00    -0.183 NA 
HETATM    4  C   UNL     1      -9.139  11.066  65.684  1.00  0.00    -0.223 C  
HETATM    5  C   UNL     1      -9.195  10.100  67.981  1.00  0.00    -0.142 C  
HETATM    6  H   UNL     1      -9.731  12.488  68.569  1.00  0.00     0.000 HD 
ENDROOT
BRANCH   3   7
HETATM    7  C   UNL     1      -8.718  13.756  67.095  1.00  0.00    -0.221 C  
BRANCH   7   8
HETATM    8  C   UNL     1      -9.881  14.726  66.720  1.00  0.00    -0.255 C  
HETATM    9  H   UNL     1     -10.878  15.101  65.102  1.00  0.00     0.000 HD 
HETATM   10  O   UNL     1     -10.170  14.511  65.330  1.00  0.00    -0.343 OA 
BRANCH   8  11
HETATM   11  C   UNL     1      -9.627  16.204  67.000  1.00  0.00    -0.233 A  
HETATM   12  C   UNL     1      -8.493  16.838  66.460  1.00  0.00    -0.318 A  
HETATM   13  C   UNL     1      -8.230  18.206  66.658  1.00  0.00    -0.283 A  
HETATM   14  C   UNL     1      -9.072  18.915  67.520  1.00  0.00    -0.280 A  
HETATM   15  H   UNL     1      -9.427  20.710  68.417  1.00  0.00     0.000 HD 
HETATM   16  C   UNL     1     -10.175  18.307  68.102  1.00  0.00    -0.406 A  
HETATM   17  O   UNL     1      -8.855  20.228  67.831  1.00  0.00    -0.267 OA 
HETATM   18  C   UNL     1     -10.469  16.969  67.822  1.00  0.00    -0.349 A  
BRANCH  13  19
HETATM   19  C   UNL     1      -7.036  18.820  65.978  1.00  0.00    -0.268 C  
HETATM   20  O   UNL     1      -7.360  20.110  65.462  1.00  0.00    -0.396 OA 
HETATM   21  H   UNL     1      -6.606  20.499  65.033  1.00  0.00     0.000 HD 
ENDBRANCH  13  19
ENDBRANCH   8  11
ENDBRANCH   7   8
ENDBRANCH   3   7
TORSDOF 4
ENDMDL
MODEL      186
REMARK 921   NORMALIZED FREE ENERGY PREDICTED BY IDOCK:   -3.40 KCAL/MOL
REMARK 922        TOTAL FREE ENERGY PREDICTED BY IDOCK:   -4.90 KCAL/MOL
REMARK 923 INTER-LIGAND FREE ENERGY PREDICTED BY IDOCK:   -4.39 KCAL/MOL
REMARK 924 INTRA-LIGAND FREE ENERGY PREDICTED BY IDOCK:   -0.51 KCAL/MOL
REMARK 927      BINDING AFFINITY PREDICTED BY RF-SCORE:    0.00 PKD
ROOT
HETATM    1  C   UNL     1      -9.101   5.976  69.664  1.00  0.00    -0.139 C  
HETATM    2  C   UNL     1      -8.286   6.178  68.376  1.00  0.00    -0.114 C  
HETATM    3  N   UNL     1      -9.141   6.657  67.270  1.00  0.00    -0.117 NA 
HETATM    4  C   UNL     1      -7.089   7.102  68.642  1.00  0.00    -0.085 C  
HETATM    5  C   UNL     1      -7.744   4.805  67.927  1.00  0.00    -0.082 C  
HETATM    6  H   UNL     1      -9.274   6.115  66.417  1.00  0.00     0.000 HD 
ENDROOT
BRANCH   3   7
HETATM    7  C   UNL     1      -9.790   7.966  67.472  1.00  0.00    -0.170 C  
BRANCH   7   8
HETATM    8  C   UNL     1      -9.905   8.854  66.194  1.00  0.00    -0.256 C  
HETATM    9  H   UNL     1      -8.660   9.474  64.845  1.00  0.00     0.000 HD 
HETATM   10  O   UNL     1      -8.590   8.933  65.623  1.00  0.00    -0.146 OA 
BRANCH   8  11
HETATM   11  C   UNL     1     -10.490  10.247  66.408  1.00  0.00    -0.233 A  
HETATM   12  C   UNL     1     -10.412  11.208  65.384  1.00  0.00    -0.321 A  
HETATM   13  C   UNL     1     -10.967  12.494  65.514  1.00  0.00    -0.322 A  
HETATM   14  C   UNL     1     -11.505  12.850  66.755  1.00  0.00    -0.340 A  
HETATM   15  H   UNL     1     -12.366  14.342  67.844  1.00  0.00     0.000 HD 
HETATM   16  C   UNL     1     -11.558  11.938  67.800  1.00  0.00    -0.393 A  
HETATM   17  O   UNL     1     -12.000  14.100  67.001  1.00  0.00    -0.408 OA 
HETATM   18  C   UNL     1     -11.081  10.636  67.620  1.00  0.00    -0.385 A  
BRANCH  13  19
HETATM   19  C   UNL     1     -10.908  13.432  64.339  1.00  0.00    -0.406 C  
HETATM   20  O   UNL     1     -10.236  14.640  64.693  1.00  0.00    -0.471 OA 
HETATM   21  H   UNL     1     -10.199  15.233  63.952  1.00  0.00     0.000 HD 
ENDBRANCH  13  19
ENDBRANCH   8  11
ENDBRANCH   7   8
ENDBRANCH   3   7
TORSDOF 4
ENDMDL
MODEL      187
REMARK 921   NORMALIZED FREE ENERGY PREDICTED BY IDOCK:   -3.38 KCAL/MOL
REMARK 922        TOTAL FREE ENERGY PREDICTED BY IDOCK:   -4.88 KCAL/MOL
REMARK 923 INTER-LIGAND FREE ENERGY PREDICTED BY IDOCK:   -4.15 KCAL/MOL
REMARK 924 INTRA-LIGAND FREE ENERGY PREDICTED BY IDOCK:   -0.73 KCAL/MOL
REMARK 927      BINDING AFFINITY PREDICTED BY RF-SCORE:    0.00 PKD
ROOT
HETATM    1  C   UNL     1     -13.652   9.683  72.426  1.00  0.00    -0.397 C  
HETATM    2  C   UNL     1     -12.983   8.468  71.764  1.00  0.00    -0.352 C  
HETATM    3  N   UNL     1     -12.426   8.817  70.441  1.00  0.00    -0.221 NA 
HETATM    4  C   UNL     1     -11.935   7.857  72.705  1.00  0.00    -0.299 C  
HETATM    5  C   UNL     1     -14.068   7.404  71.498  1.00  0.00    -0.541 C  
HETATM    6  H   UNL     1     -12.757   8.377  69.583  1.00  0.00     0.000 HD 
ENDROOT
BRANCH   3   7
HETATM    7  C   UNL     1     -11.362   9.838  70.434  1.00  0.00    -0.297 C  
BRANCH   7   8
HETATM    8  C   UNL     1     -10.087   9.463  69.617  1.00  0.00    -0.206 C  
HETATM    9  H   UNL     1      -9.373   9.971  67.889  1.00  0.00     0.000 HD 
HETATM   10  O   UNL     1     -10.149  10.200  68.386  1.00  0.00    -0.155 OA 
BRANCH   8  11
HETATM   11  C   UNL     1      -9.886   7.974  69.350  1.00  0.00    -0.181 A  
HETATM   12  C   UNL     1     -10.352   7.405  68.152  1.00  0.00    -0.235 A  
HETATM   13  C   UNL     1     -10.161   6.046  67.840  1.00  0.00    -0.217 A  
HETATM   14  C   UNL     1      -9.593   5.225  68.819  1.00  0.00    -0.137 A  
HETATM   15  H   UNL     1      -9.049   3.322  69.303  1.00  0.00     0.000 HD 
HETATM   16  C   UNL     1      -9.162   5.749  70.029  1.00  0.00    -0.168 A  
HETATM   17  O   UNL     1      -9.435   3.880  68.637  1.00  0.00    -0.156 OA 
HETATM   18  C   UNL     1      -9.280   7.119  70.284  1.00  0.00    -0.156 A  
BRANCH  13  19
HETATM   19  C   UNL     1     -10.622   5.538  66.500  1.00  0.00    -0.279 C  
HETATM   20  O   UNL     1      -9.601   4.758  65.881  1.00  0.00    -0.157 OA 
HETATM   21  H   UNL     1      -9.891   4.437  65.035  1.00  0.00     0.000 HD 
ENDBRANCH  13  19
ENDBRANCH   8  11
ENDBRANCH   7   8
ENDBRANCH   3   7
TORSDOF 4
ENDMDL
MODEL      188
REMARK 921   NORMALIZED FREE ENERGY PREDICTED BY IDOCK:   -3.38 KCAL/MOL
REMARK 922        TOTAL FREE ENERGY PREDICTED BY IDOCK:   -4.88 KCAL/MOL
REMARK 923 INTER-LIGAND FREE ENERGY PREDICTED BY IDOCK:   -4.39 KCAL/MOL
REMARK 924 INTRA-LIGAND FREE ENERGY PREDICTED BY IDOCK:   -0.49 KCAL/MOL
REMARK 927      BINDING AFFINITY PREDICTED BY RF-SCORE:    0.00 PKD
ROOT
HETATM    1  C   UNL     1     -10.060   3.694  64.107  1.00  0.00    -0.212 C  
HETATM    2  C   UNL     1      -8.982   4.581  64.750  1.00  0.00    -0.152 C  
HETATM    3  N   UNL     1      -9.587   5.663  65.553  1.00  0.00    -0.366 NA 
HETATM    4  C   UNL     1      -7.998   3.723  65.559  1.00  0.00    -0.093 C  
HETATM    5  C   UNL     1      -8.195   5.281  63.622  1.00  0.00    -0.126 C  
HETATM    6  H   UNL     1      -9.444   6.647  65.327  1.00  0.00     0.000 HD 
ENDROOT
BRANCH   3   7
HETATM    7  C   UNL     1     -10.409   5.237  66.701  1.00  0.00    -0.283 C  
BRANCH   7   8
HETATM    8  C   UNL     1      -9.731   5.396  68.098  1.00  0.00    -0.137 C  
HETATM    9  H   UNL     1      -9.293   4.190  69.550  1.00  0.00     0.000 HD 
HETATM   10  O   UNL     1      -9.706   4.093  68.700  1.00  0.00    -0.152 OA 
BRANCH   8  11
HETATM   11  C   UNL     1     -10.374   6.416  69.033  1.00  0.00    -0.238 A  
HETATM   12  C   UNL     1     -10.383   7.780  68.689  1.00  0.00    -0.221 A  
HETATM   13  C   UNL     1     -10.994   8.756  69.497  1.00  0.00    -0.080 A  
HETATM   14  C   UNL     1     -11.501   8.354  70.736  1.00  0.00    -0.255 A  
HETATM   15  H   UNL     1     -12.392   8.968  72.463  1.00  0.00     0.000 HD 
HETATM   16  C   UNL     1     -11.470   7.022  71.124  1.00  0.00    -0.333 A  
HETATM   17  O   UNL     1     -12.047   9.241  71.621  1.00  0.00    -0.331 OA 
HETATM   18  C   UNL     1     -10.937   6.053  70.267  1.00  0.00    -0.412 A  
BRANCH  13  19
HETATM   19  C   UNL     1     -11.026  10.181  69.013  1.00  0.00    -0.226 C  
HETATM   20  O   UNL     1     -12.355  10.698  69.060  1.00  0.00    -0.770 OA 
HETATM   21  H   UNL     1     -12.375  11.598  68.755  1.00  0.00     0.000 HD 
ENDBRANCH  13  19
ENDBRANCH   8  11
ENDBRANCH   7   8
ENDBRANCH   3   7
TORSDOF 4
ENDMDL
MODEL      189
REMARK 921   NORMALIZED FREE ENERGY PREDICTED BY IDOCK:   -3.35 KCAL/MOL
REMARK 922        TOTAL FREE ENERGY PREDICTED BY IDOCK:   -4.84 KCAL/MOL
REMARK 923 INTER-LIGAND FREE ENERGY PREDICTED BY IDOCK:   -4.49 KCAL/MOL
REMARK 924 INTRA-LIGAND FREE ENERGY PREDICTED BY IDOCK:   -0.35 KCAL/MOL
REMARK 927      BINDING AFFINITY PREDICTED BY RF-SCORE:    0.00 PKD
ROOT
HETATM    1  C   UNL     1      -9.526  13.245  66.249  1.00  0.00    -0.196 C  
HETATM    2  C   UNL     1     -10.778  12.406  65.944  1.00  0.00    -0.266 C  
HETATM    3  N   UNL     1     -10.831  11.195  66.789  1.00  0.00    -0.274 NA 
HETATM    4  C   UNL     1     -12.042  13.269  66.067  1.00  0.00    -0.491 C  
HETATM    5  C   UNL     1     -10.680  11.902  64.489  1.00  0.00    -0.361 C  
HETATM    6  H   UNL     1     -10.809  10.257  66.390  1.00  0.00     0.000 HD 
ENDROOT
BRANCH   3   7
HETATM    7  C   UNL     1     -10.918  11.423  68.244  1.00  0.00    -0.216 C  
BRANCH   7   8
HETATM    8  C   UNL     1      -9.820  10.711  69.094  1.00  0.00    -0.200 C  
HETATM    9  H   UNL     1      -8.061   9.989  68.724  1.00  0.00     0.000 HD 
HETATM   10  O   UNL     1      -8.729  10.422  68.207  1.00  0.00    -0.122 OA 
BRANCH   8  11
HETATM   11  C   UNL     1     -10.268   9.455  69.835  1.00  0.00    -0.247 A  
HETATM   12  C   UNL     1     -11.036   9.566  71.008  1.00  0.00    -0.433 A  
HETATM   13  C   UNL     1     -11.506   8.440  71.709  1.00  0.00    -0.365 A  
HETATM   14  C   UNL     1     -11.084   7.179  71.276  1.00  0.00    -0.249 A  
HETATM   15  H   UNL     1     -11.142   5.175  71.642  1.00  0.00     0.000 HD 
HETATM   16  C   UNL     1     -10.291   7.038  70.146  1.00  0.00    -0.213 A  
HETATM   17  O   UNL     1     -11.428   6.032  71.935  1.00  0.00    -0.287 OA 
HETATM   18  C   UNL     1      -9.909   8.166  69.412  1.00  0.00    -0.182 A  
BRANCH  13  19
HETATM   19  C   UNL     1     -12.388   8.650  72.910  1.00  0.00     0.195 C  
HETATM   20  O   UNL     1     -13.764   8.618  72.535  1.00  0.00    -0.584 OA 
HETATM   21  H   UNL     1     -14.321   8.750  73.293  1.00  0.00     0.000 HD 
ENDBRANCH  13  19
ENDBRANCH   8  11
ENDBRANCH   7   8
ENDBRANCH   3   7
TORSDOF 4
ENDMDL
MODEL      190
REMARK 921   NORMALIZED FREE ENERGY PREDICTED BY IDOCK:   -3.33 KCAL/MOL
REMARK 922        TOTAL FREE ENERGY PREDICTED BY IDOCK:   -4.82 KCAL/MOL
REMARK 923 INTER-LIGAND FREE ENERGY PREDICTED BY IDOCK:   -4.35 KCAL/MOL
REMARK 924 INTRA-LIGAND FREE ENERGY PREDICTED BY IDOCK:   -0.47 KCAL/MOL
REMARK 927      BINDING AFFINITY PREDICTED BY RF-SCORE:    0.00 PKD
ROOT
HETATM    1  C   UNL     1      -7.817  12.292  68.764  1.00  0.00     0.006 C  
HETATM    2  C   UNL     1      -6.732  12.418  67.683  1.00  0.00    -0.132 C  
HETATM    3  N   UNL     1      -6.851  13.696  66.950  1.00  0.00    -0.227 NA 
HETATM    4  C   UNL     1      -5.340  12.217  68.298  1.00  0.00    -0.053 C  
HETATM    5  C   UNL     1      -6.960  11.308  66.636  1.00  0.00    -0.129 C  
HETATM    6  H   UNL     1      -7.041  13.728  65.949  1.00  0.00     0.000 HD 
ENDROOT
BRANCH   3   7
HETATM    7  C   UNL     1      -6.679  14.922  67.752  1.00  0.00    -0.172 C  
BRANCH   7   8
HETATM    8  C   UNL     1      -7.740  16.037  67.496  1.00  0.00    -0.153 C  
HETATM    9  H   UNL     1      -8.462  17.501  68.538  1.00  0.00     0.000 HD 
HETATM   10  O   UNL     1      -7.817  16.822  68.695  1.00  0.00    -0.217 OA 
BRANCH   8  11
HETATM   11  C   UNL     1      -9.124  15.549  67.075  1.00  0.00    -0.250 A  
HETATM   12  C   UNL     1      -9.941  14.872  67.998  1.00  0.00    -0.220 A  
HETATM   13  C   UNL     1     -11.239  14.434  67.674  1.00  0.00    -0.328 A  
HETATM   14  C   UNL     1     -11.665  14.579  66.350  1.00  0.00    -0.363 A  
HETATM   15  H   UNL     1     -13.169  14.217  65.024  1.00  0.00     0.000 HD 
HETATM   16  C   UNL     1     -10.864  15.205  65.406  1.00  0.00    -0.393 A  
HETATM   17  O   UNL     1     -12.879  14.118  65.923  1.00  0.00    -0.471 OA 
HETATM   18  C   UNL     1      -9.614  15.714  65.770  1.00  0.00    -0.361 A  
BRANCH  13  19
HETATM   19  C   UNL     1     -12.075  13.789  68.746  1.00  0.00    -0.309 C  
HETATM   20  O   UNL     1     -12.694  14.779  69.565  1.00  0.00    -0.576 OA 
HETATM   21  H   UNL     1     -13.222  14.372  70.242  1.00  0.00     0.000 HD 
ENDBRANCH  13  19
ENDBRANCH   8  11
ENDBRANCH   7   8
ENDBRANCH   3   7
TORSDOF 4
ENDMDL
MODEL      191
REMARK 921   NORMALIZED FREE ENERGY PREDICTED BY IDOCK:   -3.33 KCAL/MOL
REMARK 922        TOTAL FREE ENERGY PREDICTED BY IDOCK:   -4.82 KCAL/MOL
REMARK 923 INTER-LIGAND FREE ENERGY PREDICTED BY IDOCK:   -4.53 KCAL/MOL
REMARK 924 INTRA-LIGAND FREE ENERGY PREDICTED BY IDOCK:   -0.29 KCAL/MOL
REMARK 927      BINDING AFFINITY PREDICTED BY RF-SCORE:    0.00 PKD
ROOT
HETATM    1  C   UNL     1      -5.747  18.319  65.483  1.00  0.00    -0.237 C  
HETATM    2  C   UNL     1      -6.763  18.922  66.468  1.00  0.00    -0.195 C  
HETATM    3  N   UNL     1      -7.753  17.914  66.900  1.00  0.00    -0.210 NA 
HETATM    4  C   UNL     1      -6.034  19.580  67.649  1.00  0.00    -0.208 C  
HETATM    5  C   UNL     1      -7.564  20.013  65.730  1.00  0.00    -0.284 C  
HETATM    6  H   UNL     1      -8.749  18.018  66.705  1.00  0.00     0.000 HD 
ENDROOT
BRANCH   3   7
HETATM    7  C   UNL     1      -7.218  16.750  67.630  1.00  0.00    -0.143 C  
BRANCH   7   8
HETATM    8  C   UNL     1      -8.125  16.215  68.782  1.00  0.00    -0.218 C  
HETATM    9  H   UNL     1      -7.803  15.338  70.479  1.00  0.00     0.000 HD 
HETATM   10  O   UNL     1      -7.251  15.663  69.778  1.00  0.00    -0.180 OA 
BRANCH   8  11
HETATM   11  C   UNL     1      -9.188  15.201  68.370  1.00  0.00    -0.189 A  
HETATM   12  C   UNL     1     -10.236  14.882  69.252  1.00  0.00    -0.219 A  
HETATM   13  C   UNL     1     -11.262  13.982  68.908  1.00  0.00    -0.303 A  
HETATM   14  C   UNL     1     -11.154  13.303  67.690  1.00  0.00    -0.269 A  
HETATM   15  H   UNL     1     -11.988  11.897  66.475  1.00  0.00     0.000 HD 
HETATM   16  C   UNL     1     -10.109  13.565  66.816  1.00  0.00    -0.268 A  
HETATM   17  O   UNL     1     -12.061  12.358  67.302  1.00  0.00    -0.516 OA 
HETATM   18  C   UNL     1      -9.148  14.529  67.138  1.00  0.00    -0.237 A  
BRANCH  13  19
HETATM   19  C   UNL     1     -12.387  13.759  69.882  1.00  0.00    -0.275 C  
HETATM   20  O   UNL     1     -13.169  14.943  70.028  1.00  0.00    -0.577 OA 
HETATM   21  H   UNL     1     -13.879  14.803  70.643  1.00  0.00     0.000 HD 
ENDBRANCH  13  19
ENDBRANCH   8  11
ENDBRANCH   7   8
ENDBRANCH   3   7
TORSDOF 4
ENDMDL
MODEL      192
REMARK 921   NORMALIZED FREE ENERGY PREDICTED BY IDOCK:   -3.33 KCAL/MOL
REMARK 922        TOTAL FREE ENERGY PREDICTED BY IDOCK:   -4.81 KCAL/MOL
REMARK 923 INTER-LIGAND FREE ENERGY PREDICTED BY IDOCK:   -4.13 KCAL/MOL
REMARK 924 INTRA-LIGAND FREE ENERGY PREDICTED BY IDOCK:   -0.68 KCAL/MOL
REMARK 927      BINDING AFFINITY PREDICTED BY RF-SCORE:    0.00 PKD
ROOT
HETATM    1  C   UNL     1     -11.552   6.813  71.151  1.00  0.00    -0.377 C  
HETATM    2  C   UNL     1     -10.368   7.787  71.045  1.00  0.00    -0.202 C  
HETATM    3  N   UNL     1      -9.444   7.394  69.961  1.00  0.00    -0.161 NA 
HETATM    4  C   UNL     1     -10.875   9.229  70.895  1.00  0.00    -0.365 C  
HETATM    5  C   UNL     1      -9.550   7.699  72.351  1.00  0.00    -0.220 C  
HETATM    6  H   UNL     1      -8.474   7.140  70.145  1.00  0.00     0.000 HD 
ENDROOT
BRANCH   3   7
HETATM    7  C   UNL     1     -10.007   7.391  68.598  1.00  0.00    -0.169 C  
BRANCH   7   8
HETATM    8  C   UNL     1      -9.079   7.989  67.495  1.00  0.00    -0.137 C  
HETATM    9  H   UNL     1      -7.166   8.022  67.189  1.00  0.00     0.000 HD 
HETATM   10  O   UNL     1      -7.731   7.657  67.861  1.00  0.00    -0.110 OA 
BRANCH   8  11
HETATM   11  C   UNL     1      -9.223   9.489  67.252  1.00  0.00    -0.154 A  
HETATM   12  C   UNL     1     -10.065   9.957  66.227  1.00  0.00    -0.311 A  
HETATM   13  C   UNL     1     -10.263  11.329  65.983  1.00  0.00    -0.295 A  
HETATM   14  C   UNL     1      -9.496  12.239  66.717  1.00  0.00    -0.222 A  
HETATM   15  H   UNL     1      -9.044  14.206  67.000  1.00  0.00     0.000 HD 
HETATM   16  C   UNL     1      -8.626  11.806  67.707  1.00  0.00    -0.151 A  
HETATM   17  O   UNL     1      -9.565  13.587  66.502  1.00  0.00    -0.269 OA 
HETATM   18  C   UNL     1      -8.510  10.442  67.994  1.00  0.00    -0.119 A  
BRANCH  13  19
HETATM   19  C   UNL     1     -11.242  11.742  64.918  1.00  0.00    -0.266 C  
HETATM   20  O   UNL     1     -12.325  12.476  65.488  1.00  0.00    -0.600 OA 
HETATM   21  H   UNL     1     -12.943  12.737  64.816  1.00  0.00     0.000 HD 
ENDBRANCH  13  19
ENDBRANCH   8  11
ENDBRANCH   7   8
ENDBRANCH   3   7
TORSDOF 4
ENDMDL
MODEL      193
REMARK 921   NORMALIZED FREE ENERGY PREDICTED BY IDOCK:   -3.31 KCAL/MOL
REMARK 922        TOTAL FREE ENERGY PREDICTED BY IDOCK:   -4.80 KCAL/MOL
REMARK 923 INTER-LIGAND FREE ENERGY PREDICTED BY IDOCK:   -4.51 KCAL/MOL
REMARK 924 INTRA-LIGAND FREE ENERGY PREDICTED BY IDOCK:   -0.28 KCAL/MOL
REMARK 927      BINDING AFFINITY PREDICTED BY RF-SCORE:    0.00 PKD
ROOT
HETATM    1  C   UNL     1      -8.467  18.754  68.362  1.00  0.00    -0.374 C  
HETATM    2  C   UNL     1      -9.238  18.704  67.033  1.00  0.00    -0.291 C  
HETATM    3  N   UNL     1      -9.031  17.414  66.341  1.00  0.00    -0.348 NA 
HETATM    4  C   UNL     1     -10.723  19.018  67.266  1.00  0.00    -0.556 C  
HETATM    5  C   UNL     1      -8.659  19.784  66.096  1.00  0.00    -0.367 C  
HETATM    6  H   UNL     1      -8.589  17.359  65.424  1.00  0.00     0.000 HD 
ENDROOT
BRANCH   3   7
HETATM    7  C   UNL     1      -9.501  16.212  67.055  1.00  0.00    -0.222 C  
BRANCH   7   8
HETATM    8  C   UNL     1      -8.374  15.280  67.598  1.00  0.00    -0.164 C  
HETATM    9  H   UNL     1      -6.593  14.801  67.005  1.00  0.00     0.000 HD 
HETATM   10  O   UNL     1      -7.279  15.369  66.674  1.00  0.00    -0.050 OA 
BRANCH   8  11
HETATM   11  C   UNL     1      -8.774  13.825  67.830  1.00  0.00    -0.183 A  
HETATM   12  C   UNL     1     -10.002  13.523  68.444  1.00  0.00    -0.232 A  
HETATM   13  C   UNL     1     -10.436  12.200  68.649  1.00  0.00    -0.237 A  
HETATM   14  C   UNL     1      -9.549  11.166  68.333  1.00  0.00    -0.192 A  
HETATM   15  H   UNL     1      -9.249   9.151  68.348  1.00  0.00     0.000 HD 
HETATM   16  C   UNL     1      -8.312  11.434  67.764  1.00  0.00    -0.127 A  
HETATM   17  O   UNL     1      -9.851   9.853  68.563  1.00  0.00    -0.150 OA 
HETATM   18  C   UNL     1      -7.937  12.753  67.486  1.00  0.00    -0.177 A  
BRANCH  13  19
HETATM   19  C   UNL     1     -11.799  11.967  69.242  1.00  0.00    -0.318 C  
HETATM   20  O   UNL     1     -11.906  12.594  70.519  1.00  0.00    -0.525 OA 
HETATM   21  H   UNL     1     -12.767  12.448  70.893  1.00  0.00     0.000 HD 
ENDBRANCH  13  19
ENDBRANCH   8  11
ENDBRANCH   7   8
ENDBRANCH   3   7
TORSDOF 4
ENDMDL
MODEL      194
REMARK 921   NORMALIZED FREE ENERGY PREDICTED BY IDOCK:   -3.29 KCAL/MOL
REMARK 922        TOTAL FREE ENERGY PREDICTED BY IDOCK:   -4.77 KCAL/MOL
REMARK 923 INTER-LIGAND FREE ENERGY PREDICTED BY IDOCK:   -4.41 KCAL/MOL
REMARK 924 INTRA-LIGAND FREE ENERGY PREDICTED BY IDOCK:   -0.36 KCAL/MOL
REMARK 927      BINDING AFFINITY PREDICTED BY RF-SCORE:    0.00 PKD
ROOT
HETATM    1  C   UNL     1     -13.601   8.498  71.565  1.00  0.00    -0.340 C  
HETATM    2  C   UNL     1     -12.141   8.088  71.312  1.00  0.00    -0.291 C  
HETATM    3  N   UNL     1     -11.516   8.939  70.279  1.00  0.00    -0.438 NA 
HETATM    4  C   UNL     1     -11.352   8.081  72.629  1.00  0.00    -0.469 C  
HETATM    5  C   UNL     1     -12.134   6.655  70.741  1.00  0.00    -0.364 C  
HETATM    6  H   UNL     1     -11.173   8.555  69.398  1.00  0.00     0.000 HD 
ENDROOT
BRANCH   3   7
HETATM    7  C   UNL     1     -11.417  10.376  70.595  1.00  0.00    -0.349 C  
BRANCH   7   8
HETATM    8  C   UNL     1     -11.325  11.323  69.358  1.00  0.00    -0.292 C  
HETATM    9  H   UNL     1     -12.479  11.721  67.853  1.00  0.00     0.000 HD 
HETATM   10  O   UNL     1     -12.535  11.145  68.606  1.00  0.00    -0.463 OA 
BRANCH   8  11
HETATM   11  C   UNL     1     -10.099  11.133  68.469  1.00  0.00    -0.208 A  
HETATM   12  C   UNL     1      -8.816  11.421  68.969  1.00  0.00     0.080 A  
HETATM   13  C   UNL     1      -7.650  11.228  68.205  1.00  0.00    -0.114 A  
HETATM   14  C   UNL     1      -7.801  10.851  66.867  1.00  0.00    -0.135 A  
HETATM   15  H   UNL     1      -6.835  10.454  65.118  1.00  0.00     0.000 HD 
HETATM   16  C   UNL     1      -9.056  10.600  66.332  1.00  0.00    -0.183 A  
HETATM   17  O   UNL     1      -6.733  10.711  66.027  1.00  0.00    -0.122 OA 
HETATM   18  C   UNL     1     -10.197  10.710  67.134  1.00  0.00    -0.261 A  
BRANCH  13  19
HETATM   19  C   UNL     1      -6.313  11.487  68.845  1.00  0.00    -0.059 C  
HETATM   20  O   UNL     1      -6.449  11.612  70.260  1.00  0.00    -0.404 OA 
HETATM   21  H   UNL     1      -5.605  11.775  70.665  1.00  0.00     0.000 HD 
ENDBRANCH  13  19
ENDBRANCH   8  11
ENDBRANCH   7   8
ENDBRANCH   3   7
TORSDOF 4
ENDMDL
MODEL      195
REMARK 921   NORMALIZED FREE ENERGY PREDICTED BY IDOCK:   -3.29 KCAL/MOL
REMARK 922        TOTAL FREE ENERGY PREDICTED BY IDOCK:   -4.76 KCAL/MOL
REMARK 923 INTER-LIGAND FREE ENERGY PREDICTED BY IDOCK:   -4.28 KCAL/MOL
REMARK 924 INTRA-LIGAND FREE ENERGY PREDICTED BY IDOCK:   -0.49 KCAL/MOL
REMARK 927      BINDING AFFINITY PREDICTED BY RF-SCORE:    0.00 PKD
ROOT
HETATM    1  C   UNL     1     -10.119   8.620  72.054  1.00  0.00    -0.401 C  
HETATM    2  C   UNL     1     -11.406   7.821  71.793  1.00  0.00    -0.261 C  
HETATM    3  N   UNL     1     -11.593   7.562  70.350  1.00  0.00    -0.453 NA 
HETATM    4  C   UNL     1     -11.414   6.534  72.630  1.00  0.00    -0.224 C  
HETATM    5  C   UNL     1     -12.608   8.684  72.228  1.00  0.00    -0.457 C  
HETATM    6  H   UNL     1     -12.397   7.922  69.838  1.00  0.00     0.000 HD 
ENDROOT
BRANCH   3   7
HETATM    7  C   UNL     1     -10.549   6.752  69.696  1.00  0.00    -0.233 C  
BRANCH   7   8
HETATM    8  C   UNL     1     -10.796   6.446  68.185  1.00  0.00    -0.308 C  
HETATM    9  H   UNL     1     -10.414   4.951  67.014  1.00  0.00     0.000 HD 
HETATM   10  O   UNL     1     -10.264   5.137  67.933  1.00  0.00    -0.165 OA 
BRANCH   8  11
HETATM   11  C   UNL     1     -10.226   7.464  67.203  1.00  0.00    -0.347 A  
HETATM   12  C   UNL     1      -9.180   7.098  66.337  1.00  0.00    -0.196 A  
HETATM   13  C   UNL     1      -8.642   7.986  65.388  1.00  0.00    -0.138 A  
HETATM   14  C   UNL     1      -9.095   9.309  65.401  1.00  0.00    -0.222 A  
HETATM   15  H   UNL     1      -8.890  11.160  64.576  1.00  0.00     0.000 HD 
HETATM   16  C   UNL     1     -10.098   9.712  66.271  1.00  0.00    -0.322 A  
HETATM   17  O   UNL     1      -8.582  10.262  64.567  1.00  0.00    -0.171 OA 
HETATM   18  C   UNL     1     -10.681   8.791  67.147  1.00  0.00    -0.204 A  
BRANCH  13  19
HETATM   19  C   UNL     1      -7.578   7.486  64.448  1.00  0.00    -0.111 C  
HETATM   20  O   UNL     1      -6.429   8.330  64.495  1.00  0.00    -0.064 OA 
HETATM   21  H   UNL     1      -5.757   8.015  63.901  1.00  0.00     0.000 HD 
ENDBRANCH  13  19
ENDBRANCH   8  11
ENDBRANCH   7   8
ENDBRANCH   3   7
TORSDOF 4
ENDMDL
MODEL      196
REMARK 921   NORMALIZED FREE ENERGY PREDICTED BY IDOCK:   -3.28 KCAL/MOL
REMARK 922        TOTAL FREE ENERGY PREDICTED BY IDOCK:   -4.76 KCAL/MOL
REMARK 923 INTER-LIGAND FREE ENERGY PREDICTED BY IDOCK:   -4.42 KCAL/MOL
REMARK 924 INTRA-LIGAND FREE ENERGY PREDICTED BY IDOCK:   -0.34 KCAL/MOL
REMARK 927      BINDING AFFINITY PREDICTED BY RF-SCORE:    0.00 PKD
ROOT
HETATM    1  C   UNL     1     -10.186  10.357  69.569  1.00  0.00    -0.258 C  
HETATM    2  C   UNL     1     -10.948   9.487  70.583  1.00  0.00    -0.306 C  
HETATM    3  N   UNL     1     -11.497   8.274  69.943  1.00  0.00    -0.444 NA 
HETATM    4  C   UNL     1     -10.053   9.167  71.789  1.00  0.00    -0.279 C  
HETATM    5  C   UNL     1     -12.166  10.287  71.088  1.00  0.00    -0.500 C  
HETATM    6  H   UNL     1     -12.499   8.091  69.902  1.00  0.00     0.000 HD 
ENDROOT
BRANCH   3   7
HETATM    7  C   UNL     1     -10.510   7.342  69.366  1.00  0.00    -0.217 C  
BRANCH   7   8
HETATM    8  C   UNL     1     -10.609   5.870  69.876  1.00  0.00    -0.299 C  
HETATM    9  H   UNL     1      -9.913   4.904  71.403  1.00  0.00     0.000 HD 
HETATM   10  O   UNL     1      -9.852   5.800  71.093  1.00  0.00    -0.172 OA 
BRANCH   8  11
HETATM   11  C   UNL     1     -10.157   4.797  68.890  1.00  0.00    -0.149 A  
HETATM   12  C   UNL     1     -10.306   5.005  67.507  1.00  0.00    -0.151 A  
HETATM   13  C   UNL     1      -9.873   4.064  66.554  1.00  0.00    -0.175 A  
HETATM   14  C   UNL     1      -9.390   2.838  67.020  1.00  0.00    -0.074 A  
HETATM   15  H   UNL     1      -8.685   1.001  66.488  1.00  0.00     0.000 HD 
HETATM   16  C   UNL     1      -9.270   2.586  68.379  1.00  0.00    -0.253 A  
HETATM   17  O   UNL     1      -9.014   1.834  66.171  1.00  0.00    -0.123 OA 
HETATM   18  C   UNL     1      -9.623   3.569  69.309  1.00  0.00    -0.161 A  
BRANCH  13  19
HETATM   19  C   UNL     1      -9.999   4.402  65.093  1.00  0.00    -0.177 C  
HETATM   20  O   UNL     1     -11.240   3.928  64.572  1.00  0.00    -0.685 OA 
HETATM   21  H   UNL     1     -11.320   4.141  63.650  1.00  0.00     0.000 HD 
ENDBRANCH  13  19
ENDBRANCH   8  11
ENDBRANCH   7   8
ENDBRANCH   3   7
TORSDOF 4
ENDMDL
MODEL      197
REMARK 921   NORMALIZED FREE ENERGY PREDICTED BY IDOCK:   -3.28 KCAL/MOL
REMARK 922        TOTAL FREE ENERGY PREDICTED BY IDOCK:   -4.76 KCAL/MOL
REMARK 923 INTER-LIGAND FREE ENERGY PREDICTED BY IDOCK:   -3.92 KCAL/MOL
REMARK 924 INTRA-LIGAND FREE ENERGY PREDICTED BY IDOCK:   -0.84 KCAL/MOL
REMARK 927      BINDING AFFINITY PREDICTED BY RF-SCORE:    0.00 PKD
ROOT
HETATM    1  C   UNL     1     -12.977   9.937  71.737  1.00  0.00    -0.549 C  
HETATM    2  C   UNL     1     -12.575   8.466  71.548  1.00  0.00    -0.308 C  
HETATM    3  N   UNL     1     -11.972   8.241  70.218  1.00  0.00    -0.405 NA 
HETATM    4  C   UNL     1     -11.661   8.011  72.695  1.00  0.00    -0.448 C  
HETATM    5  C   UNL     1     -13.855   7.606  71.583  1.00  0.00    -0.480 C  
HETATM    6  H   UNL     1     -12.394   7.614  69.533  1.00  0.00     0.000 HD 
ENDROOT
BRANCH   3   7
HETATM    7  C   UNL     1     -10.724   8.975  69.938  1.00  0.00    -0.229 C  
BRANCH   7   8
HETATM    8  C   UNL     1      -9.532   8.095  69.447  1.00  0.00    -0.162 C  
HETATM    9  H   UNL     1      -9.195   7.002  67.883  1.00  0.00     0.000 HD 
HETATM   10  O   UNL     1      -9.921   7.537  68.182  1.00  0.00    -0.161 OA 
BRANCH   8  11
HETATM   11  C   UNL     1      -9.078   7.001  70.408  1.00  0.00    -0.156 A  
HETATM   12  C   UNL     1      -9.554   5.686  70.254  1.00  0.00    -0.216 A  
HETATM   13  C   UNL     1      -9.139   4.633  71.089  1.00  0.00    -0.180 A  
HETATM   14  C   UNL     1      -8.318   4.947  72.176  1.00  0.00    -0.123 A  
HETATM   15  H   UNL     1      -7.364   4.217  73.823  1.00  0.00     0.000 HD 
HETATM   16  C   UNL     1      -7.865   6.242  72.380  1.00  0.00    -0.103 A  
HETATM   17  O   UNL     1      -7.922   4.004  73.084  1.00  0.00    -0.085 OA 
HETATM   18  C   UNL     1      -8.217   7.258  71.486  1.00  0.00    -0.105 A  
BRANCH  13  19
HETATM   19  C   UNL     1      -9.637   3.242  70.804  1.00  0.00    -0.158 C  
HETATM   20  O   UNL     1      -8.553   2.315  70.775  1.00  0.00    -0.049 OA 
HETATM   21  H   UNL     1      -8.867   1.437  70.595  1.00  0.00     0.000 HD 
ENDBRANCH  13  19
ENDBRANCH   8  11
ENDBRANCH   7   8
ENDBRANCH   3   7
TORSDOF 4
ENDMDL
MODEL      198
REMARK 921   NORMALIZED FREE ENERGY PREDICTED BY IDOCK:   -3.28 KCAL/MOL
REMARK 922        TOTAL FREE ENERGY PREDICTED BY IDOCK:   -4.75 KCAL/MOL
REMARK 923 INTER-LIGAND FREE ENERGY PREDICTED BY IDOCK:   -4.31 KCAL/MOL
REMARK 924 INTRA-LIGAND FREE ENERGY PREDICTED BY IDOCK:   -0.45 KCAL/MOL
REMARK 927      BINDING AFFINITY PREDICTED BY RF-SCORE:    0.00 PKD
ROOT
HETATM    1  C   UNL     1     -11.588  13.085  66.924  1.00  0.00    -0.419 C  
HETATM    2  C   UNL     1     -10.947  13.600  68.223  1.00  0.00    -0.254 C  
HETATM    3  N   UNL     1     -11.216  12.687  69.353  1.00  0.00    -0.433 NA 
HETATM    4  C   UNL     1      -9.447  13.855  68.013  1.00  0.00    -0.208 C  
HETATM    5  C   UNL     1     -11.614  14.941  68.594  1.00  0.00    -0.342 C  
HETATM    6  H   UNL     1     -11.743  12.985  70.174  1.00  0.00     0.000 HD 
ENDROOT
BRANCH   3   7
HETATM    7  C   UNL     1     -10.678  11.320  69.225  1.00  0.00    -0.179 C  
BRANCH   7   8
HETATM    8  C   UNL     1     -11.538  10.203  69.895  1.00  0.00    -0.223 C  
HETATM    9  H   UNL     1     -12.782  10.142  71.378  1.00  0.00     0.000 HD 
HETATM   10  O   UNL     1     -12.259  10.822  70.971  1.00  0.00    -0.342 OA 
BRANCH   8  11
HETATM   11  C   UNL     1     -10.768   8.981  70.386  1.00  0.00    -0.267 A  
HETATM   12  C   UNL     1     -11.034   7.714  69.836  1.00  0.00    -0.208 A  
HETATM   13  C   UNL     1     -10.328   6.561  70.226  1.00  0.00    -0.241 A  
HETATM   14  C   UNL     1      -9.419   6.679  71.282  1.00  0.00    -0.162 A  
HETATM   15  H   UNL     1      -8.122   5.681  72.498  1.00  0.00     0.000 HD 
HETATM   16  C   UNL     1      -9.165   7.908  71.874  1.00  0.00    -0.202 A  
HETATM   17  O   UNL     1      -8.740   5.602  71.780  1.00  0.00    -0.134 OA 
HETATM   18  C   UNL     1      -9.812   9.058  71.411  1.00  0.00    -0.381 A  
BRANCH  13  19
HETATM   19  C   UNL     1     -10.622   5.260  69.530  1.00  0.00    -0.173 C  
HETATM   20  O   UNL     1      -9.416   4.539  69.281  1.00  0.00    -0.141 OA 
HETATM   21  H   UNL     1      -9.601   3.718  68.841  1.00  0.00     0.000 HD 
ENDBRANCH  13  19
ENDBRANCH   8  11
ENDBRANCH   7   8
ENDBRANCH   3   7
TORSDOF 4
ENDMDL
MODEL      199
REMARK 921   NORMALIZED FREE ENERGY PREDICTED BY IDOCK:   -3.27 KCAL/MOL
REMARK 922        TOTAL FREE ENERGY PREDICTED BY IDOCK:   -4.74 KCAL/MOL
REMARK 923 INTER-LIGAND FREE ENERGY PREDICTED BY IDOCK:   -4.22 KCAL/MOL
REMARK 924 INTRA-LIGAND FREE ENERGY PREDICTED BY IDOCK:   -0.52 KCAL/MOL
REMARK 927      BINDING AFFINITY PREDICTED BY RF-SCORE:    0.00 PKD
ROOT
HETATM    1  C   UNL     1      -9.073   3.489  70.307  1.00  0.00    -0.202 C  
HETATM    2  C   UNL     1      -7.926   4.502  70.156  1.00  0.00    -0.063 C  
HETATM    3  N   UNL     1      -8.328   5.646  69.312  1.00  0.00    -0.106 NA 
HETATM    4  C   UNL     1      -7.414   4.937  71.537  1.00  0.00    -0.082 C  
HETATM    5  C   UNL     1      -6.766   3.811  69.410  1.00  0.00    -0.037 C  
HETATM    6  H   UNL     1      -7.860   5.856  68.431  1.00  0.00     0.000 HD 
ENDROOT
BRANCH   3   7
HETATM    7  C   UNL     1      -9.443   6.466  69.819  1.00  0.00    -0.152 C  
BRANCH   7   8
HETATM    8  C   UNL     1      -9.169   8.002  69.868  1.00  0.00    -0.152 C  
HETATM    9  H   UNL     1      -7.879   9.131  70.769  1.00  0.00     0.000 HD 
HETATM   10  O   UNL     1      -8.046   8.197  70.740  1.00  0.00    -0.095 OA 
BRANCH   8  11
HETATM   11  C   UNL     1     -10.348   8.870  70.297  1.00  0.00    -0.235 A  
HETATM   12  C   UNL     1     -11.435   8.294  70.978  1.00  0.00    -0.303 A  
HETATM   13  C   UNL     1     -12.530   9.055  71.428  1.00  0.00    -0.378 A  
HETATM   14  C   UNL     1     -12.577  10.406  71.072  1.00  0.00    -0.393 A  
HETATM   15  H   UNL     1     -13.665  12.127  71.157  1.00  0.00     0.000 HD 
HETATM   16  C   UNL     1     -11.539  10.995  70.363  1.00  0.00    -0.389 A  
HETATM   17  O   UNL     1     -13.633  11.209  71.399  1.00  0.00     0.022 OA 
HETATM   18  C   UNL     1     -10.418  10.241  70.003  1.00  0.00    -0.293 A  
BRANCH  13  19
HETATM   19  C   UNL     1     -13.613   8.371  72.219  1.00  0.00    -0.270 C  
HETATM   20  O   UNL     1     -13.969   9.148  73.360  1.00  0.00    -1.094 OA 
HETATM   21  H   UNL     1     -14.653   8.717  73.860  1.00  0.00     0.000 HD 
ENDBRANCH  13  19
ENDBRANCH   8  11
ENDBRANCH   7   8
ENDBRANCH   3   7
TORSDOF 4
ENDMDL
MODEL      200
REMARK 921   NORMALIZED FREE ENERGY PREDICTED BY IDOCK:   -3.27 KCAL/MOL
REMARK 922        TOTAL FREE ENERGY PREDICTED BY IDOCK:   -4.74 KCAL/MOL
REMARK 923 INTER-LIGAND FREE ENERGY PREDICTED BY IDOCK:   -4.31 KCAL/MOL
REMARK 924 INTRA-LIGAND FREE ENERGY PREDICTED BY IDOCK:   -0.43 KCAL/MOL
REMARK 927      BINDING AFFINITY PREDICTED BY RF-SCORE:    0.00 PKD
ROOT
HETATM    1  C   UNL     1     -12.352  14.086  66.088  1.00  0.00    -0.491 C  
HETATM    2  C   UNL     1     -11.270  14.091  67.180  1.00  0.00    -0.313 C  
HETATM    3  N   UNL     1     -11.225  12.799  67.897  1.00  0.00    -0.257 NA 
HETATM    4  C   UNL     1      -9.911  14.482  66.582  1.00  0.00    -0.282 C  
HETATM    5  C   UNL     1     -11.652  15.148  68.236  1.00  0.00    -0.357 C  
HETATM    6  H   UNL     1     -11.418  12.730  68.896  1.00  0.00     0.000 HD 
ENDROOT
BRANCH   3   7
HETATM    7  C   UNL     1     -10.885  11.617  67.084  1.00  0.00    -0.261 C  
BRANCH   7   8
HETATM    8  C   UNL     1     -11.099  10.242  67.790  1.00  0.00    -0.269 C  
HETATM    9  H   UNL     1     -10.917   9.597  69.607  1.00  0.00     0.000 HD 
HETATM   10  O   UNL     1     -10.787  10.434  69.178  1.00  0.00    -0.207 OA 
BRANCH   8  11
HETATM   11  C   UNL     1     -10.309   9.072  67.211  1.00  0.00    -0.342 A  
HETATM   12  C   UNL     1     -10.333   7.820  67.853  1.00  0.00    -0.276 A  
HETATM   13  C   UNL     1      -9.653   6.699  67.342  1.00  0.00    -0.147 A  
HETATM   14  C   UNL     1      -8.835   6.886  66.223  1.00  0.00    -0.148 A  
HETATM   15  H   UNL     1      -7.524   6.001  64.938  1.00  0.00     0.000 HD 
HETATM   16  C   UNL     1      -8.758   8.119  65.591  1.00  0.00    -0.176 A  
HETATM   17  O   UNL     1      -8.080   5.875  65.698  1.00  0.00    -0.111 OA 
HETATM   18  C   UNL     1      -9.512   9.198  66.063  1.00  0.00    -0.321 A  
BRANCH  13  19
HETATM   19  C   UNL     1      -9.797   5.379  68.050  1.00  0.00    -0.144 C  
HETATM   20  O   UNL     1      -9.904   4.313  67.108  1.00  0.00    -0.204 OA 
HETATM   21  H   UNL     1      -9.995   3.479  67.555  1.00  0.00     0.000 HD 
ENDBRANCH  13  19
ENDBRANCH   8  11
ENDBRANCH   7   8
ENDBRANCH   3   7
TORSDOF 4
ENDMDL
MODEL      201
REMARK 921   NORMALIZED FREE ENERGY PREDICTED BY IDOCK:   -3.26 KCAL/MOL
REMARK 922        TOTAL FREE ENERGY PREDICTED BY IDOCK:   -4.74 KCAL/MOL
REMARK 923 INTER-LIGAND FREE ENERGY PREDICTED BY IDOCK:   -4.17 KCAL/MOL
REMARK 924 INTRA-LIGAND FREE ENERGY PREDICTED BY IDOCK:   -0.56 KCAL/MOL
REMARK 927      BINDING AFFINITY PREDICTED BY RF-SCORE:    0.00 PKD
ROOT
HETATM    1  C   UNL     1      -6.120   9.555  67.869  1.00  0.00    -0.052 C  
HETATM    2  C   UNL     1      -7.169   9.293  66.775  1.00  0.00    -0.083 C  
HETATM    3  N   UNL     1      -8.508   9.070  67.358  1.00  0.00    -0.115 NA 
HETATM    4  C   UNL     1      -7.156  10.427  65.740  1.00  0.00    -0.139 C  
HETATM    5  C   UNL     1      -6.798   7.980  66.054  1.00  0.00    -0.057 C  
HETATM    6  H   UNL     1      -9.008   8.189  67.243  1.00  0.00     0.000 HD 
ENDROOT
BRANCH   3   7
HETATM    7  C   UNL     1      -9.081  10.198  68.117  1.00  0.00    -0.128 C  
BRANCH   7   8
HETATM    8  C   UNL     1     -10.472  10.697  67.617  1.00  0.00    -0.227 C  
HETATM    9  H   UNL     1     -11.377  10.727  65.904  1.00  0.00     0.000 HD 
HETATM   10  O   UNL     1     -10.530  10.424  66.209  1.00  0.00    -0.222 OA 
BRANCH   8  11
HETATM   11  C   UNL     1     -10.790  12.162  67.901  1.00  0.00    -0.254 A  
HETATM   12  C   UNL     1     -11.490  12.516  69.068  1.00  0.00    -0.355 A  
HETATM   13  C   UNL     1     -11.777  13.854  69.396  1.00  0.00    -0.367 A  
HETATM   14  C   UNL     1     -11.453  14.840  68.460  1.00  0.00    -0.308 A  
HETATM   15  H   UNL     1     -11.537  16.828  68.020  1.00  0.00     0.000 HD 
HETATM   16  C   UNL     1     -10.799  14.518  67.279  1.00  0.00    -0.297 A  
HETATM   17  O   UNL     1     -11.758  16.158  68.656  1.00  0.00    -0.362 OA 
HETATM   18  C   UNL     1     -10.443  13.192  67.013  1.00  0.00    -0.248 A  
BRANCH  13  19
HETATM   19  C   UNL     1     -12.461  14.149  70.704  1.00  0.00    -0.362 C  
HETATM   20  O   UNL     1     -13.679  14.859  70.486  1.00  0.00    -0.596 OA 
HETATM   21  H   UNL     1     -14.111  15.046  71.312  1.00  0.00     0.000 HD 
ENDBRANCH  13  19
ENDBRANCH   8  11
ENDBRANCH   7   8
ENDBRANCH   3   7
TORSDOF 4
ENDMDL
MODEL      202
REMARK 921   NORMALIZED FREE ENERGY PREDICTED BY IDOCK:   -3.25 KCAL/MOL
REMARK 922        TOTAL FREE ENERGY PREDICTED BY IDOCK:   -4.72 KCAL/MOL
REMARK 923 INTER-LIGAND FREE ENERGY PREDICTED BY IDOCK:   -4.53 KCAL/MOL
REMARK 924 INTRA-LIGAND FREE ENERGY PREDICTED BY IDOCK:   -0.20 KCAL/MOL
REMARK 927      BINDING AFFINITY PREDICTED BY RF-SCORE:    0.00 PKD
ROOT
HETATM    1  C   UNL     1     -13.010  11.289  71.877  1.00  0.00    -0.471 C  
HETATM    2  C   UNL     1     -12.833   9.995  71.066  1.00  0.00    -0.365 C  
HETATM    3  N   UNL     1     -12.591  10.286  69.638  1.00  0.00    -0.552 NA 
HETATM    4  C   UNL     1     -11.731   9.123  71.686  1.00  0.00    -0.448 C  
HETATM    5  C   UNL     1     -14.157   9.205  71.119  1.00  0.00    -0.028 C  
HETATM    6  H   UNL     1     -13.232   9.974  68.908  1.00  0.00     0.000 HD 
ENDROOT
BRANCH   3   7
HETATM    7  C   UNL     1     -11.370  11.053  69.329  1.00  0.00    -0.282 C  
BRANCH   7   8
HETATM    8  C   UNL     1     -11.028  11.172  67.811  1.00  0.00    -0.262 C  
HETATM    9  H   UNL     1     -12.046  11.543  66.206  1.00  0.00     0.000 HD 
HETATM   10  O   UNL     1     -12.255  11.470  67.129  1.00  0.00    -0.266 OA 
BRANCH   8  11
HETATM   11  C   UNL     1     -10.340   9.959  67.191  1.00  0.00    -0.304 A  
HETATM   12  C   UNL     1      -9.395  10.135  66.164  1.00  0.00    -0.217 A  
HETATM   13  C   UNL     1      -8.706   9.054  65.583  1.00  0.00    -0.205 A  
HETATM   14  C   UNL     1      -9.073   7.762  65.970  1.00  0.00    -0.121 A  
HETATM   15  H   UNL     1      -8.762   5.770  65.672  1.00  0.00     0.000 HD 
HETATM   16  C   UNL     1     -10.033   7.554  66.951  1.00  0.00    -0.318 A  
HETATM   17  O   UNL     1      -8.513   6.648  65.409  1.00  0.00    -0.150 OA 
HETATM   18  C   UNL     1     -10.642   8.645  67.579  1.00  0.00    -0.292 A  
BRANCH  13  19
HETATM   19  C   UNL     1      -7.654   9.339  64.545  1.00  0.00    -0.107 C  
HETATM   20  O   UNL     1      -8.235   9.952  63.395  1.00  0.00    -0.140 OA 
HETATM   21  H   UNL     1      -7.571  10.132  62.740  1.00  0.00     0.000 HD 
ENDBRANCH  13  19
ENDBRANCH   8  11
ENDBRANCH   7   8
ENDBRANCH   3   7
TORSDOF 4
ENDMDL
MODEL      203
REMARK 921   NORMALIZED FREE ENERGY PREDICTED BY IDOCK:   -3.25 KCAL/MOL
REMARK 922        TOTAL FREE ENERGY PREDICTED BY IDOCK:   -4.72 KCAL/MOL
REMARK 923 INTER-LIGAND FREE ENERGY PREDICTED BY IDOCK:   -4.29 KCAL/MOL
REMARK 924 INTRA-LIGAND FREE ENERGY PREDICTED BY IDOCK:   -0.44 KCAL/MOL
REMARK 927      BINDING AFFINITY PREDICTED BY RF-SCORE:    0.00 PKD
ROOT
HETATM    1  C   UNL     1      -9.853   3.932  64.554  1.00  0.00    -0.191 C  
HETATM    2  C   UNL     1      -8.950   5.000  65.193  1.00  0.00    -0.143 C  
HETATM    3  N   UNL     1      -9.739   5.971  65.978  1.00  0.00    -0.367 NA 
HETATM    4  C   UNL     1      -7.840   4.334  66.019  1.00  0.00    -0.094 C  
HETATM    5  C   UNL     1      -8.286   5.811  64.061  1.00  0.00    -0.084 C  
HETATM    6  H   UNL     1      -9.766   6.962  65.740  1.00  0.00     0.000 HD 
ENDROOT
BRANCH   3   7
HETATM    7  C   UNL     1     -10.484   5.423  67.127  1.00  0.00    -0.235 C  
BRANCH   7   8
HETATM    8  C   UNL     1      -9.836   5.681  68.523  1.00  0.00    -0.143 C  
HETATM    9  H   UNL     1      -9.633   4.645  70.147  1.00  0.00     0.000 HD 
HETATM   10  O   UNL     1     -10.028   4.488  69.297  1.00  0.00    -0.194 OA 
BRANCH   8  11
HETATM   11  C   UNL     1     -10.350   6.906  69.274  1.00  0.00    -0.212 A  
HETATM   12  C   UNL     1     -11.477   6.798  70.108  1.00  0.00    -0.404 A  
HETATM   13  C   UNL     1     -11.970   7.887  70.851  1.00  0.00    -0.211 A  
HETATM   14  C   UNL     1     -11.378   9.137  70.648  1.00  0.00    -0.273 A  
HETATM   15  H   UNL     1     -11.432  11.116  71.130  1.00  0.00     0.000 HD 
HETATM   16  C   UNL     1     -10.291   9.284  69.799  1.00  0.00    -0.232 A  
HETATM   17  O   UNL     1     -11.834  10.267  71.268  1.00  0.00    -0.364 OA 
HETATM   18  C   UNL     1      -9.760   8.172  69.138  1.00  0.00    -0.163 A  
BRANCH  13  19
HETATM   19  C   UNL     1     -13.132   7.663  71.780  1.00  0.00    -0.323 C  
HETATM   20  O   UNL     1     -12.907   8.309  73.032  1.00  0.00    -0.654 OA 
HETATM   21  H   UNL     1     -13.640   8.168  73.619  1.00  0.00     0.000 HD 
ENDBRANCH  13  19
ENDBRANCH   8  11
ENDBRANCH   7   8
ENDBRANCH   3   7
TORSDOF 4
ENDMDL
MODEL      204
REMARK 921   NORMALIZED FREE ENERGY PREDICTED BY IDOCK:   -3.25 KCAL/MOL
REMARK 922        TOTAL FREE ENERGY PREDICTED BY IDOCK:   -4.71 KCAL/MOL
REMARK 923 INTER-LIGAND FREE ENERGY PREDICTED BY IDOCK:   -4.26 KCAL/MOL
REMARK 924 INTRA-LIGAND FREE ENERGY PREDICTED BY IDOCK:   -0.45 KCAL/MOL
REMARK 927      BINDING AFFINITY PREDICTED BY RF-SCORE:    0.00 PKD
ROOT
HETATM    1  C   UNL     1     -11.124   8.182  72.472  1.00  0.00    -0.446 C  
HETATM    2  C   UNL     1     -12.186   8.368  71.375  1.00  0.00    -0.302 C  
HETATM    3  N   UNL     1     -11.560   8.606  70.058  1.00  0.00    -0.452 NA 
HETATM    4  C   UNL     1     -13.154   7.176  71.363  1.00  0.00    -0.408 C  
HETATM    5  C   UNL     1     -12.995   9.641  71.696  1.00  0.00    -0.501 C  
HETATM    6  H   UNL     1     -11.705   9.472  69.540  1.00  0.00     0.000 HD 
ENDROOT
BRANCH   3   7
HETATM    7  C   UNL     1     -10.715   7.516  69.534  1.00  0.00    -0.217 C  
BRANCH   7   8
HETATM    8  C   UNL     1      -9.896   7.868  68.254  1.00  0.00    -0.169 C  
HETATM    9  H   UNL     1     -10.054   9.198  66.854  1.00  0.00     0.000 HD 
HETATM   10  O   UNL     1     -10.553   8.984  67.633  1.00  0.00    -0.257 OA 
BRANCH   8  11
HETATM   11  C   UNL     1      -9.702   6.728  67.258  1.00  0.00    -0.175 A  
HETATM   12  C   UNL     1      -8.506   6.629  66.526  1.00  0.00    -0.121 A  
HETATM   13  C   UNL     1      -8.261   5.578  65.623  1.00  0.00    -0.127 A  
HETATM   14  C   UNL     1      -9.301   4.678  65.371  1.00  0.00    -0.158 A  
HETATM   15  H   UNL     1      -9.890   3.057  64.286  1.00  0.00     0.000 HD 
HETATM   16  C   UNL     1     -10.509   4.774  66.047  1.00  0.00    -0.332 A  
HETATM   17  O   UNL     1      -9.184   3.669  64.457  1.00  0.00    -0.127 OA 
HETATM   18  C   UNL     1     -10.700   5.774  67.006  1.00  0.00    -0.369 A  
BRANCH  13  19
HETATM   19  C   UNL     1      -6.922   5.506  64.940  1.00  0.00    -0.053 C  
HETATM   20  O   UNL     1      -7.077   5.552  63.523  1.00  0.00    -0.044 OA 
HETATM   21  H   UNL     1      -6.231   5.507  63.092  1.00  0.00     0.000 HD 
ENDBRANCH  13  19
ENDBRANCH   8  11
ENDBRANCH   7   8
ENDBRANCH   3   7
TORSDOF 4
ENDMDL
MODEL      205
REMARK 921   NORMALIZED FREE ENERGY PREDICTED BY IDOCK:   -3.22 KCAL/MOL
REMARK 922        TOTAL FREE ENERGY PREDICTED BY IDOCK:   -4.68 KCAL/MOL
REMARK 923 INTER-LIGAND FREE ENERGY PREDICTED BY IDOCK:   -4.16 KCAL/MOL
REMARK 924 INTRA-LIGAND FREE ENERGY PREDICTED BY IDOCK:   -0.52 KCAL/MOL
REMARK 927      BINDING AFFINITY PREDICTED BY RF-SCORE:    0.00 PKD
ROOT
HETATM    1  C   UNL     1     -11.510   9.627  70.755  1.00  0.00    -0.399 C  
HETATM    2  C   UNL     1     -12.772   9.862  71.602  1.00  0.00    -0.429 C  
HETATM    3  N   UNL     1     -12.878  11.274  72.027  1.00  0.00    -0.291 NA 
HETATM    4  C   UNL     1     -14.018   9.377  70.847  1.00  0.00     0.161 C  
HETATM    5  C   UNL     1     -12.645   9.038  72.899  1.00  0.00     0.190 C  
HETATM    6  H   UNL     1     -12.866  11.543  73.010  1.00  0.00     0.000 HD 
ENDROOT
BRANCH   3   7
HETATM    7  C   UNL     1     -13.001  12.269  70.946  1.00  0.00     0.023 C  
BRANCH   7   8
HETATM    8  C   UNL     1     -12.192  13.587  71.162  1.00  0.00    -0.194 C  
HETATM    9  H   UNL     1     -12.538  15.270  72.056  1.00  0.00     0.000 HD 
HETATM   10  O   UNL     1     -13.030  14.469  71.924  1.00  0.00    -0.312 OA 
BRANCH   8  11
HETATM   11  C   UNL     1     -11.693  14.272  69.892  1.00  0.00    -0.373 A  
HETATM   12  C   UNL     1     -11.203  15.588  69.950  1.00  0.00    -0.322 A  
HETATM   13  C   UNL     1     -10.697  16.253  68.818  1.00  0.00    -0.309 A  
HETATM   14  C   UNL     1     -10.805  15.610  67.581  1.00  0.00    -0.307 A  
HETATM   15  H   UNL     1     -10.481  15.768  65.575  1.00  0.00     0.000 HD 
HETATM   16  C   UNL     1     -11.323  14.326  67.485  1.00  0.00    -0.346 A  
HETATM   17  O   UNL     1     -10.409  16.205  66.416  1.00  0.00    -0.296 OA 
HETATM   18  C   UNL     1     -11.738  13.648  68.636  1.00  0.00    -0.389 A  
BRANCH  13  19
HETATM   19  C   UNL     1     -10.119  17.633  68.985  1.00  0.00    -0.300 C  
HETATM   20  O   UNL     1      -8.860  17.734  68.323  1.00  0.00    -0.263 OA 
HETATM   21  H   UNL     1      -8.494  18.604  68.428  1.00  0.00     0.000 HD 
ENDBRANCH  13  19
ENDBRANCH   8  11
ENDBRANCH   7   8
ENDBRANCH   3   7
TORSDOF 4
ENDMDL
MODEL      206
REMARK 921   NORMALIZED FREE ENERGY PREDICTED BY IDOCK:   -3.21 KCAL/MOL
REMARK 922        TOTAL FREE ENERGY PREDICTED BY IDOCK:   -4.67 KCAL/MOL
REMARK 923 INTER-LIGAND FREE ENERGY PREDICTED BY IDOCK:   -4.30 KCAL/MOL
REMARK 924 INTRA-LIGAND FREE ENERGY PREDICTED BY IDOCK:   -0.37 KCAL/MOL
REMARK 927      BINDING AFFINITY PREDICTED BY RF-SCORE:    0.00 PKD
ROOT
HETATM    1  C   UNL     1     -13.323   9.718  71.874  1.00  0.00    -0.530 C  
HETATM    2  C   UNL     1     -12.697   8.334  71.638  1.00  0.00    -0.327 C  
HETATM    3  N   UNL     1     -12.008   8.273  70.332  1.00  0.00    -0.465 NA 
HETATM    4  C   UNL     1     -11.780   7.956  72.809  1.00  0.00    -0.338 C  
HETATM    5  C   UNL     1     -13.835   7.295  71.564  1.00  0.00    -0.463 C  
HETATM    6  H   UNL     1     -12.300   7.630  69.597  1.00  0.00     0.000 HD 
ENDROOT
BRANCH   3   7
HETATM    7  C   UNL     1     -10.872   9.197  70.155  1.00  0.00    -0.240 C  
BRANCH   7   8
HETATM    8  C   UNL     1      -9.597   8.566  69.512  1.00  0.00    -0.170 C  
HETATM    9  H   UNL     1      -8.115   9.246  68.466  1.00  0.00     0.000 HD 
HETATM   10  O   UNL     1      -8.891   9.630  68.857  1.00  0.00    -0.128 OA 
BRANCH   8  11
HETATM   11  C   UNL     1      -9.846   7.406  68.552  1.00  0.00    -0.164 A  
HETATM   12  C   UNL     1      -9.443   6.105  68.902  1.00  0.00    -0.131 A  
HETATM   13  C   UNL     1      -9.680   4.995  68.070  1.00  0.00    -0.197 A  
HETATM   14  C   UNL     1     -10.230   5.231  66.807  1.00  0.00    -0.249 A  
HETATM   15  H   UNL     1     -10.804   4.387  65.043  1.00  0.00     0.000 HD 
HETATM   16  C   UNL     1     -10.601   6.510  66.416  1.00  0.00     0.038 A  
HETATM   17  O   UNL     1     -10.430   4.227  65.901  1.00  0.00    -0.200 OA 
HETATM   18  C   UNL     1     -10.438   7.587  67.293  1.00  0.00    -0.391 A  
BRANCH  13  19
HETATM   19  C   UNL     1      -9.285   3.626  68.557  1.00  0.00    -0.161 C  
HETATM   20  O   UNL     1      -9.611   3.471  69.937  1.00  0.00    -0.188 OA 
HETATM   21  H   UNL     1      -9.362   2.607  70.245  1.00  0.00     0.000 HD 
ENDBRANCH  13  19
ENDBRANCH   8  11
ENDBRANCH   7   8
ENDBRANCH   3   7
TORSDOF 4
ENDMDL
MODEL      207
REMARK 921   NORMALIZED FREE ENERGY PREDICTED BY IDOCK:   -3.21 KCAL/MOL
REMARK 922        TOTAL FREE ENERGY PREDICTED BY IDOCK:   -4.67 KCAL/MOL
REMARK 923 INTER-LIGAND FREE ENERGY PREDICTED BY IDOCK:   -4.31 KCAL/MOL
REMARK 924 INTRA-LIGAND FREE ENERGY PREDICTED BY IDOCK:   -0.36 KCAL/MOL
REMARK 927      BINDING AFFINITY PREDICTED BY RF-SCORE:    0.00 PKD
ROOT
HETATM    1  C   UNL     1      -9.524  13.247  66.253  1.00  0.00    -0.196 C  
HETATM    2  C   UNL     1     -10.777  12.395  65.996  1.00  0.00    -0.261 C  
HETATM    3  N   UNL     1     -10.810  11.209  66.877  1.00  0.00    -0.275 NA 
HETATM    4  C   UNL     1     -12.042  13.257  66.117  1.00  0.00    -0.477 C  
HETATM    5  C   UNL     1     -10.705  11.849  64.555  1.00  0.00    -0.361 C  
HETATM    6  H   UNL     1     -10.791  10.260  66.505  1.00  0.00     0.000 HD 
ENDROOT
BRANCH   3   7
HETATM    7  C   UNL     1     -10.871  11.479  68.325  1.00  0.00    -0.216 C  
BRANCH   7   8
HETATM    8  C   UNL     1      -9.749  10.803  69.174  1.00  0.00    -0.163 C  
HETATM    9  H   UNL     1      -7.999  10.068  68.787  1.00  0.00     0.000 HD 
HETATM   10  O   UNL     1      -8.681  10.479  68.271  1.00  0.00    -0.126 OA 
BRANCH   8  11
HETATM   11  C   UNL     1     -10.175   9.576  69.976  1.00  0.00    -0.281 A  
HETATM   12  C   UNL     1      -9.806   8.290  69.542  1.00  0.00    -0.181 A  
HETATM   13  C   UNL     1     -10.141   7.129  70.263  1.00  0.00    -0.195 A  
HETATM   14  C   UNL     1     -10.969   7.270  71.380  1.00  0.00    -0.232 A  
HETATM   15  H   UNL     1     -11.970   6.290  72.860  1.00  0.00     0.000 HD 
HETATM   16  C   UNL     1     -11.384   8.522  71.809  1.00  0.00    -0.377 A  
HETATM   17  O   UNL     1     -11.407   6.194  72.101  1.00  0.00    -0.270 OA 
HETATM   18  C   UNL     1     -10.966   9.672  71.130  1.00  0.00    -0.430 A  
BRANCH  13  19
HETATM   19  C   UNL     1      -9.639   5.799  69.768  1.00  0.00    -0.157 C  
HETATM   20  O   UNL     1      -8.399   5.467  70.391  1.00  0.00    -0.108 OA 
HETATM   21  H   UNL     1      -8.081   4.627  70.080  1.00  0.00     0.000 HD 
ENDBRANCH  13  19
ENDBRANCH   8  11
ENDBRANCH   7   8
ENDBRANCH   3   7
TORSDOF 4
ENDMDL
MODEL      208
REMARK 921   NORMALIZED FREE ENERGY PREDICTED BY IDOCK:   -3.19 KCAL/MOL
REMARK 922        TOTAL FREE ENERGY PREDICTED BY IDOCK:   -4.64 KCAL/MOL
REMARK 923 INTER-LIGAND FREE ENERGY PREDICTED BY IDOCK:   -4.14 KCAL/MOL
REMARK 924 INTRA-LIGAND FREE ENERGY PREDICTED BY IDOCK:   -0.50 KCAL/MOL
REMARK 927      BINDING AFFINITY PREDICTED BY RF-SCORE:    0.00 PKD
ROOT
HETATM    1  C   UNL     1      -8.259  18.145  67.071  1.00  0.00    -0.246 C  
HETATM    2  C   UNL     1      -9.770  17.973  67.298  1.00  0.00    -0.297 C  
HETATM    3  N   UNL     1     -10.280  16.764  66.620  1.00  0.00    -0.301 NA 
HETATM    4  C   UNL     1     -10.088  17.987  68.800  1.00  0.00    -0.388 C  
HETATM    5  C   UNL     1     -10.497  19.165  66.642  1.00  0.00    -0.529 C  
HETATM    6  H   UNL     1     -10.981  16.815  65.881  1.00  0.00     0.000 HD 
ENDROOT
BRANCH   3   7
HETATM    7  C   UNL     1      -9.717  15.479  67.075  1.00  0.00    -0.224 C  
BRANCH   7   8
HETATM    8  C   UNL     1     -10.769  14.403  67.489  1.00  0.00    -0.271 C  
HETATM    9  H   UNL     1     -11.837  14.075  69.072  1.00  0.00     0.000 HD 
HETATM   10  O   UNL     1     -11.197  14.730  68.820  1.00  0.00    -0.246 OA 
BRANCH   8  11
HETATM   11  C   UNL     1     -10.299  12.954  67.408  1.00  0.00    -0.233 A  
HETATM   12  C   UNL     1     -10.143  12.198  68.584  1.00  0.00    -0.161 A  
HETATM   13  C   UNL     1      -9.748  10.848  68.564  1.00  0.00    -0.183 A  
HETATM   14  C   UNL     1      -9.389  10.291  67.333  1.00  0.00    -0.145 A  
HETATM   15  H   UNL     1      -8.679   8.632  66.386  1.00  0.00     0.000 HD 
HETATM   16  C   UNL     1      -9.492  11.023  66.159  1.00  0.00    -0.230 A  
HETATM   17  O   UNL     1      -8.923   9.010  67.222  1.00  0.00    -0.126 OA 
HETATM   18  C   UNL     1      -9.972  12.337  66.191  1.00  0.00    -0.260 A  
BRANCH  13  19
HETATM   19  C   UNL     1      -9.682  10.092  69.864  1.00  0.00    -0.150 C  
HETATM   20  O   UNL     1      -8.444   9.393  69.977  1.00  0.00    -0.150 OA 
HETATM   21  H   UNL     1      -8.402   8.916  70.798  1.00  0.00     0.000 HD 
ENDBRANCH  13  19
ENDBRANCH   8  11
ENDBRANCH   7   8
ENDBRANCH   3   7
TORSDOF 4
ENDMDL
MODEL      209
REMARK 921   NORMALIZED FREE ENERGY PREDICTED BY IDOCK:   -3.18 KCAL/MOL
REMARK 922        TOTAL FREE ENERGY PREDICTED BY IDOCK:   -4.64 KCAL/MOL
REMARK 923 INTER-LIGAND FREE ENERGY PREDICTED BY IDOCK:   -4.12 KCAL/MOL
REMARK 924 INTRA-LIGAND FREE ENERGY PREDICTED BY IDOCK:   -0.52 KCAL/MOL
REMARK 927      BINDING AFFINITY PREDICTED BY RF-SCORE:    0.00 PKD
ROOT
HETATM    1  C   UNL     1      -9.357   3.712  70.202  1.00  0.00    -0.243 C  
HETATM    2  C   UNL     1      -8.896   4.054  68.776  1.00  0.00    -0.106 C  
HETATM    3  N   UNL     1      -9.677   5.176  68.215  1.00  0.00    -0.135 NA 
HETATM    4  C   UNL     1      -7.383   4.318  68.753  1.00  0.00    -0.056 C  
HETATM    5  C   UNL     1      -9.187   2.841  67.869  1.00  0.00    -0.251 C  
HETATM    6  H   UNL     1     -10.257   5.067  67.383  1.00  0.00     0.000 HD 
ENDROOT
BRANCH   3   7
HETATM    7  C   UNL     1      -9.569   6.463  68.927  1.00  0.00    -0.126 C  
BRANCH   7   8
HETATM    8  C   UNL     1      -8.901   7.616  68.116  1.00  0.00    -0.125 C  
HETATM    9  H   UNL     1      -7.241   8.605  68.260  1.00  0.00     0.000 HD 
HETATM   10  O   UNL     1      -7.648   7.903  68.754  1.00  0.00    -0.096 OA 
BRANCH   8  11
HETATM   11  C   UNL     1      -9.736   8.885  67.960  1.00  0.00    -0.181 A  
HETATM   12  C   UNL     1     -10.486   9.370  69.046  1.00  0.00    -0.233 A  
HETATM   13  C   UNL     1     -11.243  10.554  68.968  1.00  0.00    -0.316 A  
HETATM   14  C   UNL     1     -11.335  11.190  67.726  1.00  0.00    -0.293 A  
HETATM   15  H   UNL     1     -12.166  12.735  66.691  1.00  0.00     0.000 HD 
HETATM   16  C   UNL     1     -10.639  10.712  66.625  1.00  0.00    -0.276 A  
HETATM   17  O   UNL     1     -12.104  12.303  67.535  1.00  0.00    -0.514 OA 
HETATM   18  C   UNL     1      -9.821   9.584  66.746  1.00  0.00    -0.277 A  
BRANCH  13  19
HETATM   19  C   UNL     1     -11.953  11.043  70.202  1.00  0.00    -0.360 C  
HETATM   20  O   UNL     1     -11.728  12.439  70.391  1.00  0.00    -0.534 OA 
HETATM   21  H   UNL     1     -12.176  12.748  71.170  1.00  0.00     0.000 HD 
ENDBRANCH  13  19
ENDBRANCH   8  11
ENDBRANCH   7   8
ENDBRANCH   3   7
TORSDOF 4
ENDMDL
MODEL      210
REMARK 921   NORMALIZED FREE ENERGY PREDICTED BY IDOCK:   -3.18 KCAL/MOL
REMARK 922        TOTAL FREE ENERGY PREDICTED BY IDOCK:   -4.64 KCAL/MOL
REMARK 923 INTER-LIGAND FREE ENERGY PREDICTED BY IDOCK:   -4.19 KCAL/MOL
REMARK 924 INTRA-LIGAND FREE ENERGY PREDICTED BY IDOCK:   -0.45 KCAL/MOL
REMARK 927      BINDING AFFINITY PREDICTED BY RF-SCORE:    0.00 PKD
ROOT
HETATM    1  C   UNL     1      -9.168  15.142  68.969  1.00  0.00    -0.221 C  
HETATM    2  C   UNL     1      -8.950  14.651  67.528  1.00  0.00    -0.190 C  
HETATM    3  N   UNL     1      -8.689  13.197  67.490  1.00  0.00    -0.189 NA 
HETATM    4  C   UNL     1     -10.134  15.063  66.640  1.00  0.00    -0.267 C  
HETATM    5  C   UNL     1      -7.677  15.324  66.974  1.00  0.00    -0.192 C  
HETATM    6  H   UNL     1      -7.811  12.816  67.141  1.00  0.00     0.000 HD 
ENDROOT
BRANCH   3   7
HETATM    7  C   UNL     1      -9.774  12.330  67.987  1.00  0.00    -0.205 C  
BRANCH   7   8
HETATM    8  C   UNL     1      -9.317  10.938  68.524  1.00  0.00    -0.181 C  
HETATM    9  H   UNL     1      -8.847   9.245  67.708  1.00  0.00     0.000 HD 
HETATM   10  O   UNL     1      -9.125  10.093  67.380  1.00  0.00    -0.137 OA 
BRANCH   8  11
HETATM   11  C   UNL     1     -10.252  10.281  69.536  1.00  0.00    -0.261 A  
HETATM   12  C   UNL     1      -9.819   9.162  70.270  1.00  0.00    -0.245 A  
HETATM   13  C   UNL     1     -10.627   8.541  71.241  1.00  0.00    -0.296 A  
HETATM   14  C   UNL     1     -11.943   8.992  71.381  1.00  0.00    -0.332 A  
HETATM   15  H   UNL     1     -13.718   8.711  72.341  1.00  0.00     0.000 HD 
HETATM   16  C   UNL     1     -12.413  10.068  70.641  1.00  0.00    -0.321 A  
HETATM   17  O   UNL     1     -12.824   8.405  72.245  1.00  0.00    -0.342 OA 
HETATM   18  C   UNL     1     -11.566  10.728  69.745  1.00  0.00    -0.393 A  
BRANCH  13  19
HETATM   19  C   UNL     1     -10.055   7.398  72.036  1.00  0.00    -0.182 C  
HETATM   20  O   UNL     1     -11.003   6.338  72.144  1.00  0.00    -0.233 OA 
HETATM   21  H   UNL     1     -10.643   5.616  72.646  1.00  0.00     0.000 HD 
ENDBRANCH  13  19
ENDBRANCH   8  11
ENDBRANCH   7   8
ENDBRANCH   3   7
TORSDOF 4
ENDMDL
MODEL      211
REMARK 921   NORMALIZED FREE ENERGY PREDICTED BY IDOCK:   -3.17 KCAL/MOL
REMARK 922        TOTAL FREE ENERGY PREDICTED BY IDOCK:   -4.62 KCAL/MOL
REMARK 923 INTER-LIGAND FREE ENERGY PREDICTED BY IDOCK:   -4.00 KCAL/MOL
REMARK 924 INTRA-LIGAND FREE ENERGY PREDICTED BY IDOCK:   -0.63 KCAL/MOL
REMARK 927      BINDING AFFINITY PREDICTED BY RF-SCORE:    0.00 PKD
ROOT
HETATM    1  C   UNL     1      -7.545  10.977  68.946  1.00  0.00    -0.134 C  
HETATM    2  C   UNL     1      -7.752  11.407  67.484  1.00  0.00    -0.125 C  
HETATM    3  N   UNL     1      -8.151  10.263  66.640  1.00  0.00    -0.116 NA 
HETATM    4  C   UNL     1      -8.746  12.574  67.407  1.00  0.00    -0.189 C  
HETATM    5  C   UNL     1      -6.398  11.892  66.926  1.00  0.00    -0.107 C  
HETATM    6  H   UNL     1      -7.578   9.940  65.861  1.00  0.00     0.000 HD 
ENDROOT
BRANCH   3   7
HETATM    7  C   UNL     1      -9.429   9.613  66.989  1.00  0.00    -0.154 C  
BRANCH   7   8
HETATM    8  C   UNL     1      -9.303   8.171  67.571  1.00  0.00    -0.140 C  
HETATM    9  H   UNL     1      -9.407   6.384  66.829  1.00  0.00     0.000 HD 
HETATM   10  O   UNL     1      -9.484   7.262  66.475  1.00  0.00    -0.175 OA 
BRANCH   8  11
HETATM   11  C   UNL     1     -10.251   7.836  68.719  1.00  0.00    -0.212 A  
HETATM   12  C   UNL     1     -10.668   8.846  69.605  1.00  0.00    -0.222 A  
HETATM   13  C   UNL     1     -11.569   8.599  70.657  1.00  0.00    -0.225 A  
HETATM   14  C   UNL     1     -11.959   7.276  70.886  1.00  0.00    -0.305 A  
HETATM   15  H   UNL     1     -13.038   6.029  72.082  1.00  0.00     0.000 HD 
HETATM   16  C   UNL     1     -11.532   6.251  70.054  1.00  0.00    -0.460 A  
HETATM   17  O   UNL     1     -12.773   6.928  71.927  1.00  0.00    -0.336 OA 
HETATM   18  C   UNL     1     -10.707   6.531  68.960  1.00  0.00    -0.324 A  
BRANCH  13  19
HETATM   19  C   UNL     1     -12.023   9.754  71.509  1.00  0.00    -0.407 C  
HETATM   20  O   UNL     1     -13.437   9.917  71.422  1.00  0.00    -0.364 OA 
HETATM   21  H   UNL     1     -13.724  10.646  71.960  1.00  0.00     0.000 HD 
ENDBRANCH  13  19
ENDBRANCH   8  11
ENDBRANCH   7   8
ENDBRANCH   3   7
TORSDOF 4
ENDMDL
MODEL      212
REMARK 921   NORMALIZED FREE ENERGY PREDICTED BY IDOCK:   -3.14 KCAL/MOL
REMARK 922        TOTAL FREE ENERGY PREDICTED BY IDOCK:   -4.59 KCAL/MOL
REMARK 923 INTER-LIGAND FREE ENERGY PREDICTED BY IDOCK:   -4.13 KCAL/MOL
REMARK 924 INTRA-LIGAND FREE ENERGY PREDICTED BY IDOCK:   -0.46 KCAL/MOL
REMARK 927      BINDING AFFINITY PREDICTED BY RF-SCORE:    0.00 PKD
ROOT
HETATM    1  C   UNL     1     -10.658   9.785  70.933  1.00  0.00    -0.344 C  
HETATM    2  C   UNL     1     -12.149  10.031  71.214  1.00  0.00    -0.394 C  
HETATM    3  N   UNL     1     -12.431  11.469  71.399  1.00  0.00    -0.284 NA 
HETATM    4  C   UNL     1     -13.011   9.397  70.112  1.00  0.00     0.867 C  
HETATM    5  C   UNL     1     -12.507   9.354  72.553  1.00  0.00    -0.140 C  
HETATM    6  H   UNL     1     -12.796  11.839  72.276  1.00  0.00     0.000 HD 
ENDROOT
BRANCH   3   7
HETATM    7  C   UNL     1     -12.154  12.339  70.241  1.00  0.00    -0.295 C  
BRANCH   7   8
HETATM    8  C   UNL     1     -12.161  13.870  70.543  1.00  0.00    -0.373 C  
HETATM    9  H   UNL     1     -13.507  15.145  71.105  1.00  0.00     0.000 HD 
HETATM   10  O   UNL     1     -13.503  14.213  70.921  1.00  0.00    -0.259 OA 
BRANCH   8  11
HETATM   11  C   UNL     1     -11.667  14.769  69.414  1.00  0.00    -0.358 A  
HETATM   12  C   UNL     1     -11.835  14.374  68.074  1.00  0.00    -0.361 A  
HETATM   13  C   UNL     1     -11.432  15.181  66.995  1.00  0.00    -0.230 A  
HETATM   14  C   UNL     1     -10.734  16.358  67.285  1.00  0.00    -0.257 A  
HETATM   15  H   UNL     1      -9.765  17.970  66.500  1.00  0.00     0.000 HD 
HETATM   16  C   UNL     1     -10.516  16.755  68.596  1.00  0.00    -0.333 A  
HETATM   17  O   UNL     1     -10.239  17.170  66.303  1.00  0.00    -0.317 OA 
HETATM   18  C   UNL     1     -11.004  15.982  69.655  1.00  0.00    -0.326 A  
BRANCH  13  19
HETATM   19  C   UNL     1     -11.721  14.716  65.593  1.00  0.00    -0.304 C  
HETATM   20  O   UNL     1     -10.508  14.482  64.880  1.00  0.00    -0.418 OA 
HETATM   21  H   UNL     1     -10.691  14.188  63.995  1.00  0.00     0.000 HD 
ENDBRANCH  13  19
ENDBRANCH   8  11
ENDBRANCH   7   8
ENDBRANCH   3   7
TORSDOF 4
ENDMDL
MODEL      213
REMARK 921   NORMALIZED FREE ENERGY PREDICTED BY IDOCK:   -3.13 KCAL/MOL
REMARK 922        TOTAL FREE ENERGY PREDICTED BY IDOCK:   -4.57 KCAL/MOL
REMARK 923 INTER-LIGAND FREE ENERGY PREDICTED BY IDOCK:   -4.14 KCAL/MOL
REMARK 924 INTRA-LIGAND FREE ENERGY PREDICTED BY IDOCK:   -0.43 KCAL/MOL
REMARK 927      BINDING AFFINITY PREDICTED BY RF-SCORE:    0.00 PKD
ROOT
HETATM    1  C   UNL     1      -7.018  11.494  66.846  1.00  0.00    -0.134 C  
HETATM    2  C   UNL     1      -7.768  11.014  68.099  1.00  0.00    -0.105 C  
HETATM    3  N   UNL     1      -9.123  11.600  68.170  1.00  0.00    -0.177 NA 
HETATM    4  C   UNL     1      -7.784   9.479  68.156  1.00  0.00    -0.083 C  
HETATM    5  C   UNL     1      -7.017  11.533  69.342  1.00  0.00    -0.071 C  
HETATM    6  H   UNL     1      -9.408  12.209  68.936  1.00  0.00     0.000 HD 
ENDROOT
BRANCH   3   7
HETATM    7  C   UNL     1     -10.039  11.251  67.068  1.00  0.00    -0.206 C  
BRANCH   7   8
HETATM    8  C   UNL     1     -10.788  12.458  66.421  1.00  0.00    -0.258 C  
HETATM    9  H   UNL     1     -10.697  13.364  64.711  1.00  0.00     0.000 HD 
HETATM   10  O   UNL     1     -10.241  12.630  65.104  1.00  0.00    -0.287 OA 
BRANCH   8  11
HETATM   11  C   UNL     1     -10.738  13.765  67.206  1.00  0.00    -0.286 A  
HETATM   12  C   UNL     1      -9.712  14.696  66.959  1.00  0.00    -0.247 A  
HETATM   13  C   UNL     1      -9.640  15.931  67.628  1.00  0.00    -0.221 A  
HETATM   14  C   UNL     1     -10.559  16.173  68.654  1.00  0.00    -0.283 A  
HETATM   15  H   UNL     1     -11.147  17.476  70.106  1.00  0.00     0.000 HD 
HETATM   16  C   UNL     1     -11.557  15.256  68.950  1.00  0.00    -0.365 A  
HETATM   17  O   UNL     1     -10.523  17.312  69.409  1.00  0.00    -0.313 OA 
HETATM   18  C   UNL     1     -11.666  14.073  68.213  1.00  0.00    -0.392 A  
BRANCH  13  19
HETATM   19  C   UNL     1      -8.555  16.901  67.245  1.00  0.00    -0.196 C  
HETATM   20  O   UNL     1      -8.556  17.127  65.837  1.00  0.00    -0.522 OA 
HETATM   21  H   UNL     1      -7.871  17.739  65.594  1.00  0.00     0.000 HD 
ENDBRANCH  13  19
ENDBRANCH   8  11
ENDBRANCH   7   8
ENDBRANCH   3   7
TORSDOF 4
ENDMDL
MODEL      214
REMARK 921   NORMALIZED FREE ENERGY PREDICTED BY IDOCK:   -3.12 KCAL/MOL
REMARK 922        TOTAL FREE ENERGY PREDICTED BY IDOCK:   -4.56 KCAL/MOL
REMARK 923 INTER-LIGAND FREE ENERGY PREDICTED BY IDOCK:   -4.08 KCAL/MOL
REMARK 924 INTRA-LIGAND FREE ENERGY PREDICTED BY IDOCK:   -0.48 KCAL/MOL
REMARK 927      BINDING AFFINITY PREDICTED BY RF-SCORE:    0.00 PKD
ROOT
HETATM    1  C   UNL     1      -9.384   3.779  67.044  1.00  0.00    -0.219 C  
HETATM    2  C   UNL     1      -9.619   4.780  65.901  1.00  0.00    -0.180 C  
HETATM    3  N   UNL     1      -9.747   6.160  66.413  1.00  0.00    -0.273 NA 
HETATM    4  C   UNL     1      -8.519   4.643  64.838  1.00  0.00    -0.135 C  
HETATM    5  C   UNL     1     -10.972   4.447  65.237  1.00  0.00     0.010 C  
HETATM    6  H   UNL     1     -10.602   6.703  66.292  1.00  0.00     0.000 HD 
ENDROOT
BRANCH   3   7
HETATM    7  C   UNL     1      -8.567   6.706  67.108  1.00  0.00    -0.112 C  
BRANCH   7   8
HETATM    8  C   UNL     1      -8.875   7.501  68.414  1.00  0.00    -0.126 C  
HETATM    9  H   UNL     1      -9.689   7.068  70.118  1.00  0.00     0.000 HD 
HETATM   10  O   UNL     1      -9.502   6.584  69.323  1.00  0.00    -0.141 OA 
BRANCH   8  11
HETATM   11  C   UNL     1      -9.722   8.758  68.239  1.00  0.00    -0.175 A  
HETATM   12  C   UNL     1     -10.527   9.218  69.297  1.00  0.00    -0.228 A  
HETATM   13  C   UNL     1     -11.299  10.390  69.201  1.00  0.00    -0.286 A  
HETATM   14  C   UNL     1     -11.347  11.041  67.964  1.00  0.00    -0.306 A  
HETATM   15  H   UNL     1     -12.158  12.586  66.912  1.00  0.00     0.000 HD 
HETATM   16  C   UNL     1     -10.597  10.588  66.888  1.00  0.00    -0.303 A  
HETATM   17  O   UNL     1     -12.125  12.144  67.752  1.00  0.00    -0.508 OA 
HETATM   18  C   UNL     1      -9.766   9.471  67.031  1.00  0.00    -0.229 A  
BRANCH  13  19
HETATM   19  C   UNL     1     -12.069  10.852  70.408  1.00  0.00    -0.363 C  
HETATM   20  O   UNL     1     -11.876  12.249  70.623  1.00  0.00    -0.502 OA 
HETATM   21  H   UNL     1     -12.362  12.542  71.386  1.00  0.00     0.000 HD 
ENDBRANCH  13  19
ENDBRANCH   8  11
ENDBRANCH   7   8
ENDBRANCH   3   7
TORSDOF 4
ENDMDL
MODEL      215
REMARK 921   NORMALIZED FREE ENERGY PREDICTED BY IDOCK:   -3.12 KCAL/MOL
REMARK 922        TOTAL FREE ENERGY PREDICTED BY IDOCK:   -4.56 KCAL/MOL
REMARK 923 INTER-LIGAND FREE ENERGY PREDICTED BY IDOCK:   -4.16 KCAL/MOL
REMARK 924 INTRA-LIGAND FREE ENERGY PREDICTED BY IDOCK:   -0.40 KCAL/MOL
REMARK 927      BINDING AFFINITY PREDICTED BY RF-SCORE:    0.00 PKD
ROOT
HETATM    1  C   UNL     1     -11.041   5.197  72.391  1.00  0.00    -0.213 C  
HETATM    2  C   UNL     1     -10.672   6.689  72.346  1.00  0.00    -0.223 C  
HETATM    3  N   UNL     1      -9.695   6.968  71.274  1.00  0.00    -0.171 NA 
HETATM    4  C   UNL     1     -11.940   7.548  72.229  1.00  0.00    -0.303 C  
HETATM    5  C   UNL     1      -9.966   7.053  73.669  1.00  0.00    -0.348 C  
HETATM    6  H   UNL     1      -8.765   7.335  71.475  1.00  0.00     0.000 HD 
ENDROOT
BRANCH   3   7
HETATM    7  C   UNL     1     -10.142   6.685  69.898  1.00  0.00    -0.176 C  
BRANCH   7   8
HETATM    8  C   UNL     1      -9.397   7.480  68.781  1.00  0.00    -0.147 C  
HETATM    9  H   UNL     1      -7.634   8.265  68.607  1.00  0.00     0.000 HD 
HETATM   10  O   UNL     1      -8.087   7.781  69.287  1.00  0.00    -0.122 OA 
BRANCH   8  11
HETATM   11  C   UNL     1     -10.095   8.746  68.292  1.00  0.00    -0.220 A  
HETATM   12  C   UNL     1      -9.798   9.266  67.019  1.00  0.00    -0.257 A  
HETATM   13  C   UNL     1     -10.439  10.408  66.505  1.00  0.00    -0.262 A  
HETATM   14  C   UNL     1     -11.311  11.104  67.349  1.00  0.00    -0.255 A  
HETATM   15  H   UNL     1     -12.516  12.736  67.539  1.00  0.00     0.000 HD 
HETATM   16  C   UNL     1     -11.592  10.639  68.626  1.00  0.00    -0.297 A  
HETATM   17  O   UNL     1     -11.924  12.263  66.965  1.00  0.00    -0.576 OA 
HETATM   18  C   UNL     1     -11.012   9.452  69.085  1.00  0.00    -0.114 A  
BRANCH  13  19
HETATM   19  C   UNL     1     -10.119  10.850  65.103  1.00  0.00    -0.292 C  
HETATM   20  O   UNL     1      -8.776  10.508  64.762  1.00  0.00    -0.182 OA 
HETATM   21  H   UNL     1      -8.573  10.786  63.877  1.00  0.00     0.000 HD 
ENDBRANCH  13  19
ENDBRANCH   8  11
ENDBRANCH   7   8
ENDBRANCH   3   7
TORSDOF 4
ENDMDL
MODEL      216
REMARK 921   NORMALIZED FREE ENERGY PREDICTED BY IDOCK:   -3.11 KCAL/MOL
REMARK 922        TOTAL FREE ENERGY PREDICTED BY IDOCK:   -4.55 KCAL/MOL
REMARK 923 INTER-LIGAND FREE ENERGY PREDICTED BY IDOCK:   -3.81 KCAL/MOL
REMARK 924 INTRA-LIGAND FREE ENERGY PREDICTED BY IDOCK:   -0.74 KCAL/MOL
REMARK 927      BINDING AFFINITY PREDICTED BY RF-SCORE:    0.00 PKD
ROOT
HETATM    1  C   UNL     1      -9.660   9.518  65.310  1.00  0.00    -0.314 C  
HETATM    2  C   UNL     1      -9.217   8.488  66.362  1.00  0.00    -0.199 C  
HETATM    3  N   UNL     1      -8.438   9.125  67.443  1.00  0.00    -0.115 NA 
HETATM    4  C   UNL     1     -10.431   7.709  66.889  1.00  0.00    -0.388 C  
HETATM    5  C   UNL     1      -8.260   7.485  65.685  1.00  0.00    -0.133 C  
HETATM    6  H   UNL     1      -7.467   8.875  67.628  1.00  0.00     0.000 HD 
ENDROOT
BRANCH   3   7
HETATM    7  C   UNL     1      -9.146  10.144  68.239  1.00  0.00    -0.122 C  
BRANCH   7   8
HETATM    8  C   UNL     1      -8.924  10.054  69.782  1.00  0.00    -0.185 C  
HETATM    9  H   UNL     1      -7.381   9.813  70.928  1.00  0.00     0.000 HD 
HETATM   10  O   UNL     1      -7.516   9.868  69.989  1.00  0.00    -0.134 OA 
BRANCH   8  11
HETATM   11  C   UNL     1      -9.728   8.976  70.503  1.00  0.00    -0.262 A  
HETATM   12  C   UNL     1      -9.277   7.643  70.503  1.00  0.00    -0.159 A  
HETATM   13  C   UNL     1      -9.959   6.618  71.182  1.00  0.00    -0.198 A  
HETATM   14  C   UNL     1     -11.188   6.930  71.771  1.00  0.00    -0.252 A  
HETATM   15  H   UNL     1     -12.793   6.198  72.791  1.00  0.00     0.000 HD 
HETATM   16  C   UNL     1     -11.681   8.227  71.753  1.00  0.00    -0.357 A  
HETATM   17  O   UNL     1     -11.959   5.986  72.390  1.00  0.00    -0.302 OA 
HETATM   18  C   UNL     1     -10.943   9.250  71.149  1.00  0.00    -0.409 A  
BRANCH  13  19
HETATM   19  C   UNL     1      -9.363   5.236  71.196  1.00  0.00    -0.151 C  
HETATM   20  O   UNL     1      -9.541   4.624  72.472  1.00  0.00    -0.134 OA 
HETATM   21  H   UNL     1      -9.165   3.752  72.481  1.00  0.00     0.000 HD 
ENDBRANCH  13  19
ENDBRANCH   8  11
ENDBRANCH   7   8
ENDBRANCH   3   7
TORSDOF 4
ENDMDL
MODEL      217
REMARK 921   NORMALIZED FREE ENERGY PREDICTED BY IDOCK:   -3.11 KCAL/MOL
REMARK 922        TOTAL FREE ENERGY PREDICTED BY IDOCK:   -4.54 KCAL/MOL
REMARK 923 INTER-LIGAND FREE ENERGY PREDICTED BY IDOCK:   -4.24 KCAL/MOL
REMARK 924 INTRA-LIGAND FREE ENERGY PREDICTED BY IDOCK:   -0.30 KCAL/MOL
REMARK 927      BINDING AFFINITY PREDICTED BY RF-SCORE:    0.00 PKD
ROOT
HETATM    1  C   UNL     1     -11.573   9.190  71.971  1.00  0.00    -0.371 C  
HETATM    2  C   UNL     1     -10.525   8.069  71.879  1.00  0.00    -0.236 C  
HETATM    3  N   UNL     1     -10.068   7.875  70.487  1.00  0.00    -0.192 NA 
HETATM    4  C   UNL     1      -9.366   8.340  72.849  1.00  0.00    -0.324 C  
HETATM    5  C   UNL     1     -11.197   6.743  72.292  1.00  0.00    -0.295 C  
HETATM    6  H   UNL     1     -10.210   6.996  69.990  1.00  0.00     0.000 HD 
ENDROOT
BRANCH   3   7
HETATM    7  C   UNL     1      -9.393   9.026  69.860  1.00  0.00    -0.173 C  
BRANCH   7   8
HETATM    8  C   UNL     1     -10.163   9.679  68.670  1.00  0.00    -0.189 C  
HETATM    9  H   UNL     1     -10.498   9.189  66.826  1.00  0.00     0.000 HD 
HETATM   10  O   UNL     1     -10.030   8.791  67.550  1.00  0.00    -0.171 OA 
BRANCH   8  11
HETATM   11  C   UNL     1      -9.728  11.094  68.298  1.00  0.00    -0.190 A  
HETATM   12  C   UNL     1     -10.657  12.149  68.339  1.00  0.00    -0.243 A  
HETATM   13  C   UNL     1     -10.300  13.477  68.041  1.00  0.00    -0.241 A  
HETATM   14  C   UNL     1      -9.003  13.716  67.576  1.00  0.00    -0.209 A  
HETATM   15  H   UNL     1      -7.705  15.123  66.877  1.00  0.00     0.000 HD 
HETATM   16  C   UNL     1      -8.076  12.689  67.484  1.00  0.00    -0.178 A  
HETATM   17  O   UNL     1      -8.586  14.960  67.193  1.00  0.00    -0.197 OA 
HETATM   18  C   UNL     1      -8.425  11.390  67.870  1.00  0.00    -0.139 A  
BRANCH  13  19
HETATM   19  C   UNL     1     -11.338  14.557  68.188  1.00  0.00    -0.298 C  
HETATM   20  O   UNL     1     -12.318  14.455  67.156  1.00  0.00    -0.598 OA 
HETATM   21  H   UNL     1     -12.974  15.136  67.248  1.00  0.00     0.000 HD 
ENDBRANCH  13  19
ENDBRANCH   8  11
ENDBRANCH   7   8
ENDBRANCH   3   7
TORSDOF 4
ENDMDL
MODEL      218
REMARK 921   NORMALIZED FREE ENERGY PREDICTED BY IDOCK:   -3.10 KCAL/MOL
REMARK 922        TOTAL FREE ENERGY PREDICTED BY IDOCK:   -4.54 KCAL/MOL
REMARK 923 INTER-LIGAND FREE ENERGY PREDICTED BY IDOCK:   -4.28 KCAL/MOL
REMARK 924 INTRA-LIGAND FREE ENERGY PREDICTED BY IDOCK:   -0.26 KCAL/MOL
REMARK 927      BINDING AFFINITY PREDICTED BY RF-SCORE:    0.00 PKD
ROOT
HETATM    1  C   UNL     1      -7.377   5.964  71.078  1.00  0.00    -0.082 C  
HETATM    2  C   UNL     1      -8.904   5.831  70.957  1.00  0.00    -0.138 C  
HETATM    3  N   UNL     1      -9.578   7.118  71.230  1.00  0.00    -0.164 NA 
HETATM    4  C   UNL     1      -9.281   5.246  69.588  1.00  0.00    -0.159 C  
HETATM    5  C   UNL     1      -9.394   4.857  72.047  1.00  0.00    -0.175 C  
HETATM    6  H   UNL     1     -10.227   7.232  72.008  1.00  0.00     0.000 HD 
ENDROOT
BRANCH   3   7
HETATM    7  C   UNL     1      -9.256   8.227  70.312  1.00  0.00    -0.155 C  
BRANCH   7   8
HETATM    8  C   UNL     1      -9.973   9.577  70.626  1.00  0.00    -0.276 C  
HETATM    9  H   UNL     1     -11.450  10.108  71.762  1.00  0.00     0.000 HD 
HETATM   10  O   UNL     1     -11.014   9.286  71.571  1.00  0.00    -0.336 OA 
BRANCH   8  11
HETATM   11  C   UNL     1     -10.527  10.327  69.419  1.00  0.00    -0.259 A  
HETATM   12  C   UNL     1     -11.037  11.629  69.573  1.00  0.00    -0.230 A  
HETATM   13  C   UNL     1     -11.526  12.379  68.488  1.00  0.00    -0.350 A  
HETATM   14  C   UNL     1     -11.610  11.748  67.243  1.00  0.00    -0.269 A  
HETATM   15  H   UNL     1     -12.196  11.941  65.301  1.00  0.00     0.000 HD 
HETATM   16  C   UNL     1     -11.155  10.449  67.068  1.00  0.00    -0.141 A  
HETATM   17  O   UNL     1     -12.139  12.369  66.146  1.00  0.00    -0.611 OA 
HETATM   18  C   UNL     1     -10.589   9.752  68.140  1.00  0.00    -0.276 A  
BRANCH  13  19
HETATM   19  C   UNL     1     -11.979  13.794  68.729  1.00  0.00    -0.365 C  
HETATM   20  O   UNL     1     -12.578  13.917  70.018  1.00  0.00    -0.294 OA 
HETATM   21  H   UNL     1     -12.864  14.810  70.171  1.00  0.00     0.000 HD 
ENDBRANCH  13  19
ENDBRANCH   8  11
ENDBRANCH   7   8
ENDBRANCH   3   7
TORSDOF 4
ENDMDL
MODEL      219
REMARK 921   NORMALIZED FREE ENERGY PREDICTED BY IDOCK:   -3.10 KCAL/MOL
REMARK 922        TOTAL FREE ENERGY PREDICTED BY IDOCK:   -4.53 KCAL/MOL
REMARK 923 INTER-LIGAND FREE ENERGY PREDICTED BY IDOCK:   -4.06 KCAL/MOL
REMARK 924 INTRA-LIGAND FREE ENERGY PREDICTED BY IDOCK:   -0.48 KCAL/MOL
REMARK 927      BINDING AFFINITY PREDICTED BY RF-SCORE:    0.00 PKD
ROOT
HETATM    1  C   UNL     1      -6.076  13.790  67.607  1.00  0.00    -0.096 C  
HETATM    2  C   UNL     1      -6.474  13.801  69.092  1.00  0.00    -0.109 C  
HETATM    3  N   UNL     1      -7.559  12.835  69.363  1.00  0.00    -0.181 NA 
HETATM    4  C   UNL     1      -5.241  13.568  69.976  1.00  0.00    -0.089 C  
HETATM    5  C   UNL     1      -7.051  15.191  69.428  1.00  0.00    -0.189 C  
HETATM    6  H   UNL     1      -8.471  13.132  69.710  1.00  0.00     0.000 HD 
ENDROOT
BRANCH   3   7
HETATM    7  C   UNL     1      -7.246  11.418  69.103  1.00  0.00    -0.102 C  
BRANCH   7   8
HETATM    8  C   UNL     1      -8.470  10.527  68.722  1.00  0.00    -0.141 C  
HETATM    9  H   UNL     1      -8.698   8.851  67.777  1.00  0.00     0.000 HD 
HETATM   10  O   UNL     1      -7.953   9.393  68.009  1.00  0.00    -0.092 OA 
BRANCH   8  11
HETATM   11  C   UNL     1      -9.568  11.220  67.921  1.00  0.00    -0.182 A  
HETATM   12  C   UNL     1      -9.559  11.159  66.516  1.00  0.00    -0.222 A  
HETATM   13  C   UNL     1     -10.567  11.749  65.731  1.00  0.00    -0.312 A  
HETATM   14  C   UNL     1     -11.536  12.518  66.383  1.00  0.00    -0.391 A  
HETATM   15  H   UNL     1     -13.170  13.711  66.142  1.00  0.00     0.000 HD 
HETATM   16  C   UNL     1     -11.548  12.632  67.765  1.00  0.00    -0.403 A  
HETATM   17  O   UNL     1     -12.512  13.189  65.700  1.00  0.00    -0.457 OA 
HETATM   18  C   UNL     1     -10.589  11.964  68.534  1.00  0.00    -0.245 A  
BRANCH  13  19
HETATM   19  C   UNL     1     -10.522  11.568  64.238  1.00  0.00    -0.338 C  
HETATM   20  O   UNL     1     -10.852  12.787  63.573  1.00  0.00    -0.506 OA 
HETATM   21  H   UNL     1     -10.823  12.673  62.630  1.00  0.00     0.000 HD 
ENDBRANCH  13  19
ENDBRANCH   8  11
ENDBRANCH   7   8
ENDBRANCH   3   7
TORSDOF 4
ENDMDL
MODEL      220
REMARK 921   NORMALIZED FREE ENERGY PREDICTED BY IDOCK:   -3.10 KCAL/MOL
REMARK 922        TOTAL FREE ENERGY PREDICTED BY IDOCK:   -4.53 KCAL/MOL
REMARK 923 INTER-LIGAND FREE ENERGY PREDICTED BY IDOCK:   -4.07 KCAL/MOL
REMARK 924 INTRA-LIGAND FREE ENERGY PREDICTED BY IDOCK:   -0.47 KCAL/MOL
REMARK 927      BINDING AFFINITY PREDICTED BY RF-SCORE:    0.00 PKD
ROOT
HETATM    1  C   UNL     1     -11.706  14.923  67.668  1.00  0.00    -0.329 C  
HETATM    2  C   UNL     1     -10.513  15.690  67.076  1.00  0.00    -0.303 C  
HETATM    3  N   UNL     1      -9.238  14.998  67.355  1.00  0.00    -0.191 NA 
HETATM    4  C   UNL     1     -10.732  15.943  65.577  1.00  0.00    -0.386 C  
HETATM    5  C   UNL     1     -10.416  17.057  67.785  1.00  0.00    -0.349 C  
HETATM    6  H   UNL     1      -8.500  15.429  67.912  1.00  0.00     0.000 HD 
ENDROOT
BRANCH   3   7
HETATM    7  C   UNL     1      -9.094  13.647  66.782  1.00  0.00    -0.217 C  
BRANCH   7   8
HETATM    8  C   UNL     1      -8.590  12.554  67.775  1.00  0.00    -0.178 C  
HETATM    9  H   UNL     1      -6.858  11.814  68.229  1.00  0.00     0.000 HD 
HETATM   10  O   UNL     1      -7.164  12.479  67.624  1.00  0.00    -0.110 OA 
BRANCH   8  11
HETATM   11  C   UNL     1      -9.227  11.176  67.621  1.00  0.00    -0.151 A  
HETATM   12  C   UNL     1      -9.173  10.253  68.681  1.00  0.00    -0.159 A  
HETATM   13  C   UNL     1      -9.774   8.984  68.605  1.00  0.00    -0.168 A  
HETATM   14  C   UNL     1     -10.337   8.600  67.384  1.00  0.00    -0.284 A  
HETATM   15  H   UNL     1     -11.262   7.099  66.361  1.00  0.00     0.000 HD 
HETATM   16  C   UNL     1     -10.369   9.472  66.306  1.00  0.00    -0.226 A  
HETATM   17  O   UNL     1     -10.880   7.360  67.191  1.00  0.00    -0.331 OA 
HETATM   18  C   UNL     1      -9.844  10.763  66.430  1.00  0.00    -0.254 A  
BRANCH  13  19
HETATM   19  C   UNL     1      -9.737   8.090  69.815  1.00  0.00    -0.176 C  
HETATM   20  O   UNL     1     -11.045   7.928  70.362  1.00  0.00    -0.254 OA 
HETATM   21  H   UNL     1     -11.021   7.363  71.126  1.00  0.00     0.000 HD 
ENDBRANCH  13  19
ENDBRANCH   8  11
ENDBRANCH   7   8
ENDBRANCH   3   7
TORSDOF 4
ENDMDL
MODEL      221
REMARK 921   NORMALIZED FREE ENERGY PREDICTED BY IDOCK:   -3.08 KCAL/MOL
REMARK 922        TOTAL FREE ENERGY PREDICTED BY IDOCK:   -4.51 KCAL/MOL
REMARK 923 INTER-LIGAND FREE ENERGY PREDICTED BY IDOCK:   -4.05 KCAL/MOL
REMARK 924 INTRA-LIGAND FREE ENERGY PREDICTED BY IDOCK:   -0.46 KCAL/MOL
REMARK 927      BINDING AFFINITY PREDICTED BY RF-SCORE:    0.00 PKD
ROOT
HETATM    1  C   UNL     1     -11.373  11.164  67.597  1.00  0.00    -0.356 C  
HETATM    2  C   UNL     1     -10.005  11.042  68.288  1.00  0.00    -0.179 C  
HETATM    3  N   UNL     1     -10.156  10.830  69.743  1.00  0.00    -0.438 NA 
HETATM    4  C   UNL     1      -9.163   9.949  67.615  1.00  0.00    -0.146 C  
HETATM    5  C   UNL     1      -9.263  12.386  68.131  1.00  0.00    -0.205 C  
HETATM    6  H   UNL     1      -9.797  11.497  70.425  1.00  0.00     0.000 HD 
ENDROOT
BRANCH   3   7
HETATM    7  C   UNL     1     -10.855   9.597  70.149  1.00  0.00    -0.280 C  
BRANCH   7   8
HETATM    8  C   UNL     1     -10.130   8.752  71.243  1.00  0.00    -0.266 C  
HETATM    9  H   UNL     1      -8.377   8.801  72.067  1.00  0.00     0.000 HD 
HETATM   10  O   UNL     1      -8.818   9.315  71.401  1.00  0.00    -0.313 OA 
BRANCH   8  11
HETATM   11  C   UNL     1     -10.050   7.252  70.975  1.00  0.00    -0.195 A  
HETATM   12  C   UNL     1     -10.066   6.344  72.049  1.00  0.00    -0.197 A  
HETATM   13  C   UNL     1     -10.032   4.951  71.856  1.00  0.00    -0.250 A  
HETATM   14  C   UNL     1      -9.856   4.476  70.553  1.00  0.00    -0.227 A  
HETATM   15  H   UNL     1      -9.618   2.820  69.389  1.00  0.00     0.000 HD 
HETATM   16  C   UNL     1      -9.794   5.348  69.476  1.00  0.00    -0.264 A  
HETATM   17  O   UNL     1      -9.737   3.143  70.275  1.00  0.00    -0.151 OA 
HETATM   18  C   UNL     1      -9.920   6.726  69.680  1.00  0.00    -0.184 A  
BRANCH  13  19
HETATM   19  C   UNL     1     -10.133   4.050  73.058  1.00  0.00    -0.152 C  
HETATM   20  O   UNL     1     -11.473   4.010  73.545  1.00  0.00    -0.244 OA 
HETATM   21  H   UNL     1     -11.537   3.442  74.303  1.00  0.00     0.000 HD 
ENDBRANCH  13  19
ENDBRANCH   8  11
ENDBRANCH   7   8
ENDBRANCH   3   7
TORSDOF 4
ENDMDL
MODEL      222
REMARK 921   NORMALIZED FREE ENERGY PREDICTED BY IDOCK:   -3.08 KCAL/MOL
REMARK 922        TOTAL FREE ENERGY PREDICTED BY IDOCK:   -4.50 KCAL/MOL
REMARK 923 INTER-LIGAND FREE ENERGY PREDICTED BY IDOCK:   -4.24 KCAL/MOL
REMARK 924 INTRA-LIGAND FREE ENERGY PREDICTED BY IDOCK:   -0.27 KCAL/MOL
REMARK 927      BINDING AFFINITY PREDICTED BY RF-SCORE:    0.00 PKD
ROOT
HETATM    1  C   UNL     1      -9.957   6.452  71.483  1.00  0.00    -0.200 C  
HETATM    2  C   UNL     1     -10.349   7.230  70.216  1.00  0.00    -0.210 C  
HETATM    3  N   UNL     1     -11.569   8.033  70.435  1.00  0.00    -0.459 NA 
HETATM    4  C   UNL     1      -9.165   8.075  69.722  1.00  0.00    -0.149 C  
HETATM    5  C   UNL     1     -10.705   6.211  69.113  1.00  0.00    -0.381 C  
HETATM    6  H   UNL     1     -12.424   7.871  69.904  1.00  0.00     0.000 HD 
ENDROOT
BRANCH   3   7
HETATM    7  C   UNL     1     -11.478   9.083  71.466  1.00  0.00    -0.337 C  
BRANCH   7   8
HETATM    8  C   UNL     1     -12.311  10.371  71.177  1.00  0.00    -0.400 C  
HETATM    9  H   UNL     1     -14.121  10.722  70.581  1.00  0.00     0.000 HD 
HETATM   10  O   UNL     1     -13.614   9.938  70.756  1.00  0.00    -0.249 OA 
BRANCH   8  11
HETATM   11  C   UNL     1     -11.705  11.337  70.164  1.00  0.00    -0.429 A  
HETATM   12  C   UNL     1     -10.432  11.082  69.622  1.00  0.00    -0.069 A  
HETATM   13  C   UNL     1      -9.843  11.920  68.658  1.00  0.00    -0.139 A  
HETATM   14  C   UNL     1     -10.508  13.105  68.329  1.00  0.00    -0.250 A  
HETATM   15  H   UNL     1     -10.432  14.822  67.235  1.00  0.00     0.000 HD 
HETATM   16  C   UNL     1     -11.746  13.407  68.878  1.00  0.00    -0.369 A  
HETATM   17  O   UNL     1      -9.980  14.017  67.459  1.00  0.00    -0.232 OA 
HETATM   18  C   UNL     1     -12.356  12.516  69.768  1.00  0.00    -0.085 A  
BRANCH  13  19
HETATM   19  C   UNL     1      -8.512  11.528  68.073  1.00  0.00    -0.148 C  
HETATM   20  O   UNL     1      -7.449  12.197  68.750  1.00  0.00    -0.132 OA 
HETATM   21  H   UNL     1      -6.609  11.950  68.381  1.00  0.00     0.000 HD 
ENDBRANCH  13  19
ENDBRANCH   8  11
ENDBRANCH   7   8
ENDBRANCH   3   7
TORSDOF 4
ENDMDL
MODEL      223
REMARK 921   NORMALIZED FREE ENERGY PREDICTED BY IDOCK:   -3.06 KCAL/MOL
REMARK 922        TOTAL FREE ENERGY PREDICTED BY IDOCK:   -4.49 KCAL/MOL
REMARK 923 INTER-LIGAND FREE ENERGY PREDICTED BY IDOCK:   -4.04 KCAL/MOL
REMARK 924 INTRA-LIGAND FREE ENERGY PREDICTED BY IDOCK:   -0.45 KCAL/MOL
REMARK 927      BINDING AFFINITY PREDICTED BY RF-SCORE:    0.00 PKD
ROOT
HETATM    1  C   UNL     1      -5.308   9.176  66.553  1.00  0.00    -0.041 C  
HETATM    2  C   UNL     1      -6.469   8.461  65.842  1.00  0.00    -0.053 C  
HETATM    3  N   UNL     1      -7.558   8.138  66.787  1.00  0.00    -0.093 NA 
HETATM    4  C   UNL     1      -6.952   9.290  64.644  1.00  0.00    -0.092 C  
HETATM    5  C   UNL     1      -5.952   7.107  65.313  1.00  0.00    -0.037 C  
HETATM    6  H   UNL     1      -7.841   7.176  66.975  1.00  0.00     0.000 HD 
ENDROOT
BRANCH   3   7
HETATM    7  C   UNL     1      -8.213   9.286  67.440  1.00  0.00    -0.117 C  
BRANCH   7   8
HETATM    8  C   UNL     1      -9.769   9.318  67.324  1.00  0.00    -0.167 C  
HETATM    9  H   UNL     1     -11.083   8.322  66.308  1.00  0.00     0.000 HD 
HETATM   10  O   UNL     1     -10.136   8.302  66.379  1.00  0.00    -0.256 OA 
BRANCH   8  11
HETATM   11  C   UNL     1     -10.375  10.664  66.939  1.00  0.00    -0.288 A  
HETATM   12  C   UNL     1     -10.876  11.521  67.936  1.00  0.00    -0.257 A  
HETATM   13  C   UNL     1     -11.413  12.787  67.640  1.00  0.00    -0.387 A  
HETATM   14  C   UNL     1     -11.552  13.139  66.294  1.00  0.00    -0.356 A  
HETATM   15  H   UNL     1     -12.223  14.556  64.992  1.00  0.00     0.000 HD 
HETATM   16  C   UNL     1     -11.105  12.298  65.285  1.00  0.00    -0.359 A  
HETATM   17  O   UNL     1     -12.128  14.316  65.907  1.00  0.00    -0.398 OA 
HETATM   18  C   UNL     1     -10.494  11.081  65.604  1.00  0.00    -0.293 A  
BRANCH  13  19
HETATM   19  C   UNL     1     -11.854  13.671  68.776  1.00  0.00    -0.360 C  
HETATM   20  O   UNL     1     -11.243  13.262  69.998  1.00  0.00    -0.490 OA 
HETATM   21  H   UNL     1     -11.521  13.819  70.715  1.00  0.00     0.000 HD 
ENDBRANCH  13  19
ENDBRANCH   8  11
ENDBRANCH   7   8
ENDBRANCH   3   7
TORSDOF 4
ENDMDL
MODEL      224
REMARK 921   NORMALIZED FREE ENERGY PREDICTED BY IDOCK:   -3.06 KCAL/MOL
REMARK 922        TOTAL FREE ENERGY PREDICTED BY IDOCK:   -4.49 KCAL/MOL
REMARK 923 INTER-LIGAND FREE ENERGY PREDICTED BY IDOCK:   -3.81 KCAL/MOL
REMARK 924 INTRA-LIGAND FREE ENERGY PREDICTED BY IDOCK:   -0.67 KCAL/MOL
REMARK 927      BINDING AFFINITY PREDICTED BY RF-SCORE:    0.00 PKD
ROOT
HETATM    1  C   UNL     1      -8.949   2.522  68.311  1.00  0.00    -0.188 C  
HETATM    2  C   UNL     1      -8.142   3.721  67.787  1.00  0.00    -0.088 C  
HETATM    3  N   UNL     1      -8.832   4.381  66.659  1.00  0.00    -0.112 NA 
HETATM    4  C   UNL     1      -7.823   4.691  68.934  1.00  0.00    -0.071 C  
HETATM    5  C   UNL     1      -6.808   3.195  67.217  1.00  0.00    -0.046 C  
HETATM    6  H   UNL     1      -8.419   4.431  65.729  1.00  0.00     0.000 HD 
ENDROOT
BRANCH   3   7
HETATM    7  C   UNL     1     -10.154   4.963  66.959  1.00  0.00    -0.205 C  
BRANCH   7   8
HETATM    8  C   UNL     1     -10.232   6.518  66.861  1.00  0.00    -0.215 C  
HETATM    9  H   UNL     1      -9.018   7.913  66.284  1.00  0.00     0.000 HD 
HETATM   10  O   UNL     1      -8.970   6.967  66.343  1.00  0.00    -0.145 OA 
BRANCH   8  11
HETATM   11  C   UNL     1     -10.578   7.246  68.157  1.00  0.00    -0.228 A  
HETATM   12  C   UNL     1     -11.044   6.520  69.268  1.00  0.00    -0.393 A  
HETATM   13  C   UNL     1     -11.343   7.136  70.497  1.00  0.00    -0.333 A  
HETATM   14  C   UNL     1     -11.281   8.532  70.561  1.00  0.00    -0.242 A  
HETATM   15  H   UNL     1     -11.580  10.172  71.732  1.00  0.00     0.000 HD 
HETATM   16  C   UNL     1     -10.864   9.279  69.468  1.00  0.00    -0.211 A  
HETATM   17  O   UNL     1     -11.622   9.224  71.688  1.00  0.00    -0.348 OA 
HETATM   18  C   UNL     1     -10.486   8.640  68.283  1.00  0.00    -0.234 A  
BRANCH  13  19
HETATM   19  C   UNL     1     -11.761   6.274  71.658  1.00  0.00    -0.284 C  
HETATM   20  O   UNL     1     -11.449   6.911  72.896  1.00  0.00    -0.467 OA 
HETATM   21  H   UNL     1     -11.713   6.367  73.628  1.00  0.00     0.000 HD 
ENDBRANCH  13  19
ENDBRANCH   8  11
ENDBRANCH   7   8
ENDBRANCH   3   7
TORSDOF 4
ENDMDL
MODEL      225
REMARK 921   NORMALIZED FREE ENERGY PREDICTED BY IDOCK:   -3.06 KCAL/MOL
REMARK 922        TOTAL FREE ENERGY PREDICTED BY IDOCK:   -4.48 KCAL/MOL
REMARK 923 INTER-LIGAND FREE ENERGY PREDICTED BY IDOCK:   -3.78 KCAL/MOL
REMARK 924 INTRA-LIGAND FREE ENERGY PREDICTED BY IDOCK:   -0.70 KCAL/MOL
REMARK 927      BINDING AFFINITY PREDICTED BY RF-SCORE:    0.00 PKD
ROOT
HETATM    1  C   UNL     1      -9.314   2.149  68.185  1.00  0.00    -0.257 C  
HETATM    2  C   UNL     1      -8.383   3.095  67.409  1.00  0.00    -0.084 C  
HETATM    3  N   UNL     1      -9.094   3.749  66.291  1.00  0.00    -0.140 NA 
HETATM    4  C   UNL     1      -7.731   4.104  68.366  1.00  0.00    -0.070 C  
HETATM    5  C   UNL     1      -7.265   2.252  66.764  1.00  0.00    -0.056 C  
HETATM    6  H   UNL     1      -8.816   3.611  65.320  1.00  0.00     0.000 HD 
ENDROOT
BRANCH   3   7
HETATM    7  C   UNL     1     -10.230   4.614  66.661  1.00  0.00    -0.213 C  
BRANCH   7   8
HETATM    8  C   UNL     1     -10.041   6.130  66.343  1.00  0.00    -0.060 C  
HETATM    9  H   UNL     1      -8.608   7.202  65.600  1.00  0.00     0.000 HD 
HETATM   10  O   UNL     1      -8.723   6.279  65.794  1.00  0.00    -0.153 OA 
BRANCH   8  11
HETATM   11  C   UNL     1     -10.253   7.084  67.515  1.00  0.00    -0.257 A  
HETATM   12  C   UNL     1     -10.531   8.442  67.277  1.00  0.00    -0.373 A  
HETATM   13  C   UNL     1     -10.771   9.355  68.319  1.00  0.00    -0.220 A  
HETATM   14  C   UNL     1     -10.606   8.905  69.633  1.00  0.00    -0.226 A  
HETATM   15  H   UNL     1     -10.633   9.430  71.602  1.00  0.00     0.000 HD 
HETATM   16  C   UNL     1     -10.291   7.580  69.900  1.00  0.00    -0.224 A  
HETATM   17  O   UNL     1     -10.745   9.736  70.709  1.00  0.00    -0.303 OA 
HETATM   18  C   UNL     1     -10.144   6.667  68.851  1.00  0.00    -0.178 A  
BRANCH  13  19
HETATM   19  C   UNL     1     -11.139  10.772  67.971  1.00  0.00    -0.299 C  
HETATM   20  O   UNL     1     -12.350  11.152  68.624  1.00  0.00    -0.670 OA 
HETATM   21  H   UNL     1     -12.583  12.046  68.404  1.00  0.00     0.000 HD 
ENDBRANCH  13  19
ENDBRANCH   8  11
ENDBRANCH   7   8
ENDBRANCH   3   7
TORSDOF 4
ENDMDL
MODEL      226
REMARK 921   NORMALIZED FREE ENERGY PREDICTED BY IDOCK:   -3.03 KCAL/MOL
REMARK 922        TOTAL FREE ENERGY PREDICTED BY IDOCK:   -4.45 KCAL/MOL
REMARK 923 INTER-LIGAND FREE ENERGY PREDICTED BY IDOCK:   -3.89 KCAL/MOL
REMARK 924 INTRA-LIGAND FREE ENERGY PREDICTED BY IDOCK:   -0.56 KCAL/MOL
REMARK 927      BINDING AFFINITY PREDICTED BY RF-SCORE:    0.00 PKD
ROOT
HETATM    1  C   UNL     1     -12.160  14.013  66.736  1.00  0.00    -0.480 C  
HETATM    2  C   UNL     1     -10.876  13.477  66.081  1.00  0.00    -0.281 C  
HETATM    3  N   UNL     1      -9.707  13.654  66.968  1.00  0.00    -0.244 NA 
HETATM    4  C   UNL     1     -11.070  12.019  65.642  1.00  0.00    -0.361 C  
HETATM    5  C   UNL     1     -10.584  14.323  64.824  1.00  0.00    -0.434 C  
HETATM    6  H   UNL     1      -8.913  14.235  66.705  1.00  0.00     0.000 HD 
ENDROOT
BRANCH   3   7
HETATM    7  C   UNL     1      -9.758  12.939  68.257  1.00  0.00    -0.217 C  
BRANCH   7   8
HETATM    8  C   UNL     1      -8.468  12.141  68.625  1.00  0.00    -0.005 C  
HETATM    9  H   UNL     1      -6.734  11.893  67.799  1.00  0.00     0.000 HD 
HETATM   10  O   UNL     1      -7.518  12.379  67.575  1.00  0.00    -0.128 OA 
BRANCH   8  11
HETATM   11  C   UNL     1      -8.660  10.645  68.856  1.00  0.00    -0.158 A  
HETATM   12  C   UNL     1      -9.576   9.923  68.070  1.00  0.00    -0.155 A  
HETATM   13  C   UNL     1      -9.766   8.536  68.217  1.00  0.00    -0.171 A  
HETATM   14  C   UNL     1      -9.099   7.894  69.265  1.00  0.00    -0.148 A  
HETATM   15  H   UNL     1      -8.822   6.129  70.245  1.00  0.00     0.000 HD 
HETATM   16  C   UNL     1      -8.220   8.587  70.085  1.00  0.00    -0.121 A  
HETATM   17  O   UNL     1      -9.275   6.565  69.533  1.00  0.00    -0.142 OA 
HETATM   18  C   UNL     1      -7.978   9.947  69.865  1.00  0.00    -0.193 A  
BRANCH  13  19
HETATM   19  C   UNL     1     -10.708   7.830  67.281  1.00  0.00    -0.255 C  
HETATM   20  O   UNL     1      -9.983   7.044  66.336  1.00  0.00    -0.397 OA 
HETATM   21  H   UNL     1     -10.577   6.598  65.744  1.00  0.00     0.000 HD 
ENDBRANCH  13  19
ENDBRANCH   8  11
ENDBRANCH   7   8
ENDBRANCH   3   7
TORSDOF 4
ENDMDL
MODEL      227
REMARK 921   NORMALIZED FREE ENERGY PREDICTED BY IDOCK:   -3.03 KCAL/MOL
REMARK 922        TOTAL FREE ENERGY PREDICTED BY IDOCK:   -4.44 KCAL/MOL
REMARK 923 INTER-LIGAND FREE ENERGY PREDICTED BY IDOCK:   -3.93 KCAL/MOL
REMARK 924 INTRA-LIGAND FREE ENERGY PREDICTED BY IDOCK:   -0.51 KCAL/MOL
REMARK 927      BINDING AFFINITY PREDICTED BY RF-SCORE:    0.00 PKD
ROOT
HETATM    1  C   UNL     1      -9.166  14.936  68.517  1.00  0.00    -0.192 C  
HETATM    2  C   UNL     1      -8.745  14.790  67.046  1.00  0.00    -0.235 C  
HETATM    3  N   UNL     1      -8.105  13.481  66.798  1.00  0.00    -0.374 NA 
HETATM    4  C   UNL     1      -9.943  15.047  66.120  1.00  0.00    -0.313 C  
HETATM    5  C   UNL     1      -7.667  15.851  66.743  1.00  0.00    -0.245 C  
HETATM    6  H   UNL     1      -7.139  13.403  66.484  1.00  0.00     0.000 HD 
ENDROOT
BRANCH   3   7
HETATM    7  C   UNL     1      -8.947  12.293  67.033  1.00  0.00    -0.204 C  
BRANCH   7   8
HETATM    8  C   UNL     1      -8.182  11.022  67.517  1.00  0.00    -0.117 C  
HETATM    9  H   UNL     1      -7.045   9.705  66.665  1.00  0.00     0.000 HD 
HETATM   10  O   UNL     1      -7.511  10.478  66.370  1.00  0.00    -0.119 OA 
BRANCH   8  11
HETATM   11  C   UNL     1      -9.033   9.959  68.204  1.00  0.00    -0.118 A  
HETATM   12  C   UNL     1      -9.922  10.325  69.231  1.00  0.00    -0.244 A  
HETATM   13  C   UNL     1     -10.757   9.391  69.872  1.00  0.00    -0.258 A  
HETATM   14  C   UNL     1     -10.597   8.040  69.547  1.00  0.00    -0.214 A  
HETATM   15  H   UNL     1     -11.200   6.136  69.947  1.00  0.00     0.000 HD 
HETATM   16  C   UNL     1      -9.698   7.643  68.567  1.00  0.00    -0.162 A  
HETATM   17  O   UNL     1     -11.309   7.053  70.168  1.00  0.00    -0.287 OA 
HETATM   18  C   UNL     1      -8.941   8.597  67.878  1.00  0.00    -0.142 A  
BRANCH  13  19
HETATM   19  C   UNL     1     -11.735   9.882  70.905  1.00  0.00    -0.364 C  
HETATM   20  O   UNL     1     -11.613   9.128  72.111  1.00  0.00    -0.342 OA 
HETATM   21  H   UNL     1     -12.230   9.438  72.763  1.00  0.00     0.000 HD 
ENDBRANCH  13  19
ENDBRANCH   8  11
ENDBRANCH   7   8
ENDBRANCH   3   7
TORSDOF 4
ENDMDL
MODEL      228
REMARK 921   NORMALIZED FREE ENERGY PREDICTED BY IDOCK:   -3.02 KCAL/MOL
REMARK 922        TOTAL FREE ENERGY PREDICTED BY IDOCK:   -4.44 KCAL/MOL
REMARK 923 INTER-LIGAND FREE ENERGY PREDICTED BY IDOCK:   -4.06 KCAL/MOL
REMARK 924 INTRA-LIGAND FREE ENERGY PREDICTED BY IDOCK:   -0.38 KCAL/MOL
REMARK 927      BINDING AFFINITY PREDICTED BY RF-SCORE:    0.00 PKD
ROOT
HETATM    1  C   UNL     1     -12.997  11.283  71.893  1.00  0.00    -0.471 C  
HETATM    2  C   UNL     1     -12.668   9.929  71.244  1.00  0.00    -0.383 C  
HETATM    3  N   UNL     1     -12.265  10.095  69.832  1.00  0.00    -0.498 NA 
HETATM    4  C   UNL     1     -11.615   9.181  72.074  1.00  0.00    -0.371 C  
HETATM    5  C   UNL     1     -13.955   9.079  71.220  1.00  0.00    -0.195 C  
HETATM    6  H   UNL     1     -12.798   9.682  69.067  1.00  0.00     0.000 HD 
ENDROOT
BRANCH   3   7
HETATM    7  C   UNL     1     -11.048  10.893  69.593  1.00  0.00    -0.266 C  
BRANCH   7   8
HETATM    8  C   UNL     1     -10.440  10.764  68.162  1.00  0.00    -0.185 C  
HETATM    9  H   UNL     1     -11.172  10.652  66.372  1.00  0.00     0.000 HD 
HETATM   10  O   UNL     1     -11.542  10.730  67.243  1.00  0.00    -0.439 OA 
BRANCH   8  11
HETATM   11  C   UNL     1      -9.511   9.574  67.943  1.00  0.00    -0.149 A  
HETATM   12  C   UNL     1      -9.978   8.432  67.267  1.00  0.00    -0.291 A  
HETATM   13  C   UNL     1      -9.154   7.322  67.006  1.00  0.00    -0.152 A  
HETATM   14  C   UNL     1      -7.865   7.324  67.549  1.00  0.00    -0.112 A  
HETATM   15  H   UNL     1      -6.141   6.263  67.780  1.00  0.00     0.000 HD 
HETATM   16  C   UNL     1      -7.389   8.419  68.256  1.00  0.00    -0.095 A  
HETATM   17  O   UNL     1      -7.017   6.261  67.412  1.00  0.00    -0.064 OA 
HETATM   18  C   UNL     1      -8.195   9.549  68.428  1.00  0.00    -0.113 A  
BRANCH  13  19
HETATM   19  C   UNL     1      -9.713   6.175  66.208  1.00  0.00    -0.061 C  
HETATM   20  O   UNL     1     -10.402   5.260  67.058  1.00  0.00    -0.212 OA 
HETATM   21  H   UNL     1     -10.755   4.535  66.554  1.00  0.00     0.000 HD 
ENDBRANCH  13  19
ENDBRANCH   8  11
ENDBRANCH   7   8
ENDBRANCH   3   7
TORSDOF 4
ENDMDL
MODEL      229
REMARK 921   NORMALIZED FREE ENERGY PREDICTED BY IDOCK:   -3.00 KCAL/MOL
REMARK 922        TOTAL FREE ENERGY PREDICTED BY IDOCK:   -4.41 KCAL/MOL
REMARK 923 INTER-LIGAND FREE ENERGY PREDICTED BY IDOCK:   -3.69 KCAL/MOL
REMARK 924 INTRA-LIGAND FREE ENERGY PREDICTED BY IDOCK:   -0.72 KCAL/MOL
REMARK 927      BINDING AFFINITY PREDICTED BY RF-SCORE:    0.00 PKD
ROOT
HETATM    1  C   UNL     1     -11.586  13.266  67.289  1.00  0.00    -0.404 C  
HETATM    2  C   UNL     1     -10.433  13.045  66.297  1.00  0.00    -0.276 C  
HETATM    3  N   UNL     1      -9.144  12.881  67.000  1.00  0.00    -0.222 NA 
HETATM    4  C   UNL     1     -10.751  11.867  65.364  1.00  0.00    -0.330 C  
HETATM    5  C   UNL     1     -10.286  14.315  65.434  1.00  0.00    -0.395 C  
HETATM    6  H   UNL     1      -8.370  13.531  66.866  1.00  0.00     0.000 HD 
ENDROOT
BRANCH   3   7
HETATM    7  C   UNL     1      -9.042  11.722  67.906  1.00  0.00    -0.181 C  
BRANCH   7   8
HETATM    8  C   UNL     1      -7.815  10.790  67.657  1.00  0.00    -0.109 C  
HETATM    9  H   UNL     1      -6.149  10.956  66.683  1.00  0.00     0.000 HD 
HETATM   10  O   UNL     1      -6.896  11.524  66.834  1.00  0.00    -0.131 OA 
BRANCH   8  11
HETATM   11  C   UNL     1      -8.133   9.431  67.041  1.00  0.00    -0.105 A  
HETATM   12  C   UNL     1      -9.326   8.767  67.377  1.00  0.00    -0.166 A  
HETATM   13  C   UNL     1      -9.684   7.530  66.811  1.00  0.00    -0.283 A  
HETATM   14  C   UNL     1      -8.755   6.899  65.978  1.00  0.00    -0.141 A  
HETATM   15  H   UNL     1      -8.350   5.235  64.874  1.00  0.00     0.000 HD 
HETATM   16  C   UNL     1      -7.550   7.510  65.660  1.00  0.00    -0.091 A  
HETATM   17  O   UNL     1      -8.982   5.664  65.440  1.00  0.00    -0.148 OA 
HETATM   18  C   UNL     1      -7.252   8.780  66.163  1.00  0.00    -0.085 A  
BRANCH  13  19
HETATM   19  C   UNL     1     -11.016   6.927  67.168  1.00  0.00    -0.357 C  
HETATM   20  O   UNL     1     -10.895   5.520  67.368  1.00  0.00    -0.266 OA 
HETATM   21  H   UNL     1     -11.736   5.140  67.594  1.00  0.00     0.000 HD 
ENDBRANCH  13  19
ENDBRANCH   8  11
ENDBRANCH   7   8
ENDBRANCH   3   7
TORSDOF 4
ENDMDL
MODEL      230
REMARK 921   NORMALIZED FREE ENERGY PREDICTED BY IDOCK:   -3.00 KCAL/MOL
REMARK 922        TOTAL FREE ENERGY PREDICTED BY IDOCK:   -4.41 KCAL/MOL
REMARK 923 INTER-LIGAND FREE ENERGY PREDICTED BY IDOCK:   -4.06 KCAL/MOL
REMARK 924 INTRA-LIGAND FREE ENERGY PREDICTED BY IDOCK:   -0.35 KCAL/MOL
REMARK 927      BINDING AFFINITY PREDICTED BY RF-SCORE:    0.00 PKD
ROOT
HETATM    1  C   UNL     1      -6.295   9.180  67.407  1.00  0.00    -0.059 C  
HETATM    2  C   UNL     1      -6.578   9.814  68.779  1.00  0.00    -0.046 C  
HETATM    3  N   UNL     1      -7.943  10.375  68.839  1.00  0.00    -0.113 NA 
HETATM    4  C   UNL     1      -6.304   8.803  69.901  1.00  0.00    -0.037 C  
HETATM    5  C   UNL     1      -5.621  11.010  68.965  1.00  0.00    -0.040 C  
HETATM    6  H   UNL     1      -8.112  11.370  68.987  1.00  0.00     0.000 HD 
ENDROOT
BRANCH   3   7
HETATM    7  C   UNL     1      -9.048   9.412  68.674  1.00  0.00    -0.132 C  
BRANCH   7   8
HETATM    8  C   UNL     1     -10.353  10.000  68.052  1.00  0.00    -0.198 C  
HETATM    9  H   UNL     1     -10.782  10.949  66.419  1.00  0.00     0.000 HD 
HETATM   10  O   UNL     1      -9.987  10.591  66.797  1.00  0.00    -0.189 OA 
BRANCH   8  11
HETATM   11  C   UNL     1     -11.110  10.997  68.925  1.00  0.00    -0.295 A  
HETATM   12  C   UNL     1     -11.137  12.359  68.574  1.00  0.00    -0.296 A  
HETATM   13  C   UNL     1     -11.849  13.315  69.323  1.00  0.00    -0.383 A  
HETATM   14  C   UNL     1     -12.444  12.897  70.517  1.00  0.00    -0.217 A  
HETATM   15  H   UNL     1     -13.500  13.482  72.159  1.00  0.00     0.000 HD 
HETATM   16  C   UNL     1     -12.400  11.568  70.912  1.00  0.00    -0.460 A  
HETATM   17  O   UNL     1     -13.095  13.766  71.348  1.00  0.00    -0.342 OA 
HETATM   18  C   UNL     1     -11.762  10.617  70.108  1.00  0.00    -0.417 A  
BRANCH  13  19
HETATM   19  C   UNL     1     -11.890  14.737  68.832  1.00  0.00    -0.296 C  
HETATM   20  O   UNL     1     -12.392  14.794  67.498  1.00  0.00    -0.536 OA 
HETATM   21  H   UNL     1     -12.418  15.691  67.187  1.00  0.00     0.000 HD 
ENDBRANCH  13  19
ENDBRANCH   8  11
ENDBRANCH   7   8
ENDBRANCH   3   7
TORSDOF 4
ENDMDL
MODEL      231
REMARK 921   NORMALIZED FREE ENERGY PREDICTED BY IDOCK:   -2.99 KCAL/MOL
REMARK 922        TOTAL FREE ENERGY PREDICTED BY IDOCK:   -4.40 KCAL/MOL
REMARK 923 INTER-LIGAND FREE ENERGY PREDICTED BY IDOCK:   -5.35 KCAL/MOL
REMARK 924 INTRA-LIGAND FREE ENERGY PREDICTED BY IDOCK:    0.96 KCAL/MOL
REMARK 927      BINDING AFFINITY PREDICTED BY RF-SCORE:    0.00 PKD
ROOT
HETATM    1  C   UNL     1     -10.213  12.344  64.408  1.00  0.00    -0.342 C  
HETATM    2  C   UNL     1     -11.692  12.744  64.534  1.00  0.00    -0.366 C  
HETATM    3  N   UNL     1     -12.292  12.202  65.770  1.00  0.00    -0.450 NA 
HETATM    4  C   UNL     1     -11.844  14.268  64.422  1.00  0.00    -0.444 C  
HETATM    5  C   UNL     1     -12.469  12.097  63.368  1.00  0.00    -0.625 C  
HETATM    6  H   UNL     1     -13.068  11.541  65.749  1.00  0.00     0.000 HD 
ENDROOT
BRANCH   3   7
HETATM    7  C   UNL     1     -11.702  12.672  67.038  1.00  0.00    -0.369 C  
BRANCH   7   8
HETATM    8  C   UNL     1     -10.287  13.317  66.912  1.00  0.00    -0.255 C  
HETATM    9  H   UNL     1      -8.512  12.848  67.531  1.00  0.00     0.000 HD 
HETATM   10  O   UNL     1      -9.373  12.455  67.608  1.00  0.00    -0.177 OA 
BRANCH   8  11
HETATM   11  C   UNL     1     -10.168  14.754  67.412  1.00  0.00    -0.236 A  
HETATM   12  C   UNL     1      -8.914  15.391  67.430  1.00  0.00    -0.202 A  
HETATM   13  C   UNL     1      -8.754  16.726  67.846  1.00  0.00    -0.203 A  
HETATM   14  C   UNL     1      -9.872  17.385  68.368  1.00  0.00    -0.316 A  
HETATM   15  H   UNL     1     -10.558  19.105  69.219  1.00  0.00     0.000 HD 
HETATM   16  C   UNL     1     -11.114  16.769  68.403  1.00  0.00    -0.266 A  
HETATM   17  O   UNL     1      -9.799  18.656  68.865  1.00  0.00    -0.382 OA 
HETATM   18  C   UNL     1     -11.270  15.472  67.901  1.00  0.00    -0.325 A  
BRANCH  13  19
HETATM   19  C   UNL     1      -7.390  17.354  67.759  1.00  0.00    -0.177 C  
HETATM   20  O   UNL     1      -6.791  17.082  66.493  1.00  0.00    -0.219 OA 
HETATM   21  H   UNL     1      -5.930  17.478  66.437  1.00  0.00     0.000 HD 
ENDBRANCH  13  19
ENDBRANCH   8  11
ENDBRANCH   7   8
ENDBRANCH   3   7
TORSDOF 4
ENDMDL
MODEL      232
REMARK 921   NORMALIZED FREE ENERGY PREDICTED BY IDOCK:   -2.98 KCAL/MOL
REMARK 922        TOTAL FREE ENERGY PREDICTED BY IDOCK:   -4.39 KCAL/MOL
REMARK 923 INTER-LIGAND FREE ENERGY PREDICTED BY IDOCK:   -4.06 KCAL/MOL
REMARK 924 INTRA-LIGAND FREE ENERGY PREDICTED BY IDOCK:   -0.33 KCAL/MOL
REMARK 927      BINDING AFFINITY PREDICTED BY RF-SCORE:    0.00 PKD
ROOT
HETATM    1  C   UNL     1      -7.772   7.682  70.051  1.00  0.00    -0.092 C  
HETATM    2  C   UNL     1      -8.740   8.475  70.945  1.00  0.00    -0.166 C  
HETATM    3  N   UNL     1      -8.752   9.908  70.584  1.00  0.00    -0.357 NA 
HETATM    4  C   UNL     1     -10.139   7.843  70.907  1.00  0.00    -0.205 C  
HETATM    5  C   UNL     1      -8.222   8.409  72.397  1.00  0.00    -0.202 C  
HETATM    6  H   UNL     1      -8.463  10.632  71.241  1.00  0.00     0.000 HD 
ENDROOT
BRANCH   3   7
HETATM    7  C   UNL     1      -9.207  10.229  69.219  1.00  0.00    -0.202 C  
BRANCH   7   8
HETATM    8  C   UNL     1      -8.151  10.942  68.318  1.00  0.00    -0.124 C  
HETATM    9  H   UNL     1      -6.363  11.634  68.595  1.00  0.00     0.000 HD 
HETATM   10  O   UNL     1      -7.005  11.200  69.144  1.00  0.00    -0.088 OA 
BRANCH   8  11
HETATM   11  C   UNL     1      -8.623  12.218  67.628  1.00  0.00    -0.169 A  
HETATM   12  C   UNL     1      -9.701  12.172  66.726  1.00  0.00    -0.215 A  
HETATM   13  C   UNL     1     -10.201  13.325  66.091  1.00  0.00    -0.296 A  
HETATM   14  C   UNL     1      -9.513  14.527  66.284  1.00  0.00    -0.283 A  
HETATM   15  H   UNL     1      -9.411  16.500  65.785  1.00  0.00     0.000 HD 
HETATM   16  C   UNL     1      -8.420  14.596  67.136  1.00  0.00    -0.244 A  
HETATM   17  O   UNL     1      -9.878  15.683  65.653  1.00  0.00    -0.330 OA 
HETATM   18  C   UNL     1      -7.994  13.457  67.827  1.00  0.00    -0.167 A  
BRANCH  13  19
HETATM   19  C   UNL     1     -11.408  13.197  65.201  1.00  0.00    -0.296 C  
HETATM   20  O   UNL     1     -12.378  12.334  65.791  1.00  0.00    -0.622 OA 
HETATM   21  H   UNL     1     -13.140  12.253  65.230  1.00  0.00     0.000 HD 
ENDBRANCH  13  19
ENDBRANCH   8  11
ENDBRANCH   7   8
ENDBRANCH   3   7
TORSDOF 4
ENDMDL
MODEL      233
REMARK 921   NORMALIZED FREE ENERGY PREDICTED BY IDOCK:   -2.98 KCAL/MOL
REMARK 922        TOTAL FREE ENERGY PREDICTED BY IDOCK:   -4.38 KCAL/MOL
REMARK 923 INTER-LIGAND FREE ENERGY PREDICTED BY IDOCK:   -4.00 KCAL/MOL
REMARK 924 INTRA-LIGAND FREE ENERGY PREDICTED BY IDOCK:   -0.39 KCAL/MOL
REMARK 927      BINDING AFFINITY PREDICTED BY RF-SCORE:    0.00 PKD
ROOT
HETATM    1  C   UNL     1      -9.274  11.612  67.622  1.00  0.00    -0.178 C  
HETATM    2  C   UNL     1     -10.514  12.257  68.263  1.00  0.00    -0.226 C  
HETATM    3  N   UNL     1     -10.156  13.482  69.007  1.00  0.00    -0.427 NA 
HETATM    4  C   UNL     1     -11.596  12.504  67.203  1.00  0.00    -0.437 C  
HETATM    5  C   UNL     1     -11.082  11.277  69.311  1.00  0.00    -0.314 C  
HETATM    6  H   UNL     1     -10.304  13.565  70.013  1.00  0.00     0.000 HD 
ENDROOT
BRANCH   3   7
HETATM    7  C   UNL     1      -9.575  14.579  68.211  1.00  0.00    -0.212 C  
BRANCH   7   8
HETATM    8  C   UNL     1      -8.025  14.730  68.322  1.00  0.00    -0.130 C  
HETATM    9  H   UNL     1      -6.683  14.146  69.591  1.00  0.00     0.000 HD 
HETATM   10  O   UNL     1      -7.626  14.054  69.524  1.00  0.00     0.101 OA 
BRANCH   8  11
HETATM   11  C   UNL     1      -7.498  16.162  68.302  1.00  0.00    -0.145 A  
HETATM   12  C   UNL     1      -8.339  17.216  67.901  1.00  0.00    -0.207 A  
HETATM   13  C   UNL     1      -7.915  18.558  67.899  1.00  0.00    -0.270 A  
HETATM   14  C   UNL     1      -6.574  18.819  68.196  1.00  0.00    -0.222 A  
HETATM   15  H   UNL     1      -5.140  20.259  68.351  1.00  0.00     0.000 HD 
HETATM   16  C   UNL     1      -5.708  17.796  68.556  1.00  0.00    -0.168 A  
HETATM   17  O   UNL     1      -6.051  20.081  68.149  1.00  0.00    -0.228 OA 
HETATM   18  C   UNL     1      -6.173  16.479  68.638  1.00  0.00    -0.136 A  
BRANCH  13  19
HETATM   19  C   UNL     1      -8.904  19.630  67.530  1.00  0.00    -0.311 C  
HETATM   20  O   UNL     1      -8.582  20.196  66.261  1.00  0.00    -0.487 OA 
HETATM   21  H   UNL     1      -9.206  20.873  66.027  1.00  0.00     0.000 HD 
ENDBRANCH  13  19
ENDBRANCH   8  11
ENDBRANCH   7   8
ENDBRANCH   3   7
TORSDOF 4
ENDMDL
MODEL      234
REMARK 921   NORMALIZED FREE ENERGY PREDICTED BY IDOCK:   -2.96 KCAL/MOL
REMARK 922        TOTAL FREE ENERGY PREDICTED BY IDOCK:   -4.36 KCAL/MOL
REMARK 923 INTER-LIGAND FREE ENERGY PREDICTED BY IDOCK:   -3.84 KCAL/MOL
REMARK 924 INTRA-LIGAND FREE ENERGY PREDICTED BY IDOCK:   -0.52 KCAL/MOL
REMARK 927      BINDING AFFINITY PREDICTED BY RF-SCORE:    0.00 PKD
ROOT
HETATM    1  C   UNL     1      -7.569   9.755  67.225  1.00  0.00    -0.088 C  
HETATM    2  C   UNL     1      -7.846  11.179  67.735  1.00  0.00    -0.114 C  
HETATM    3  N   UNL     1      -8.557  11.983  66.720  1.00  0.00    -0.224 NA 
HETATM    4  C   UNL     1      -8.589  11.129  69.078  1.00  0.00    -0.033 C  
HETATM    5  C   UNL     1      -6.492  11.883  67.961  1.00  0.00    -0.055 C  
HETATM    6  H   UNL     1      -8.149  12.826  66.317  1.00  0.00     0.000 HD 
ENDROOT
BRANCH   3   7
HETATM    7  C   UNL     1      -9.892  11.497  66.325  1.00  0.00    -0.217 C  
BRANCH   7   8
HETATM    8  C   UNL     1     -10.916  12.609  65.938  1.00  0.00    -0.278 C  
HETATM    9  H   UNL     1     -11.268  13.645  64.339  1.00  0.00     0.000 HD 
HETATM   10  O   UNL     1     -10.645  12.968  64.575  1.00  0.00    -0.348 OA 
BRANCH   8  11
HETATM   11  C   UNL     1     -10.923  13.843  66.835  1.00  0.00    -0.300 A  
HETATM   12  C   UNL     1     -11.311  13.730  68.183  1.00  0.00    -0.315 A  
HETATM   13  C   UNL     1     -11.301  14.828  69.063  1.00  0.00    -0.295 A  
HETATM   14  C   UNL     1     -11.007  16.088  68.532  1.00  0.00    -0.326 A  
HETATM   15  H   UNL     1     -10.842  18.079  68.931  1.00  0.00     0.000 HD 
HETATM   16  C   UNL     1     -10.660  16.238  67.196  1.00  0.00    -0.291 A  
HETATM   17  O   UNL     1     -11.043  17.224  69.291  1.00  0.00     0.068 OA 
HETATM   18  C   UNL     1     -10.590  15.120  66.359  1.00  0.00    -0.305 A  
BRANCH  13  19
HETATM   19  C   UNL     1     -11.656  14.603  70.508  1.00  0.00    -0.263 C  
HETATM   20  O   UNL     1     -12.115  13.267  70.710  1.00  0.00    -0.455 OA 
HETATM   21  H   UNL     1     -12.339  13.125  71.622  1.00  0.00     0.000 HD 
ENDBRANCH  13  19
ENDBRANCH   8  11
ENDBRANCH   7   8
ENDBRANCH   3   7
TORSDOF 4
ENDMDL
MODEL      235
REMARK 921   NORMALIZED FREE ENERGY PREDICTED BY IDOCK:   -2.95 KCAL/MOL
REMARK 922        TOTAL FREE ENERGY PREDICTED BY IDOCK:   -4.34 KCAL/MOL
REMARK 923 INTER-LIGAND FREE ENERGY PREDICTED BY IDOCK:   -3.77 KCAL/MOL
REMARK 924 INTRA-LIGAND FREE ENERGY PREDICTED BY IDOCK:   -0.57 KCAL/MOL
REMARK 927      BINDING AFFINITY PREDICTED BY RF-SCORE:    0.00 PKD
ROOT
HETATM    1  C   UNL     1      -6.967  11.799  66.997  1.00  0.00    -0.135 C  
HETATM    2  C   UNL     1      -7.419  12.764  68.106  1.00  0.00    -0.124 C  
HETATM    3  N   UNL     1      -8.881  12.701  68.310  1.00  0.00    -0.235 NA 
HETATM    4  C   UNL     1      -6.630  12.500  69.396  1.00  0.00    -0.073 C  
HETATM    5  C   UNL     1      -7.117  14.205  67.644  1.00  0.00    -0.199 C  
HETATM    6  H   UNL     1      -9.482  13.510  68.156  1.00  0.00     0.000 HD 
ENDROOT
BRANCH   3   7
HETATM    7  C   UNL     1      -9.419  11.400  68.749  1.00  0.00    -0.119 C  
BRANCH   7   8
HETATM    8  C   UNL     1     -10.500  10.778  67.812  1.00  0.00    -0.208 C  
HETATM    9  H   UNL     1     -11.501   9.120  67.793  1.00  0.00     0.000 HD 
HETATM   10  O   UNL     1     -10.843   9.498  68.364  1.00  0.00    -0.207 OA 
BRANCH   8  11
HETATM   11  C   UNL     1     -10.107  10.650  66.343  1.00  0.00    -0.279 A  
HETATM   12  C   UNL     1      -9.221   9.635  65.938  1.00  0.00    -0.246 A  
HETATM   13  C   UNL     1      -8.854   9.449  64.592  1.00  0.00    -0.238 A  
HETATM   14  C   UNL     1      -9.302  10.389  63.658  1.00  0.00    -0.291 A  
HETATM   15  H   UNL     1      -9.243  10.973  61.706  1.00  0.00     0.000 HD 
HETATM   16  C   UNL     1     -10.143  11.426  64.034  1.00  0.00    -0.369 A  
HETATM   17  O   UNL     1      -8.939  10.335  62.341  1.00  0.00    -0.208 OA 
HETATM   18  C   UNL     1     -10.568  11.541  65.361  1.00  0.00    -0.336 A  
BRANCH  13  19
HETATM   19  C   UNL     1      -7.964   8.289  64.237  1.00  0.00    -0.148 C  
HETATM   20  O   UNL     1      -8.607   7.433  63.295  1.00  0.00    -0.355 OA 
HETATM   21  H   UNL     1      -8.045   6.700  63.070  1.00  0.00     0.000 HD 
ENDBRANCH  13  19
ENDBRANCH   8  11
ENDBRANCH   7   8
ENDBRANCH   3   7
TORSDOF 4
ENDMDL
MODEL      236
REMARK 921   NORMALIZED FREE ENERGY PREDICTED BY IDOCK:   -2.92 KCAL/MOL
REMARK 922        TOTAL FREE ENERGY PREDICTED BY IDOCK:   -4.32 KCAL/MOL
REMARK 923 INTER-LIGAND FREE ENERGY PREDICTED BY IDOCK:   -3.80 KCAL/MOL
REMARK 924 INTRA-LIGAND FREE ENERGY PREDICTED BY IDOCK:   -0.52 KCAL/MOL
REMARK 927      BINDING AFFINITY PREDICTED BY RF-SCORE:    0.00 PKD
ROOT
HETATM    1  C   UNL     1     -11.846  14.872  67.761  1.00  0.00    -0.277 C  
HETATM    2  C   UNL     1     -10.618  15.703  68.170  1.00  0.00    -0.274 C  
HETATM    3  N   UNL     1      -9.466  14.834  68.490  1.00  0.00    -0.208 NA 
HETATM    4  C   UNL     1     -10.292  16.742  67.087  1.00  0.00    -0.297 C  
HETATM    5  C   UNL     1     -10.955  16.455  69.473  1.00  0.00    -0.317 C  
HETATM    6  H   UNL     1      -9.045  14.817  69.418  1.00  0.00     0.000 HD 
ENDROOT
BRANCH   3   7
HETATM    7  C   UNL     1      -8.960  13.996  67.387  1.00  0.00    -0.206 C  
BRANCH   7   8
HETATM    8  C   UNL     1      -9.147  12.459  67.583  1.00  0.00    -0.186 C  
HETATM    9  H   UNL     1      -8.249  11.094  68.625  1.00  0.00     0.000 HD 
HETATM   10  O   UNL     1      -8.135  12.030  68.506  1.00  0.00    -0.151 OA 
BRANCH   8  11
HETATM   11  C   UNL     1      -9.112  11.621  66.308  1.00  0.00    -0.219 A  
HETATM   12  C   UNL     1      -7.928  10.962  65.932  1.00  0.00    -0.105 A  
HETATM   13  C   UNL     1      -7.851  10.148  64.787  1.00  0.00    -0.146 A  
HETATM   14  C   UNL     1      -8.965  10.101  63.943  1.00  0.00    -0.244 A  
HETATM   15  H   UNL     1      -9.717   9.365  62.198  1.00  0.00     0.000 HD 
HETATM   16  C   UNL     1     -10.134  10.774  64.265  1.00  0.00    -0.427 A  
HETATM   17  O   UNL     1      -8.960   9.397  62.771  1.00  0.00    -0.243 OA 
HETATM   18  C   UNL     1     -10.219  11.506  65.454  1.00  0.00    -0.311 A  
BRANCH  13  19
HETATM   19  C   UNL     1      -6.567   9.416  64.502  1.00  0.00    -0.089 C  
HETATM   20  O   UNL     1      -6.088   9.730  63.195  1.00  0.00    -0.101 OA 
HETATM   21  H   UNL     1      -5.277   9.269  63.015  1.00  0.00     0.000 HD 
ENDBRANCH  13  19
ENDBRANCH   8  11
ENDBRANCH   7   8
ENDBRANCH   3   7
TORSDOF 4
ENDMDL
MODEL      237
REMARK 921   NORMALIZED FREE ENERGY PREDICTED BY IDOCK:   -2.90 KCAL/MOL
REMARK 922        TOTAL FREE ENERGY PREDICTED BY IDOCK:   -4.29 KCAL/MOL
REMARK 923 INTER-LIGAND FREE ENERGY PREDICTED BY IDOCK:   -3.99 KCAL/MOL
REMARK 924 INTRA-LIGAND FREE ENERGY PREDICTED BY IDOCK:   -0.30 KCAL/MOL
REMARK 927      BINDING AFFINITY PREDICTED BY RF-SCORE:    0.00 PKD
ROOT
HETATM    1  C   UNL     1     -10.202   8.790  71.959  1.00  0.00    -0.401 C  
HETATM    2  C   UNL     1     -11.448   8.566  71.087  1.00  0.00    -0.276 C  
HETATM    3  N   UNL     1     -11.238   9.066  69.712  1.00  0.00    -0.423 NA 
HETATM    4  C   UNL     1     -11.865   7.089  71.122  1.00  0.00    -0.380 C  
HETATM    5  C   UNL     1     -12.604   9.406  71.670  1.00  0.00    -0.460 C  
HETATM    6  H   UNL     1     -11.804   9.817  69.318  1.00  0.00     0.000 HD 
ENDROOT
BRANCH   3   7
HETATM    7  C   UNL     1     -10.161   8.415  68.943  1.00  0.00    -0.199 C  
BRANCH   7   8
HETATM    8  C   UNL     1     -10.594   7.820  67.567  1.00  0.00    -0.248 C  
HETATM    9  H   UNL     1     -11.275   6.107  66.972  1.00  0.00     0.000 HD 
HETATM   10  O   UNL     1     -11.011   6.468  67.809  1.00  0.00    -0.296 OA 
BRANCH   8  11
HETATM   11  C   UNL     1      -9.543   7.876  66.462  1.00  0.00    -0.281 A  
HETATM   12  C   UNL     1      -8.817   6.721  66.123  1.00  0.00    -0.161 A  
HETATM   13  C   UNL     1      -7.863   6.708  65.088  1.00  0.00    -0.115 A  
HETATM   14  C   UNL     1      -7.556   7.924  64.468  1.00  0.00    -0.111 A  
HETATM   15  H   UNL     1      -6.384   8.850  63.083  1.00  0.00     0.000 HD 
HETATM   16  C   UNL     1      -8.226   9.090  64.810  1.00  0.00    -0.161 A  
HETATM   17  O   UNL     1      -6.592   8.025  63.505  1.00  0.00    -0.070 OA 
HETATM   18  C   UNL     1      -9.234   9.063  65.779  1.00  0.00    -0.293 A  
BRANCH  13  19
HETATM   19  C   UNL     1      -7.189   5.409  64.739  1.00  0.00    -0.062 C  
HETATM   20  O   UNL     1      -6.691   4.770  65.913  1.00  0.00    -0.050 OA 
HETATM   21  H   UNL     1      -6.265   3.949  65.694  1.00  0.00     0.000 HD 
ENDBRANCH  13  19
ENDBRANCH   8  11
ENDBRANCH   7   8
ENDBRANCH   3   7
TORSDOF 4
ENDMDL
MODEL      238
REMARK 921   NORMALIZED FREE ENERGY PREDICTED BY IDOCK:   -2.90 KCAL/MOL
REMARK 922        TOTAL FREE ENERGY PREDICTED BY IDOCK:   -4.29 KCAL/MOL
REMARK 923 INTER-LIGAND FREE ENERGY PREDICTED BY IDOCK:   -4.02 KCAL/MOL
REMARK 924 INTRA-LIGAND FREE ENERGY PREDICTED BY IDOCK:   -0.27 KCAL/MOL
REMARK 927      BINDING AFFINITY PREDICTED BY RF-SCORE:    0.00 PKD
ROOT
HETATM    1  C   UNL     1      -5.126  18.627  65.182  1.00  0.00    -0.202 C  
HETATM    2  C   UNL     1      -6.426  19.294  65.660  1.00  0.00    -0.244 C  
HETATM    3  N   UNL     1      -7.606  18.465  65.335  1.00  0.00    -0.255 NA 
HETATM    4  C   UNL     1      -6.334  19.631  67.155  1.00  0.00    -0.203 C  
HETATM    5  C   UNL     1      -6.608  20.613  64.881  1.00  0.00    -0.274 C  
HETATM    6  H   UNL     1      -8.343  18.796  64.713  1.00  0.00     0.000 HD 
ENDROOT
BRANCH   3   7
HETATM    7  C   UNL     1      -7.655  17.132  65.964  1.00  0.00    -0.150 C  
BRANCH   7   8
HETATM    8  C   UNL     1      -8.836  16.911  66.959  1.00  0.00    -0.212 C  
HETATM    9  H   UNL     1      -9.036  16.997  68.884  1.00  0.00     0.000 HD 
HETATM   10  O   UNL     1      -8.316  17.132  68.279  1.00  0.00    -0.216 OA 
BRANCH   8  11
HETATM   11  C   UNL     1      -9.532  15.555  66.868  1.00  0.00    -0.244 A  
HETATM   12  C   UNL     1      -8.798  14.373  67.076  1.00  0.00    -0.256 A  
HETATM   13  C   UNL     1      -9.397  13.100  67.040  1.00  0.00    -0.238 A  
HETATM   14  C   UNL     1     -10.742  13.022  66.666  1.00  0.00    -0.274 A  
HETATM   15  H   UNL     1     -12.305  11.773  66.279  1.00  0.00     0.000 HD 
HETATM   16  C   UNL     1     -11.483  14.168  66.414  1.00  0.00    -0.362 A  
HETATM   17  O   UNL     1     -11.391  11.826  66.532  1.00  0.00    -0.325 OA 
HETATM   18  C   UNL     1     -10.891  15.429  66.543  1.00  0.00    -0.298 A  
BRANCH  13  19
HETATM   19  C   UNL     1      -8.554  11.893  67.351  1.00  0.00    -0.164 C  
HETATM   20  O   UNL     1      -7.510  12.231  68.263  1.00  0.00    -0.102 OA 
HETATM   21  H   UNL     1      -6.977  11.469  68.460  1.00  0.00     0.000 HD 
ENDBRANCH  13  19
ENDBRANCH   8  11
ENDBRANCH   7   8
ENDBRANCH   3   7
TORSDOF 4
ENDMDL
MODEL      239
REMARK 921   NORMALIZED FREE ENERGY PREDICTED BY IDOCK:   -2.90 KCAL/MOL
REMARK 922        TOTAL FREE ENERGY PREDICTED BY IDOCK:   -4.28 KCAL/MOL
REMARK 923 INTER-LIGAND FREE ENERGY PREDICTED BY IDOCK:   -3.75 KCAL/MOL
REMARK 924 INTRA-LIGAND FREE ENERGY PREDICTED BY IDOCK:   -0.53 KCAL/MOL
REMARK 927      BINDING AFFINITY PREDICTED BY RF-SCORE:    0.00 PKD
ROOT
HETATM    1  C   UNL     1      -9.674   9.967  65.047  1.00  0.00    -0.386 C  
HETATM    2  C   UNL     1      -9.919  10.456  66.484  1.00  0.00    -0.217 C  
HETATM    3  N   UNL     1     -10.255   9.332  67.383  1.00  0.00    -0.226 NA 
HETATM    4  C   UNL     1      -8.718  11.272  66.982  1.00  0.00    -0.152 C  
HETATM    5  C   UNL     1     -11.157  11.377  66.478  1.00  0.00    -0.312 C  
HETATM    6  H   UNL     1     -11.153   9.275  67.863  1.00  0.00     0.000 HD 
ENDROOT
BRANCH   3   7
HETATM    7  C   UNL     1      -9.215   8.299  67.546  1.00  0.00    -0.137 C  
BRANCH   7   8
HETATM    8  C   UNL     1      -9.711   6.949  68.153  1.00  0.00    -0.131 C  
HETATM    9  H   UNL     1     -11.254   5.811  67.877  1.00  0.00     0.000 HD 
HETATM   10  O   UNL     1     -10.953   6.633  67.507  1.00  0.00    -0.309 OA 
BRANCH   8  11
HETATM   11  C   UNL     1      -9.864   6.925  69.671  1.00  0.00    -0.171 A  
HETATM   12  C   UNL     1      -8.858   7.469  70.489  1.00  0.00    -0.147 A  
HETATM   13  C   UNL     1      -8.965   7.505  71.892  1.00  0.00    -0.144 A  
HETATM   14  C   UNL     1     -10.063   6.867  72.479  1.00  0.00    -0.172 A  
HETATM   15  H   UNL     1     -10.962   6.353  74.234  1.00  0.00     0.000 HD 
HETATM   16  C   UNL     1     -11.052   6.284  71.700  1.00  0.00    -0.325 A  
HETATM   17  O   UNL     1     -10.217   6.786  73.835  1.00  0.00    -0.304 OA 
HETATM   18  C   UNL     1     -10.970   6.338  70.305  1.00  0.00    -0.400 A  
BRANCH  13  19
HETATM   19  C   UNL     1      -7.878   8.176  72.685  1.00  0.00    -0.141 C  
HETATM   20  O   UNL     1      -7.281   7.257  73.599  1.00  0.00    -0.081 OA 
HETATM   21  H   UNL     1      -6.594   7.681  74.100  1.00  0.00     0.000 HD 
ENDBRANCH  13  19
ENDBRANCH   8  11
ENDBRANCH   7   8
ENDBRANCH   3   7
TORSDOF 4
ENDMDL
MODEL      240
REMARK 921   NORMALIZED FREE ENERGY PREDICTED BY IDOCK:   -2.90 KCAL/MOL
REMARK 922        TOTAL FREE ENERGY PREDICTED BY IDOCK:   -4.28 KCAL/MOL
REMARK 923 INTER-LIGAND FREE ENERGY PREDICTED BY IDOCK:   -4.05 KCAL/MOL
REMARK 924 INTRA-LIGAND FREE ENERGY PREDICTED BY IDOCK:   -0.23 KCAL/MOL
REMARK 927      BINDING AFFINITY PREDICTED BY RF-SCORE:    0.00 PKD
ROOT
HETATM    1  C   UNL     1      -6.178   9.051  67.336  1.00  0.00    -0.059 C  
HETATM    2  C   UNL     1      -6.695   9.310  68.760  1.00  0.00    -0.053 C  
HETATM    3  N   UNL     1      -8.156   9.532  68.768  1.00  0.00    -0.095 NA 
HETATM    4  C   UNL     1      -6.265   8.173  69.699  1.00  0.00    -0.033 C  
HETATM    5  C   UNL     1      -6.065  10.621  69.273  1.00  0.00    -0.044 C  
HETATM    6  H   UNL     1      -8.566  10.412  69.078  1.00  0.00     0.000 HD 
ENDROOT
BRANCH   3   7
HETATM    7  C   UNL     1      -8.986   8.405  68.303  1.00  0.00    -0.139 C  
BRANCH   7   8
HETATM    8  C   UNL     1     -10.322   8.809  67.604  1.00  0.00    -0.254 C  
HETATM    9  H   UNL     1     -11.396   8.063  66.176  1.00  0.00     0.000 HD 
HETATM   10  O   UNL     1     -10.584   7.817  66.601  1.00  0.00    -0.276 OA 
BRANCH   8  11
HETATM   11  C   UNL     1     -10.356  10.212  67.004  1.00  0.00    -0.303 A  
HETATM   12  C   UNL     1     -10.136  10.393  65.626  1.00  0.00    -0.337 A  
HETATM   13  C   UNL     1     -10.192  11.660  65.016  1.00  0.00    -0.321 A  
HETATM   14  C   UNL     1     -10.355  12.776  65.842  1.00  0.00    -0.283 A  
HETATM   15  H   UNL     1     -10.460  14.810  65.911  1.00  0.00     0.000 HD 
HETATM   16  C   UNL     1     -10.533  12.633  67.210  1.00  0.00    -0.237 A  
HETATM   17  O   UNL     1     -10.349  14.051  65.350  1.00  0.00    -0.321 OA 
HETATM   18  C   UNL     1     -10.563  11.359  67.786  1.00  0.00    -0.231 A  
BRANCH  13  19
HETATM   19  C   UNL     1     -10.023  11.753  63.523  1.00  0.00    -0.408 C  
HETATM   20  O   UNL     1     -10.218  10.478  62.914  1.00  0.00    -0.657 OA 
HETATM   21  H   UNL     1     -10.112  10.536  61.972  1.00  0.00     0.000 HD 
ENDBRANCH  13  19
ENDBRANCH   8  11
ENDBRANCH   7   8
ENDBRANCH   3   7
TORSDOF 4
ENDMDL
MODEL      241
REMARK 921   NORMALIZED FREE ENERGY PREDICTED BY IDOCK:   -2.90 KCAL/MOL
REMARK 922        TOTAL FREE ENERGY PREDICTED BY IDOCK:   -4.28 KCAL/MOL
REMARK 923 INTER-LIGAND FREE ENERGY PREDICTED BY IDOCK:   -3.78 KCAL/MOL
REMARK 924 INTRA-LIGAND FREE ENERGY PREDICTED BY IDOCK:   -0.50 KCAL/MOL
REMARK 927      BINDING AFFINITY PREDICTED BY RF-SCORE:    0.00 PKD
ROOT
HETATM    1  C   UNL     1     -10.182   8.788  71.852  1.00  0.00    -0.415 C  
HETATM    2  C   UNL     1     -11.417   8.570  70.963  1.00  0.00    -0.273 C  
HETATM    3  N   UNL     1     -11.147   8.965  69.565  1.00  0.00    -0.432 NA 
HETATM    4  C   UNL     1     -11.913   7.122  71.084  1.00  0.00    -0.381 C  
HETATM    5  C   UNL     1     -12.540   9.506  71.457  1.00  0.00    -0.462 C  
HETATM    6  H   UNL     1     -11.663   9.715  69.106  1.00  0.00     0.000 HD 
ENDROOT
BRANCH   3   7
HETATM    7  C   UNL     1     -10.088   8.208  68.870  1.00  0.00    -0.202 C  
BRANCH   7   8
HETATM    8  C   UNL     1     -10.473   7.674  67.455  1.00  0.00    -0.266 C  
HETATM    9  H   UNL     1     -11.471   6.150  66.796  1.00  0.00     0.000 HD 
HETATM   10  O   UNL     1     -11.237   6.475  67.657  1.00  0.00    -0.324 OA 
BRANCH   8  11
HETATM   11  C   UNL     1      -9.307   7.423  66.504  1.00  0.00    -0.222 A  
HETATM   12  C   UNL     1      -8.661   8.507  65.882  1.00  0.00    -0.183 A  
HETATM   13  C   UNL     1      -7.558   8.334  65.025  1.00  0.00    -0.095 A  
HETATM   14  C   UNL     1      -7.183   7.027  64.699  1.00  0.00    -0.073 A  
HETATM   15  H   UNL     1      -5.917   5.871  63.598  1.00  0.00     0.000 HD 
HETATM   16  C   UNL     1      -7.829   5.936  65.264  1.00  0.00    -0.105 A  
HETATM   17  O   UNL     1      -6.172   6.759  63.819  1.00  0.00    -0.037 OA 
HETATM   18  C   UNL     1      -8.865   6.130  66.183  1.00  0.00    -0.158 A  
BRANCH  13  19
HETATM   19  C   UNL     1      -6.877   9.553  64.466  1.00  0.00    -0.099 C  
HETATM   20  O   UNL     1      -5.468   9.346  64.377  1.00  0.00    -0.057 OA 
HETATM   21  H   UNL     1      -5.038  10.116  64.023  1.00  0.00     0.000 HD 
ENDBRANCH  13  19
ENDBRANCH   8  11
ENDBRANCH   7   8
ENDBRANCH   3   7
TORSDOF 4
ENDMDL
MODEL      242
REMARK 921   NORMALIZED FREE ENERGY PREDICTED BY IDOCK:   -2.89 KCAL/MOL
REMARK 922        TOTAL FREE ENERGY PREDICTED BY IDOCK:   -4.27 KCAL/MOL
REMARK 923 INTER-LIGAND FREE ENERGY PREDICTED BY IDOCK:   -3.92 KCAL/MOL
REMARK 924 INTRA-LIGAND FREE ENERGY PREDICTED BY IDOCK:   -0.35 KCAL/MOL
REMARK 927      BINDING AFFINITY PREDICTED BY RF-SCORE:    0.00 PKD
ROOT
HETATM    1  C   UNL     1     -10.746   4.636  73.961  1.00  0.00    -0.352 C  
HETATM    2  C   UNL     1      -9.669   5.414  73.187  1.00  0.00    -0.149 C  
HETATM    3  N   UNL     1      -9.967   5.450  71.741  1.00  0.00    -0.177 NA 
HETATM    4  C   UNL     1      -9.487   6.815  73.789  1.00  0.00    -0.215 C  
HETATM    5  C   UNL     1      -8.332   4.655  73.325  1.00  0.00    -0.103 C  
HETATM    6  H   UNL     1      -9.343   5.033  71.050  1.00  0.00     0.000 HD 
ENDROOT
BRANCH   3   7
HETATM    7  C   UNL     1     -11.220   6.125  71.353  1.00  0.00    -0.287 C  
BRANCH   7   8
HETATM    8  C   UNL     1     -11.296   6.577  69.861  1.00  0.00    -0.406 C  
HETATM    9  H   UNL     1     -10.538   5.933  68.199  1.00  0.00     0.000 HD 
HETATM   10  O   UNL     1     -10.491   5.659  69.107  1.00  0.00    -0.232 OA 
BRANCH   8  11
HETATM   11  C   UNL     1     -10.882   8.019  69.585  1.00  0.00    -0.172 A  
HETATM   12  C   UNL     1     -11.615   9.081  70.144  1.00  0.00    -0.007 A  
HETATM   13  C   UNL     1     -11.255  10.428  69.951  1.00  0.00    -0.371 A  
HETATM   14  C   UNL     1     -10.200  10.702  69.074  1.00  0.00    -0.215 A  
HETATM   15  H   UNL     1      -9.108  12.167  68.171  1.00  0.00     0.000 HD 
HETATM   16  C   UNL     1      -9.484   9.677  68.474  1.00  0.00    -0.145 A  
HETATM   17  O   UNL     1      -9.825  11.980  68.767  1.00  0.00    -0.158 OA 
HETATM   18  C   UNL     1      -9.802   8.343  68.749  1.00  0.00    -0.180 A  
BRANCH  13  19
HETATM   19  C   UNL     1     -12.048  11.498  70.650  1.00  0.00    -0.353 C  
HETATM   20  O   UNL     1     -12.733  10.959  71.779  1.00  0.00    -0.398 OA 
HETATM   21  H   UNL     1     -13.235  11.634  72.221  1.00  0.00     0.000 HD 
ENDBRANCH  13  19
ENDBRANCH   8  11
ENDBRANCH   7   8
ENDBRANCH   3   7
TORSDOF 4
ENDMDL
MODEL      243
REMARK 921   NORMALIZED FREE ENERGY PREDICTED BY IDOCK:   -2.85 KCAL/MOL
REMARK 922        TOTAL FREE ENERGY PREDICTED BY IDOCK:   -4.23 KCAL/MOL
REMARK 923 INTER-LIGAND FREE ENERGY PREDICTED BY IDOCK:   -3.65 KCAL/MOL
REMARK 924 INTRA-LIGAND FREE ENERGY PREDICTED BY IDOCK:   -0.58 KCAL/MOL
REMARK 927      BINDING AFFINITY PREDICTED BY RF-SCORE:    0.00 PKD
ROOT
HETATM    1  C   UNL     1     -11.094  13.264  67.033  1.00  0.00    -0.304 C  
HETATM    2  C   UNL     1     -10.072  12.421  67.815  1.00  0.00    -0.203 C  
HETATM    3  N   UNL     1     -10.559  12.115  69.176  1.00  0.00    -0.427 NA 
HETATM    4  C   UNL     1      -9.703  11.160  67.021  1.00  0.00    -0.210 C  
HETATM    5  C   UNL     1      -8.793  13.263  68.002  1.00  0.00    -0.190 C  
HETATM    6  H   UNL     1     -10.068  12.437  70.010  1.00  0.00     0.000 HD 
ENDROOT
BRANCH   3   7
HETATM    7  C   UNL     1     -11.795  11.316  69.259  1.00  0.00    -0.354 C  
BRANCH   7   8
HETATM    8  C   UNL     1     -11.704  10.043  70.157  1.00  0.00    -0.215 C  
HETATM    9  H   UNL     1     -11.685   9.717  72.067  1.00  0.00     0.000 HD 
HETATM   10  O   UNL     1     -11.740  10.492  71.520  1.00  0.00    -0.194 OA 
BRANCH   8  11
HETATM   11  C   UNL     1     -10.494   9.146  69.911  1.00  0.00    -0.239 A  
HETATM   12  C   UNL     1     -10.479   8.271  68.810  1.00  0.00    -0.200 A  
HETATM   13  C   UNL     1      -9.376   7.449  68.517  1.00  0.00    -0.141 A  
HETATM   14  C   UNL     1      -8.316   7.428  69.429  1.00  0.00    -0.132 A  
HETATM   15  H   UNL     1      -6.514   6.595  69.888  1.00  0.00     0.000 HD 
HETATM   16  C   UNL     1      -8.320   8.249  70.548  1.00  0.00    -0.124 A  
HETATM   17  O   UNL     1      -7.234   6.609  69.269  1.00  0.00    -0.084 OA 
HETATM   18  C   UNL     1      -9.387   9.124  70.774  1.00  0.00    -0.325 A  
BRANCH  13  19
HETATM   19  C   UNL     1      -9.412   6.602  67.274  1.00  0.00    -0.133 C  
HETATM   20  O   UNL     1     -10.197   5.429  67.487  1.00  0.00    -0.178 OA 
HETATM   21  H   UNL     1     -10.220   4.894  66.703  1.00  0.00     0.000 HD 
ENDBRANCH  13  19
ENDBRANCH   8  11
ENDBRANCH   7   8
ENDBRANCH   3   7
TORSDOF 4
ENDMDL
MODEL      244
REMARK 921   NORMALIZED FREE ENERGY PREDICTED BY IDOCK:   -2.84 KCAL/MOL
REMARK 922        TOTAL FREE ENERGY PREDICTED BY IDOCK:   -4.22 KCAL/MOL
REMARK 923 INTER-LIGAND FREE ENERGY PREDICTED BY IDOCK:   -3.62 KCAL/MOL
REMARK 924 INTRA-LIGAND FREE ENERGY PREDICTED BY IDOCK:   -0.59 KCAL/MOL
REMARK 927      BINDING AFFINITY PREDICTED BY RF-SCORE:    0.00 PKD
ROOT
HETATM    1  C   UNL     1     -12.225  10.051  71.428  1.00  0.00    -0.510 C  
HETATM    2  C   UNL     1     -11.828  11.010  70.293  1.00  0.00    -0.367 C  
HETATM    3  N   UNL     1     -10.368  10.998  70.067  1.00  0.00    -0.311 NA 
HETATM    4  C   UNL     1     -12.627  10.689  69.021  1.00  0.00     0.695 C  
HETATM    5  C   UNL     1     -12.177  12.448  70.730  1.00  0.00    -0.336 C  
HETATM    6  H   UNL     1      -9.796  11.833  70.194  1.00  0.00     0.000 HD 
ENDROOT
BRANCH   3   7
HETATM    7  C   UNL     1      -9.787   9.710  69.645  1.00  0.00    -0.215 C  
BRANCH   7   8
HETATM    8  C   UNL     1      -8.735   9.801  68.496  1.00  0.00    -0.120 C  
HETATM    9  H   UNL     1      -7.068  10.755  68.242  1.00  0.00     0.000 HD 
HETATM   10  O   UNL     1      -7.708  10.700  68.942  1.00  0.00    -0.103 OA 
BRANCH   8  11
HETATM   11  C   UNL     1      -9.278  10.227  67.135  1.00  0.00    -0.163 A  
HETATM   12  C   UNL     1      -9.757  11.535  66.946  1.00  0.00    -0.205 A  
HETATM   13  C   UNL     1     -10.234  11.990  65.703  1.00  0.00    -0.284 A  
HETATM   14  C   UNL     1     -10.337  11.060  64.663  1.00  0.00    -0.345 A  
HETATM   15  H   UNL     1     -10.927  10.758  62.736  1.00  0.00     0.000 HD 
HETATM   16  C   UNL     1      -9.911   9.751  64.830  1.00  0.00    -0.061 A  
HETATM   17  O   UNL     1     -10.856  11.389  63.443  1.00  0.00    -0.385 OA 
HETATM   18  C   UNL     1      -9.357   9.342  66.048  1.00  0.00    -0.283 A  
BRANCH  13  19
HETATM   19  C   UNL     1     -10.655  13.429  65.570  1.00  0.00    -0.290 C  
HETATM   20  O   UNL     1     -11.953  13.521  64.986  1.00  0.00    -0.341 OA 
HETATM   21  H   UNL     1     -12.219  14.429  64.902  1.00  0.00     0.000 HD 
ENDBRANCH  13  19
ENDBRANCH   8  11
ENDBRANCH   7   8
ENDBRANCH   3   7
TORSDOF 4
ENDMDL
MODEL      245
REMARK 921   NORMALIZED FREE ENERGY PREDICTED BY IDOCK:   -2.84 KCAL/MOL
REMARK 922        TOTAL FREE ENERGY PREDICTED BY IDOCK:   -4.22 KCAL/MOL
REMARK 923 INTER-LIGAND FREE ENERGY PREDICTED BY IDOCK:   -3.71 KCAL/MOL
REMARK 924 INTRA-LIGAND FREE ENERGY PREDICTED BY IDOCK:   -0.51 KCAL/MOL
REMARK 927      BINDING AFFINITY PREDICTED BY RF-SCORE:    0.00 PKD
ROOT
HETATM    1  C   UNL     1     -12.389   9.749  71.549  1.00  0.00    -0.495 C  
HETATM    2  C   UNL     1     -12.433   8.213  71.480  1.00  0.00    -0.307 C  
HETATM    3  N   UNL     1     -12.009   7.724  70.152  1.00  0.00    -0.371 NA 
HETATM    4  C   UNL     1     -11.611   7.604  72.625  1.00  0.00    -0.371 C  
HETATM    5  C   UNL     1     -13.899   7.763  71.648  1.00  0.00    -0.465 C  
HETATM    6  H   UNL     1     -12.636   7.195  69.546  1.00  0.00     0.000 HD 
ENDROOT
BRANCH   3   7
HETATM    7  C   UNL     1     -10.625   8.045  69.754  1.00  0.00    -0.238 C  
BRANCH   7   8
HETATM    8  C   UNL     1     -10.000   7.084  68.695  1.00  0.00    -0.156 C  
HETATM    9  H   UNL     1     -10.633   6.246  67.068  1.00  0.00     0.000 HD 
HETATM   10  O   UNL     1     -11.014   6.831  67.712  1.00  0.00    -0.256 OA 
BRANCH   8  11
HETATM   11  C   UNL     1      -9.432   5.778  69.241  1.00  0.00    -0.159 A  
HETATM   12  C   UNL     1      -8.199   5.294  68.768  1.00  0.00    -0.089 A  
HETATM   13  C   UNL     1      -7.613   4.114  69.263  1.00  0.00    -0.054 A  
HETATM   14  C   UNL     1      -8.353   3.349  70.171  1.00  0.00    -0.051 A  
HETATM   15  H   UNL     1      -8.402   1.633  71.269  1.00  0.00     0.000 HD 
HETATM   16  C   UNL     1      -9.591   3.779  70.626  1.00  0.00    -0.259 A  
HETATM   17  O   UNL     1      -7.899   2.153  70.652  1.00  0.00    -0.042 OA 
HETATM   18  C   UNL     1     -10.116   4.999  70.188  1.00  0.00    -0.338 A  
BRANCH  13  19
HETATM   19  C   UNL     1      -6.255   3.711  68.757  1.00  0.00    -0.029 C  
HETATM   20  O   UNL     1      -6.320   2.452  68.089  1.00  0.00    -0.028 OA 
HETATM   21  H   UNL     1      -5.462   2.198  67.769  1.00  0.00     0.000 HD 
ENDBRANCH  13  19
ENDBRANCH   8  11
ENDBRANCH   7   8
ENDBRANCH   3   7
TORSDOF 4
ENDMDL
MODEL      246
REMARK 921   NORMALIZED FREE ENERGY PREDICTED BY IDOCK:   -2.84 KCAL/MOL
REMARK 922        TOTAL FREE ENERGY PREDICTED BY IDOCK:   -4.22 KCAL/MOL
REMARK 923 INTER-LIGAND FREE ENERGY PREDICTED BY IDOCK:   -3.94 KCAL/MOL
REMARK 924 INTRA-LIGAND FREE ENERGY PREDICTED BY IDOCK:   -0.28 KCAL/MOL
REMARK 927      BINDING AFFINITY PREDICTED BY RF-SCORE:    0.00 PKD
ROOT
HETATM    1  C   UNL     1     -11.253  15.109  71.682  1.00  0.00    -0.312 C  
HETATM    2  C   UNL     1     -12.414  14.264  71.134  1.00  0.00    -0.362 C  
HETATM    3  N   UNL     1     -12.259  14.016  69.685  1.00  0.00    -0.346 NA 
HETATM    4  C   UNL     1     -12.559  12.967  71.943  1.00  0.00    -0.089 C  
HETATM    5  C   UNL     1     -13.718  15.075  71.287  1.00  0.00    -0.523 C  
HETATM    6  H   UNL     1     -12.941  14.351  69.005  1.00  0.00     0.000 HD 
ENDROOT
BRANCH   3   7
HETATM    7  C   UNL     1     -11.062  13.255  69.282  1.00  0.00    -0.153 C  
BRANCH   7   8
HETATM    8  C   UNL     1     -11.320  11.763  68.902  1.00  0.00    -0.267 C  
HETATM    9  H   UNL     1     -12.898  10.654  68.716  1.00  0.00     0.000 HD 
HETATM   10  O   UNL     1     -12.741  11.562  68.947  1.00  0.00    -0.017 OA 
BRANCH   8  11
HETATM   11  C   UNL     1     -10.596  10.729  69.759  1.00  0.00    -0.191 A  
HETATM   12  C   UNL     1      -9.255  10.403  69.485  1.00  0.00    -0.143 A  
HETATM   13  C   UNL     1      -8.530   9.483  70.265  1.00  0.00    -0.237 A  
HETATM   14  C   UNL     1      -9.218   8.793  71.268  1.00  0.00    -0.241 A  
HETATM   15  H   UNL     1      -9.085   7.360  72.710  1.00  0.00     0.000 HD 
HETATM   16  C   UNL     1     -10.553   9.062  71.535  1.00  0.00    -0.415 A  
HETATM   17  O   UNL     1      -8.618   7.829  72.029  1.00  0.00    -0.105 OA 
HETATM   18  C   UNL     1     -11.231  10.044  70.806  1.00  0.00    -0.428 A  
BRANCH  13  19
HETATM   19  C   UNL     1      -7.077   9.253  69.950  1.00  0.00    -0.064 C  
HETATM   20  O   UNL     1      -6.515  10.395  69.307  1.00  0.00    -0.045 OA 
HETATM   21  H   UNL     1      -5.597  10.251  69.108  1.00  0.00     0.000 HD 
ENDBRANCH  13  19
ENDBRANCH   8  11
ENDBRANCH   7   8
ENDBRANCH   3   7
TORSDOF 4
ENDMDL
MODEL      247
REMARK 921   NORMALIZED FREE ENERGY PREDICTED BY IDOCK:   -2.84 KCAL/MOL
REMARK 922        TOTAL FREE ENERGY PREDICTED BY IDOCK:   -4.21 KCAL/MOL
REMARK 923 INTER-LIGAND FREE ENERGY PREDICTED BY IDOCK:   -4.64 KCAL/MOL
REMARK 924 INTRA-LIGAND FREE ENERGY PREDICTED BY IDOCK:    0.43 KCAL/MOL
REMARK 927      BINDING AFFINITY PREDICTED BY RF-SCORE:    0.00 PKD
ROOT
HETATM    1  C   UNL     1      -8.661  15.655  67.525  1.00  0.00    -0.189 C  
HETATM    2  C   UNL     1     -10.010  15.704  66.788  1.00  0.00    -0.250 C  
HETATM    3  N   UNL     1     -11.135  15.440  67.709  1.00  0.00    -0.312 NA 
HETATM    4  C   UNL     1     -10.160  17.035  66.038  1.00  0.00    -0.318 C  
HETATM    5  C   UNL     1     -10.036  14.562  65.751  1.00  0.00    -0.365 C  
HETATM    6  H   UNL     1     -11.752  14.637  67.591  1.00  0.00     0.000 HD 
ENDROOT
BRANCH   3   7
HETATM    7  C   UNL     1     -11.312  16.405  68.810  1.00  0.00    -0.277 C  
BRANCH   7   8
HETATM    8  C   UNL     1     -10.893  15.887  70.221  1.00  0.00    -0.340 C  
HETATM    9  H   UNL     1      -9.299  15.069  70.959  1.00  0.00     0.000 HD 
HETATM   10  O   UNL     1      -9.554  15.385  70.100  1.00  0.00    -0.140 OA 
BRANCH   8  11
HETATM   11  C   UNL     1     -11.814  14.839  70.841  1.00  0.00    -0.379 A  
HETATM   12  C   UNL     1     -11.725  13.496  70.433  1.00  0.00    -0.201 A  
HETATM   13  C   UNL     1     -12.524  12.484  70.997  1.00  0.00    -0.353 A  
HETATM   14  C   UNL     1     -13.515  12.866  71.906  1.00  0.00    -0.387 A  
HETATM   15  H   UNL     1     -15.061  12.224  73.069  1.00  0.00     0.000 HD 
HETATM   16  C   UNL     1     -13.656  14.190  72.297  1.00  0.00    -0.596 A  
HETATM   17  O   UNL     1     -14.387  11.965  72.451  1.00  0.00     0.506 OA 
HETATM   18  C   UNL     1     -12.792  15.167  71.791  1.00  0.00    -0.432 A  
BRANCH  13  19
HETATM   19  C   UNL     1     -12.308  11.061  70.558  1.00  0.00    -0.373 C  
HETATM   20  O   UNL     1     -11.413  11.007  69.448  1.00  0.00    -0.240 OA 
HETATM   21  H   UNL     1     -11.277  10.108  69.171  1.00  0.00     0.000 HD 
ENDBRANCH  13  19
ENDBRANCH   8  11
ENDBRANCH   7   8
ENDBRANCH   3   7
TORSDOF 4
ENDMDL
MODEL      248
REMARK 921   NORMALIZED FREE ENERGY PREDICTED BY IDOCK:   -2.83 KCAL/MOL
REMARK 922        TOTAL FREE ENERGY PREDICTED BY IDOCK:   -4.20 KCAL/MOL
REMARK 923 INTER-LIGAND FREE ENERGY PREDICTED BY IDOCK:   -3.64 KCAL/MOL
REMARK 924 INTRA-LIGAND FREE ENERGY PREDICTED BY IDOCK:   -0.56 KCAL/MOL
REMARK 927      BINDING AFFINITY PREDICTED BY RF-SCORE:    0.00 PKD
ROOT
HETATM    1  C   UNL     1      -8.376   4.878  71.220  1.00  0.00    -0.115 C  
HETATM    2  C   UNL     1      -7.510   5.843  70.394  1.00  0.00    -0.089 C  
HETATM    3  N   UNL     1      -8.342   6.835  69.682  1.00  0.00    -0.131 NA 
HETATM    4  C   UNL     1      -6.443   6.496  71.283  1.00  0.00    -0.050 C  
HETATM    5  C   UNL     1      -6.791   5.030  69.298  1.00  0.00    -0.054 C  
HETATM    6  H   UNL     1      -8.361   6.893  68.664  1.00  0.00     0.000 HD 
ENDROOT
BRANCH   3   7
HETATM    7  C   UNL     1      -9.145   7.736  70.529  1.00  0.00    -0.154 C  
BRANCH   7   8
HETATM    8  C   UNL     1     -10.618   7.950  70.062  1.00  0.00    -0.242 C  
HETATM    9  H   UNL     1     -11.854   6.961  68.944  1.00  0.00     0.000 HD 
HETATM   10  O   UNL     1     -10.958   6.831  69.229  1.00  0.00    -0.253 OA 
BRANCH   8  11
HETATM   11  C   UNL     1     -10.899   9.267  69.344  1.00  0.00    -0.184 A  
HETATM   12  C   UNL     1     -10.306   9.529  68.096  1.00  0.00    -0.251 A  
HETATM   13  C   UNL     1     -10.559  10.711  67.376  1.00  0.00    -0.304 A  
HETATM   14  C   UNL     1     -11.336  11.697  67.991  1.00  0.00    -0.296 A  
HETATM   15  H   UNL     1     -12.105  13.577  67.820  1.00  0.00     0.000 HD 
HETATM   16  C   UNL     1     -11.902  11.486  69.241  1.00  0.00    -0.414 A  
HETATM   17  O   UNL     1     -11.577  12.906  67.402  1.00  0.00    -0.318 OA 
HETATM   18  C   UNL     1     -11.710  10.268  69.901  1.00  0.00    -0.298 A  
BRANCH  13  19
HETATM   19  C   UNL     1      -9.944  10.875  66.012  1.00  0.00    -0.240 C  
HETATM   20  O   UNL     1     -10.920  11.318  65.070  1.00  0.00    -0.248 OA 
HETATM   21  H   UNL     1     -10.532  11.422  64.209  1.00  0.00     0.000 HD 
ENDBRANCH  13  19
ENDBRANCH   8  11
ENDBRANCH   7   8
ENDBRANCH   3   7
TORSDOF 4
ENDMDL
MODEL      249
REMARK 921   NORMALIZED FREE ENERGY PREDICTED BY IDOCK:   -2.81 KCAL/MOL
REMARK 922        TOTAL FREE ENERGY PREDICTED BY IDOCK:   -4.17 KCAL/MOL
REMARK 923 INTER-LIGAND FREE ENERGY PREDICTED BY IDOCK:   -3.71 KCAL/MOL
REMARK 924 INTRA-LIGAND FREE ENERGY PREDICTED BY IDOCK:   -0.46 KCAL/MOL
REMARK 927      BINDING AFFINITY PREDICTED BY RF-SCORE:    0.00 PKD
ROOT
HETATM    1  C   UNL     1     -11.311  11.921  64.536  1.00  0.00    -0.382 C  
HETATM    2  C   UNL     1     -11.182  12.394  65.993  1.00  0.00    -0.335 C  
HETATM    3  N   UNL     1     -11.582  11.332  66.939  1.00  0.00    -0.436 NA 
HETATM    4  C   UNL     1      -9.763  12.918  66.259  1.00  0.00    -0.268 C  
HETATM    5  C   UNL     1     -12.173  13.554  66.215  1.00  0.00    -0.468 C  
HETATM    6  H   UNL     1     -12.369  11.447  67.577  1.00  0.00     0.000 HD 
ENDROOT
BRANCH   3   7
HETATM    7  C   UNL     1     -10.777  10.097  66.908  1.00  0.00    -0.161 C  
BRANCH   7   8
HETATM    8  C   UNL     1     -10.587   9.393  68.288  1.00  0.00    -0.210 C  
HETATM    9  H   UNL     1      -9.618   9.810  69.912  1.00  0.00     0.000 HD 
HETATM   10  O   UNL     1      -9.733  10.239  69.073  1.00  0.00    -0.184 OA 
BRANCH   8  11
HETATM   11  C   UNL     1     -10.042   7.969  68.234  1.00  0.00    -0.227 A  
HETATM   12  C   UNL     1      -8.659   7.740  68.353  1.00  0.00    -0.128 A  
HETATM   13  C   UNL     1      -8.107   6.445  68.346  1.00  0.00    -0.113 A  
HETATM   14  C   UNL     1      -8.966   5.371  68.093  1.00  0.00    -0.108 A  
HETATM   15  H   UNL     1      -9.095   3.355  67.822  1.00  0.00     0.000 HD 
HETATM   16  C   UNL     1     -10.329   5.568  67.929  1.00  0.00    -0.240 A  
HETATM   17  O   UNL     1      -8.512   4.086  67.995  1.00  0.00    -0.092 OA 
HETATM   18  C   UNL     1     -10.870   6.855  68.028  1.00  0.00    -0.266 A  
BRANCH  13  19
HETATM   19  C   UNL     1      -6.626   6.288  68.559  1.00  0.00    -0.059 C  
HETATM   20  O   UNL     1      -6.091   5.310  67.668  1.00  0.00    -0.027 OA 
HETATM   21  H   UNL     1      -5.156   5.210  67.801  1.00  0.00     0.000 HD 
ENDBRANCH  13  19
ENDBRANCH   8  11
ENDBRANCH   7   8
ENDBRANCH   3   7
TORSDOF 4
ENDMDL
MODEL      250
REMARK 921   NORMALIZED FREE ENERGY PREDICTED BY IDOCK:   -2.80 KCAL/MOL
REMARK 922        TOTAL FREE ENERGY PREDICTED BY IDOCK:   -4.17 KCAL/MOL
REMARK 923 INTER-LIGAND FREE ENERGY PREDICTED BY IDOCK:   -3.38 KCAL/MOL
REMARK 924 INTRA-LIGAND FREE ENERGY PREDICTED BY IDOCK:   -0.79 KCAL/MOL
REMARK 927      BINDING AFFINITY PREDICTED BY RF-SCORE:    0.00 PKD
ROOT
HETATM    1  C   UNL     1     -12.352   6.860  71.325  1.00  0.00    -0.422 C  
HETATM    2  C   UNL     1     -10.948   7.451  71.118  1.00  0.00    -0.246 C  
HETATM    3  N   UNL     1      -9.899   6.509  71.560  1.00  0.00    -0.169 NA 
HETATM    4  C   UNL     1     -10.767   7.897  69.660  1.00  0.00    -0.218 C  
HETATM    5  C   UNL     1     -10.808   8.694  72.021  1.00  0.00    -0.430 C  
HETATM    6  H   UNL     1      -9.255   6.736  72.317  1.00  0.00     0.000 HD 
ENDROOT
BRANCH   3   7
HETATM    7  C   UNL     1      -9.838   5.223  70.841  1.00  0.00    -0.194 C  
BRANCH   7   8
HETATM    8  C   UNL     1      -8.525   4.975  70.035  1.00  0.00    -0.091 C  
HETATM    9  H   UNL     1      -6.805   5.859  69.919  1.00  0.00     0.000 HD 
HETATM   10  O   UNL     1      -7.604   6.011  70.410  1.00  0.00    -0.090 OA 
BRANCH   8  11
HETATM   11  C   UNL     1      -8.682   4.908  68.519  1.00  0.00    -0.106 A  
HETATM   12  C   UNL     1      -8.212   5.962  67.716  1.00  0.00    -0.105 A  
HETATM   13  C   UNL     1      -8.299   5.935  66.312  1.00  0.00    -0.117 A  
HETATM   14  C   UNL     1      -8.986   4.871  65.720  1.00  0.00    -0.142 A  
HETATM   15  H   UNL     1      -9.653   4.071  63.968  1.00  0.00     0.000 HD 
HETATM   16  C   UNL     1      -9.499   3.836  66.489  1.00  0.00    -0.204 A  
HETATM   17  O   UNL     1      -9.186   4.795  64.370  1.00  0.00    -0.132 OA 
HETATM   18  C   UNL     1      -9.323   3.837  67.877  1.00  0.00    -0.236 A  
BRANCH  13  19
HETATM   19  C   UNL     1      -7.699   7.070  65.526  1.00  0.00    -0.105 C  
HETATM   20  O   UNL     1      -8.657   7.618  64.622  1.00  0.00    -0.373 OA 
HETATM   21  H   UNL     1      -8.278   8.334  64.126  1.00  0.00     0.000 HD 
ENDBRANCH  13  19
ENDBRANCH   8  11
ENDBRANCH   7   8
ENDBRANCH   3   7
TORSDOF 4
ENDMDL
MODEL      251
REMARK 921   NORMALIZED FREE ENERGY PREDICTED BY IDOCK:   -2.77 KCAL/MOL
REMARK 922        TOTAL FREE ENERGY PREDICTED BY IDOCK:   -4.13 KCAL/MOL
REMARK 923 INTER-LIGAND FREE ENERGY PREDICTED BY IDOCK:   -3.99 KCAL/MOL
REMARK 924 INTRA-LIGAND FREE ENERGY PREDICTED BY IDOCK:   -0.14 KCAL/MOL
REMARK 927      BINDING AFFINITY PREDICTED BY RF-SCORE:    0.00 PKD
ROOT
HETATM    1  C   UNL     1     -12.637   9.384  71.848  1.00  0.00    -0.481 C  
HETATM    2  C   UNL     1     -11.585   9.187  70.745  1.00  0.00    -0.276 C  
HETATM    3  N   UNL     1     -11.920   9.972  69.539  1.00  0.00    -0.474 NA 
HETATM    4  C   UNL     1     -10.182   9.501  71.284  1.00  0.00    -0.245 C  
HETATM    5  C   UNL     1     -11.613   7.708  70.308  1.00  0.00    -0.079 C  
HETATM    6  H   UNL     1     -12.108   9.527  68.640  1.00  0.00     0.000 HD 
ENDROOT
BRANCH   3   7
HETATM    7  C   UNL     1     -11.967  11.436  69.710  1.00  0.00    -0.353 C  
BRANCH   7   8
HETATM    8  C   UNL     1     -11.013  12.244  68.775  1.00  0.00    -0.236 C  
HETATM    9  H   UNL     1     -11.248  13.306  67.172  1.00  0.00     0.000 HD 
HETATM   10  O   UNL     1     -11.828  12.814  67.740  1.00  0.00    -0.348 OA 
BRANCH   8  11
HETATM   11  C   UNL     1      -9.848  11.459  68.180  1.00  0.00    -0.195 A  
HETATM   12  C   UNL     1     -10.097  10.328  67.382  1.00  0.00    -0.246 A  
HETATM   13  C   UNL     1      -9.062   9.589  66.779  1.00  0.00    -0.173 A  
HETATM   14  C   UNL     1      -7.744   9.936  67.094  1.00  0.00    -0.092 A  
HETATM   15  H   UNL     1      -5.778   9.468  66.830  1.00  0.00     0.000 HD 
HETATM   16  C   UNL     1      -7.466  11.021  67.913  1.00  0.00    -0.093 A  
HETATM   17  O   UNL     1      -6.674   9.233  66.617  1.00  0.00    -0.074 OA 
HETATM   18  C   UNL     1      -8.509  11.797  68.430  1.00  0.00    -0.155 A  
BRANCH  13  19
HETATM   19  C   UNL     1      -9.421   8.441  65.876  1.00  0.00    -0.099 C  
HETATM   20  O   UNL     1      -9.387   8.847  64.509  1.00  0.00    -0.373 OA 
HETATM   21  H   UNL     1      -9.614   8.122  63.938  1.00  0.00     0.000 HD 
ENDBRANCH  13  19
ENDBRANCH   8  11
ENDBRANCH   7   8
ENDBRANCH   3   7
TORSDOF 4
ENDMDL
MODEL      252
REMARK 921   NORMALIZED FREE ENERGY PREDICTED BY IDOCK:   -2.75 KCAL/MOL
REMARK 922        TOTAL FREE ENERGY PREDICTED BY IDOCK:   -4.11 KCAL/MOL
REMARK 923 INTER-LIGAND FREE ENERGY PREDICTED BY IDOCK:   -3.55 KCAL/MOL
REMARK 924 INTRA-LIGAND FREE ENERGY PREDICTED BY IDOCK:   -0.55 KCAL/MOL
REMARK 927      BINDING AFFINITY PREDICTED BY RF-SCORE:    0.00 PKD
ROOT
HETATM    1  C   UNL     1     -11.463  14.876  67.866  1.00  0.00    -0.357 C  
HETATM    2  C   UNL     1     -10.430  15.810  67.214  1.00  0.00    -0.308 C  
HETATM    3  N   UNL     1      -9.053  15.442  67.601  1.00  0.00    -0.181 NA 
HETATM    4  C   UNL     1     -10.627  15.842  65.691  1.00  0.00    -0.393 C  
HETATM    5  C   UNL     1     -10.656  17.236  67.757  1.00  0.00    -0.367 C  
HETATM    6  H   UNL     1      -8.449  16.080  68.119  1.00  0.00     0.000 HD 
ENDROOT
BRANCH   3   7
HETATM    7  C   UNL     1      -8.602  14.098  67.196  1.00  0.00    -0.214 C  
BRANCH   7   8
HETATM    8  C   UNL     1      -7.863  13.284  68.303  1.00  0.00    -0.143 C  
HETATM    9  H   UNL     1      -6.074  13.302  69.047  1.00  0.00     0.000 HD 
HETATM   10  O   UNL     1      -6.524  13.797  68.374  1.00  0.00    -0.082 OA 
BRANCH   8  11
HETATM   11  C   UNL     1      -7.856  11.769  68.116  1.00  0.00    -0.135 A  
HETATM   12  C   UNL     1      -9.059  11.085  67.868  1.00  0.00    -0.147 A  
HETATM   13  C   UNL     1      -9.104   9.695  67.653  1.00  0.00    -0.141 A  
HETATM   14  C   UNL     1      -7.919   8.971  67.812  1.00  0.00    -0.101 A  
HETATM   15  H   UNL     1      -7.072   7.118  67.804  1.00  0.00     0.000 HD 
HETATM   16  C   UNL     1      -6.722   9.612  68.098  1.00  0.00    -0.062 A  
HETATM   17  O   UNL     1      -7.877   7.610  67.695  1.00  0.00    -0.118 OA 
HETATM   18  C   UNL     1      -6.683  11.005  68.221  1.00  0.00    -0.059 A  
BRANCH  13  19
HETATM   19  C   UNL     1     -10.424   9.056  67.316  1.00  0.00    -0.273 C  
HETATM   20  O   UNL     1     -10.282   8.157  66.218  1.00  0.00    -0.475 OA 
HETATM   21  H   UNL     1     -11.115   7.753  66.005  1.00  0.00     0.000 HD 
ENDBRANCH  13  19
ENDBRANCH   8  11
ENDBRANCH   7   8
ENDBRANCH   3   7
TORSDOF 4
ENDMDL
MODEL      253
REMARK 921   NORMALIZED FREE ENERGY PREDICTED BY IDOCK:   -2.75 KCAL/MOL
REMARK 922        TOTAL FREE ENERGY PREDICTED BY IDOCK:   -4.10 KCAL/MOL
REMARK 923 INTER-LIGAND FREE ENERGY PREDICTED BY IDOCK:   -3.60 KCAL/MOL
REMARK 924 INTRA-LIGAND FREE ENERGY PREDICTED BY IDOCK:   -0.50 KCAL/MOL
REMARK 927      BINDING AFFINITY PREDICTED BY RF-SCORE:    0.00 PKD
ROOT
HETATM    1  C   UNL     1     -10.550  11.220  66.528  1.00  0.00    -0.315 C  
HETATM    2  C   UNL     1      -9.841  10.159  67.385  1.00  0.00    -0.187 C  
HETATM    3  N   UNL     1     -10.092  10.376  68.824  1.00  0.00    -0.178 NA 
HETATM    4  C   UNL     1     -10.235   8.749  66.921  1.00  0.00    -0.357 C  
HETATM    5  C   UNL     1      -8.319  10.320  67.192  1.00  0.00    -0.122 C  
HETATM    6  H   UNL     1      -9.337  10.578  69.479  1.00  0.00     0.000 HD 
ENDROOT
BRANCH   3   7
HETATM    7  C   UNL     1     -11.498  10.281  69.259  1.00  0.00    -0.160 C  
BRANCH   7   8
HETATM    8  C   UNL     1     -11.755   9.340  70.477  1.00  0.00    -0.176 C  
HETATM    9  H   UNL     1     -12.352   9.600  72.302  1.00  0.00     0.000 HD 
HETATM   10  O   UNL     1     -12.196  10.173  71.561  1.00  0.00    -0.373 OA 
BRANCH   8  11
HETATM   11  C   UNL     1     -10.574   8.473  70.903  1.00  0.00    -0.252 A  
HETATM   12  C   UNL     1     -10.296   7.277  70.217  1.00  0.00    -0.219 A  
HETATM   13  C   UNL     1      -9.199   6.459  70.545  1.00  0.00    -0.162 A  
HETATM   14  C   UNL     1      -8.441   6.802  71.669  1.00  0.00    -0.115 A  
HETATM   15  H   UNL     1      -6.887   6.264  72.871  1.00  0.00     0.000 HD 
HETATM   16  C   UNL     1      -8.715   7.955  72.391  1.00  0.00    -0.206 A  
HETATM   17  O   UNL     1      -7.402   6.031  72.108  1.00  0.00    -0.090 OA 
HETATM   18  C   UNL     1      -9.756   8.801  71.995  1.00  0.00    -0.370 A  
BRANCH  13  19
HETATM   19  C   UNL     1      -8.930   5.237  69.708  1.00  0.00    -0.111 C  
HETATM   20  O   UNL     1     -10.106   4.437  69.594  1.00  0.00    -0.202 OA 
HETATM   21  H   UNL     1      -9.937   3.666  69.066  1.00  0.00     0.000 HD 
ENDBRANCH  13  19
ENDBRANCH   8  11
ENDBRANCH   7   8
ENDBRANCH   3   7
TORSDOF 4
ENDMDL
MODEL      254
REMARK 921   NORMALIZED FREE ENERGY PREDICTED BY IDOCK:   -2.73 KCAL/MOL
REMARK 922        TOTAL FREE ENERGY PREDICTED BY IDOCK:   -4.08 KCAL/MOL
REMARK 923 INTER-LIGAND FREE ENERGY PREDICTED BY IDOCK:   -3.78 KCAL/MOL
REMARK 924 INTRA-LIGAND FREE ENERGY PREDICTED BY IDOCK:   -0.30 KCAL/MOL
REMARK 927      BINDING AFFINITY PREDICTED BY RF-SCORE:    0.00 PKD
ROOT
HETATM    1  C   UNL     1      -9.788   9.437  66.349  1.00  0.00    -0.337 C  
HETATM    2  C   UNL     1     -10.359   9.899  67.700  1.00  0.00    -0.225 C  
HETATM    3  N   UNL     1     -10.827   8.753  68.505  1.00  0.00    -0.442 NA 
HETATM    4  C   UNL     1      -9.332  10.765  68.444  1.00  0.00    -0.167 C  
HETATM    5  C   UNL     1     -11.607  10.763  67.427  1.00  0.00     0.070 C  
HETATM    6  H   UNL     1     -11.803   8.650  68.781  1.00  0.00     0.000 HD 
ENDROOT
BRANCH   3   7
HETATM    7  C   UNL     1      -9.800   7.766  68.888  1.00  0.00    -0.166 C  
BRANCH   7   8
HETATM    8  C   UNL     1     -10.299   6.290  68.979  1.00  0.00    -0.206 C  
HETATM    9  H   UNL     1     -11.834   5.323  68.302  1.00  0.00     0.000 HD 
HETATM   10  O   UNL     1     -11.531   6.221  68.246  1.00  0.00    -0.177 OA 
BRANCH   8  11
HETATM   11  C   UNL     1     -10.473   5.737  70.391  1.00  0.00    -0.342 A  
HETATM   12  C   UNL     1      -9.794   4.567  70.777  1.00  0.00    -0.280 A  
HETATM   13  C   UNL     1      -9.891   4.035  72.076  1.00  0.00    -0.242 A  
HETATM   14  C   UNL     1     -10.790   4.637  72.962  1.00  0.00    -0.247 A  
HETATM   15  H   UNL     1     -11.617   4.557  74.823  1.00  0.00     0.000 HD 
HETATM   16  C   UNL     1     -11.506   5.768  72.597  1.00  0.00    -0.337 A  
HETATM   17  O   UNL     1     -11.007   4.148  74.220  1.00  0.00    -0.191 OA 
HETATM   18  C   UNL     1     -11.328   6.333  71.330  1.00  0.00    -0.353 A  
BRANCH  13  19
HETATM   19  C   UNL     1      -9.068   2.825  72.427  1.00  0.00    -0.087 C  
HETATM   20  O   UNL     1      -7.855   2.807  71.676  1.00  0.00    -0.047 OA 
HETATM   21  H   UNL     1      -7.336   2.043  71.897  1.00  0.00     0.000 HD 
ENDBRANCH  13  19
ENDBRANCH   8  11
ENDBRANCH   7   8
ENDBRANCH   3   7
TORSDOF 4
ENDMDL
MODEL      255
REMARK 921   NORMALIZED FREE ENERGY PREDICTED BY IDOCK:   -2.73 KCAL/MOL
REMARK 922        TOTAL FREE ENERGY PREDICTED BY IDOCK:   -4.08 KCAL/MOL
REMARK 923 INTER-LIGAND FREE ENERGY PREDICTED BY IDOCK:   -3.37 KCAL/MOL
REMARK 924 INTRA-LIGAND FREE ENERGY PREDICTED BY IDOCK:   -0.70 KCAL/MOL
REMARK 927      BINDING AFFINITY PREDICTED BY RF-SCORE:    0.00 PKD
ROOT
HETATM    1  C   UNL     1      -9.409   5.031  73.854  1.00  0.00    -0.124 C  
HETATM    2  C   UNL     1      -9.588   5.408  72.374  1.00  0.00    -0.150 C  
HETATM    3  N   UNL     1     -10.680   6.388  72.199  1.00  0.00    -0.220 NA 
HETATM    4  C   UNL     1      -8.257   5.893  71.783  1.00  0.00    -0.119 C  
HETATM    5  C   UNL     1     -10.025   4.146  71.602  1.00  0.00    -0.240 C  
HETATM    6  H   UNL     1     -11.512   6.176  71.649  1.00  0.00     0.000 HD 
ENDROOT
BRANCH   3   7
HETATM    7  C   UNL     1     -10.495   7.691  72.864  1.00  0.00    -0.336 C  
BRANCH   7   8
HETATM    8  C   UNL     1     -11.018   8.925  72.064  1.00  0.00    -0.342 C  
HETATM    9  H   UNL     1     -12.732   9.448  71.328  1.00  0.00     0.000 HD 
HETATM   10  O   UNL     1     -12.413   8.698  71.814  1.00  0.00    -0.309 OA 
BRANCH   8  11
HETATM   11  C   UNL     1     -10.277   9.235  70.767  1.00  0.00    -0.353 A  
HETATM   12  C   UNL     1      -8.872   9.170  70.727  1.00  0.00    -0.291 A  
HETATM   13  C   UNL     1      -8.141   9.411  69.549  1.00  0.00    -0.114 A  
HETATM   14  C   UNL     1      -8.845   9.845  68.421  1.00  0.00    -0.120 A  
HETATM   15  H   UNL     1      -8.693  10.468  66.487  1.00  0.00     0.000 HD 
HETATM   16  C   UNL     1     -10.227   9.959  68.441  1.00  0.00    -0.203 A  
HETATM   17  O   UNL     1      -8.215  10.173  67.253  1.00  0.00    -0.117 OA 
HETATM   18  C   UNL     1     -10.943   9.629  69.597  1.00  0.00    -0.253 A  
BRANCH  13  19
HETATM   19  C   UNL     1      -6.646   9.241  69.576  1.00  0.00    -0.043 C  
HETATM   20  O   UNL     1      -5.998  10.419  69.099  1.00  0.00    -0.037 OA 
HETATM   21  H   UNL     1      -5.054  10.313  69.116  1.00  0.00     0.000 HD 
ENDBRANCH  13  19
ENDBRANCH   8  11
ENDBRANCH   7   8
ENDBRANCH   3   7
TORSDOF 4
ENDMDL
MODEL      256
REMARK 921   NORMALIZED FREE ENERGY PREDICTED BY IDOCK:   -2.71 KCAL/MOL
REMARK 922        TOTAL FREE ENERGY PREDICTED BY IDOCK:   -4.06 KCAL/MOL
REMARK 923 INTER-LIGAND FREE ENERGY PREDICTED BY IDOCK:   -3.66 KCAL/MOL
REMARK 924 INTRA-LIGAND FREE ENERGY PREDICTED BY IDOCK:   -0.39 KCAL/MOL
REMARK 927      BINDING AFFINITY PREDICTED BY RF-SCORE:    0.00 PKD
ROOT
HETATM    1  C   UNL     1     -11.253  15.109  71.682  1.00  0.00    -0.312 C  
HETATM    2  C   UNL     1     -12.414  14.264  71.134  1.00  0.00    -0.362 C  
HETATM    3  N   UNL     1     -12.259  14.016  69.685  1.00  0.00    -0.346 NA 
HETATM    4  C   UNL     1     -12.559  12.967  71.943  1.00  0.00    -0.089 C  
HETATM    5  C   UNL     1     -13.718  15.075  71.287  1.00  0.00    -0.523 C  
HETATM    6  H   UNL     1     -12.941  14.351  69.005  1.00  0.00     0.000 HD 
ENDROOT
BRANCH   3   7
HETATM    7  C   UNL     1     -11.062  13.255  69.282  1.00  0.00    -0.153 C  
BRANCH   7   8
HETATM    8  C   UNL     1     -11.320  11.763  68.902  1.00  0.00    -0.267 C  
HETATM    9  H   UNL     1     -12.898  10.654  68.716  1.00  0.00     0.000 HD 
HETATM   10  O   UNL     1     -12.741  11.562  68.947  1.00  0.00    -0.017 OA 
BRANCH   8  11
HETATM   11  C   UNL     1     -10.596  10.729  69.759  1.00  0.00    -0.191 A  
HETATM   12  C   UNL     1     -11.334   9.835  70.556  1.00  0.00    -0.382 A  
HETATM   13  C   UNL     1     -10.718   8.839  71.336  1.00  0.00    -0.356 A  
HETATM   14  C   UNL     1      -9.321   8.829  71.399  1.00  0.00    -0.258 A  
HETATM   15  H   UNL     1      -7.686   7.940  72.229  1.00  0.00     0.000 HD 
HETATM   16  C   UNL     1      -8.566   9.725  70.656  1.00  0.00     0.122 A  
HETATM   17  O   UNL     1      -8.635   7.947  72.186  1.00  0.00    -0.120 OA 
HETATM   18  C   UNL     1      -9.196  10.650  69.818  1.00  0.00     0.242 A  
BRANCH  13  19
HETATM   19  C   UNL     1     -11.587   7.875  72.098  1.00  0.00    -0.328 C  
HETATM   20  O   UNL     1     -12.863   7.747  71.474  1.00  0.00    -0.326 OA 
HETATM   21  H   UNL     1     -13.412   7.138  71.955  1.00  0.00     0.000 HD 
ENDBRANCH  13  19
ENDBRANCH   8  11
ENDBRANCH   7   8
ENDBRANCH   3   7
TORSDOF 4
ENDMDL
MODEL      257
REMARK 921   NORMALIZED FREE ENERGY PREDICTED BY IDOCK:   -2.65 KCAL/MOL
REMARK 922        TOTAL FREE ENERGY PREDICTED BY IDOCK:   -3.98 KCAL/MOL
REMARK 923 INTER-LIGAND FREE ENERGY PREDICTED BY IDOCK:   -3.25 KCAL/MOL
REMARK 924 INTRA-LIGAND FREE ENERGY PREDICTED BY IDOCK:   -0.73 KCAL/MOL
REMARK 927      BINDING AFFINITY PREDICTED BY RF-SCORE:    0.00 PKD
ROOT
HETATM    1  C   UNL     1      -8.612   9.088  65.822  1.00  0.00    -0.180 C  
HETATM    2  C   UNL     1      -7.430   8.687  66.720  1.00  0.00    -0.086 C  
HETATM    3  N   UNL     1      -7.086   9.766  67.668  1.00  0.00    -0.087 NA 
HETATM    4  C   UNL     1      -7.724   7.354  67.423  1.00  0.00    -0.114 C  
HETATM    5  C   UNL     1      -6.187   8.496  65.827  1.00  0.00    -0.052 C  
HETATM    6  H   UNL     1      -6.176  10.225  67.656  1.00  0.00     0.000 HD 
ENDROOT
BRANCH   3   7
HETATM    7  C   UNL     1      -8.136  10.142  68.633  1.00  0.00    -0.109 C  
BRANCH   7   8
HETATM    8  C   UNL     1      -7.796   9.857  70.129  1.00  0.00    -0.171 C  
HETATM    9  H   UNL     1      -6.240   9.194  71.073  1.00  0.00     0.000 HD 
HETATM   10  O   UNL     1      -6.447   9.368  70.163  1.00  0.00    -0.047 OA 
BRANCH   8  11
HETATM   11  C   UNL     1      -8.740   8.900  70.851  1.00  0.00    -0.256 A  
HETATM   12  C   UNL     1      -9.717   8.194  70.125  1.00  0.00    -0.175 A  
HETATM   13  C   UNL     1     -10.588   7.273  70.735  1.00  0.00    -0.237 A  
HETATM   14  C   UNL     1     -10.546   7.158  72.128  1.00  0.00    -0.210 A  
HETATM   15  H   UNL     1     -11.372   6.265  73.763  1.00  0.00     0.000 HD 
HETATM   16  C   UNL     1      -9.621   7.872  72.877  1.00  0.00    -0.329 A  
HETATM   17  O   UNL     1     -11.401   6.344  72.817  1.00  0.00    -0.251 OA 
HETATM   18  C   UNL     1      -8.704   8.715  72.241  1.00  0.00    -0.193 A  
BRANCH  13  19
HETATM   19  C   UNL     1     -11.550   6.503  69.871  1.00  0.00    -0.368 C  
HETATM   20  O   UNL     1     -12.898   6.774  70.254  1.00  0.00    -0.388 OA 
HETATM   21  H   UNL     1     -13.505   6.288  69.709  1.00  0.00     0.000 HD 
ENDBRANCH  13  19
ENDBRANCH   8  11
ENDBRANCH   7   8
ENDBRANCH   3   7
TORSDOF 4
ENDMDL
MODEL      258
REMARK 921   NORMALIZED FREE ENERGY PREDICTED BY IDOCK:   -2.62 KCAL/MOL
REMARK 922        TOTAL FREE ENERGY PREDICTED BY IDOCK:   -3.94 KCAL/MOL
REMARK 923 INTER-LIGAND FREE ENERGY PREDICTED BY IDOCK:   -3.57 KCAL/MOL
REMARK 924 INTRA-LIGAND FREE ENERGY PREDICTED BY IDOCK:   -0.37 KCAL/MOL
REMARK 927      BINDING AFFINITY PREDICTED BY RF-SCORE:    0.00 PKD
ROOT
HETATM    1  C   UNL     1      -8.807   4.806  72.024  1.00  0.00    -0.136 C  
HETATM    2  C   UNL     1      -9.558   5.409  73.223  1.00  0.00    -0.142 C  
HETATM    3  N   UNL     1      -9.312   6.862  73.334  1.00  0.00    -0.143 NA 
HETATM    4  C   UNL     1     -11.053   5.067  73.143  1.00  0.00    -0.395 C  
HETATM    5  C   UNL     1      -8.990   4.784  74.514  1.00  0.00    -0.111 C  
HETATM    6  H   UNL     1      -8.856   7.271  74.149  1.00  0.00     0.000 HD 
ENDROOT
BRANCH   3   7
HETATM    7  C   UNL     1      -9.766   7.685  72.197  1.00  0.00    -0.173 C  
BRANCH   7   8
HETATM    8  C   UNL     1      -8.663   8.034  71.149  1.00  0.00    -0.132 C  
HETATM    9  H   UNL     1      -6.750   8.328  71.225  1.00  0.00     0.000 HD 
HETATM   10  O   UNL     1      -7.421   8.116  71.863  1.00  0.00    -0.077 OA 
BRANCH   8  11
HETATM   11  C   UNL     1      -8.905   9.299  70.331  1.00  0.00    -0.271 A  
HETATM   12  C   UNL     1     -10.218   9.688  70.010  1.00  0.00    -0.296 A  
HETATM   13  C   UNL     1     -10.499  10.864  69.290  1.00  0.00    -0.230 A  
HETATM   14  C   UNL     1      -9.419  11.593  68.782  1.00  0.00    -0.058 A  
HETATM   15  H   UNL     1      -8.859  13.202  67.665  1.00  0.00     0.000 HD 
HETATM   16  C   UNL     1      -8.112  11.211  69.046  1.00  0.00    -0.078 A  
HETATM   17  O   UNL     1      -9.593  12.707  68.010  1.00  0.00    -0.201 OA 
HETATM   18  C   UNL     1      -7.854  10.088  69.839  1.00  0.00    -0.185 A  
BRANCH  13  19
HETATM   19  C   UNL     1     -11.936  11.247  69.059  1.00  0.00    -0.325 C  
HETATM   20  O   UNL     1     -12.149  11.601  67.694  1.00  0.00    -0.615 OA 
HETATM   21  H   UNL     1     -13.057  11.843  67.548  1.00  0.00     0.000 HD 
ENDBRANCH  13  19
ENDBRANCH   8  11
ENDBRANCH   7   8
ENDBRANCH   3   7
TORSDOF 4
ENDMDL
MODEL      259
REMARK 921   NORMALIZED FREE ENERGY PREDICTED BY IDOCK:   -2.60 KCAL/MOL
REMARK 922        TOTAL FREE ENERGY PREDICTED BY IDOCK:   -3.91 KCAL/MOL
REMARK 923 INTER-LIGAND FREE ENERGY PREDICTED BY IDOCK:   -3.68 KCAL/MOL
REMARK 924 INTRA-LIGAND FREE ENERGY PREDICTED BY IDOCK:   -0.23 KCAL/MOL
REMARK 927      BINDING AFFINITY PREDICTED BY RF-SCORE:    0.00 PKD
ROOT
HETATM    1  C   UNL     1      -9.331   4.362  73.387  1.00  0.00    -0.126 C  
HETATM    2  C   UNL     1      -9.090   3.859  71.954  1.00  0.00    -0.117 C  
HETATM    3  N   UNL     1     -10.058   4.451  71.008  1.00  0.00    -0.166 NA 
HETATM    4  C   UNL     1      -7.632   4.107  71.540  1.00  0.00    -0.064 C  
HETATM    5  C   UNL     1      -9.346   2.338  71.925  1.00  0.00    -0.172 C  
HETATM    6  H   UNL     1     -10.718   3.878  70.482  1.00  0.00     0.000 HD 
ENDROOT
BRANCH   3   7
HETATM    7  C   UNL     1     -10.014   5.918  70.867  1.00  0.00    -0.187 C  
BRANCH   7   8
HETATM    8  C   UNL     1     -11.147   6.535  69.989  1.00  0.00    -0.363 C  
HETATM    9  H   UNL     1     -11.578   6.512  68.101  1.00  0.00     0.000 HD 
HETATM   10  O   UNL     1     -10.889   6.136  68.635  1.00  0.00    -0.277 OA 
BRANCH   8  11
HETATM   11  C   UNL     1     -11.311   8.049  70.089  1.00  0.00    -0.081 A  
HETATM   12  C   UNL     1     -10.759   8.883  69.100  1.00  0.00    -0.162 A  
HETATM   13  C   UNL     1     -10.912  10.282  69.124  1.00  0.00    -0.280 A  
HETATM   14  C   UNL     1     -11.534  10.851  70.240  1.00  0.00    -0.302 A  
HETATM   15  H   UNL     1     -12.086  12.591  71.146  1.00  0.00     0.000 HD 
HETATM   16  C   UNL     1     -12.052  10.057  71.253  1.00  0.00    -0.487 A  
HETATM   17  O   UNL     1     -11.663  12.204  70.388  1.00  0.00    -0.255 OA 
HETATM   18  C   UNL     1     -11.968   8.664  71.166  1.00  0.00    -0.320 A  
BRANCH  13  19
HETATM   19  C   UNL     1     -10.356  11.092  67.984  1.00  0.00    -0.185 C  
HETATM   20  O   UNL     1      -8.999  10.734  67.727  1.00  0.00    -0.135 OA 
HETATM   21  H   UNL     1      -8.649  11.245  67.007  1.00  0.00     0.000 HD 
ENDBRANCH  13  19
ENDBRANCH   8  11
ENDBRANCH   7   8
ENDBRANCH   3   7
TORSDOF 4
ENDMDL
MODEL      260
REMARK 921   NORMALIZED FREE ENERGY PREDICTED BY IDOCK:   -2.57 KCAL/MOL
REMARK 922        TOTAL FREE ENERGY PREDICTED BY IDOCK:   -3.89 KCAL/MOL
REMARK 923 INTER-LIGAND FREE ENERGY PREDICTED BY IDOCK:   -3.53 KCAL/MOL
REMARK 924 INTRA-LIGAND FREE ENERGY PREDICTED BY IDOCK:   -0.36 KCAL/MOL
REMARK 927      BINDING AFFINITY PREDICTED BY RF-SCORE:    0.00 PKD
ROOT
HETATM    1  C   UNL     1      -8.599  11.072  66.891  1.00  0.00    -0.143 C  
HETATM    2  C   UNL     1      -9.956  10.410  66.601  1.00  0.00    -0.210 C  
HETATM    3  N   UNL     1      -9.805   8.960  66.361  1.00  0.00    -0.265 NA 
HETATM    4  C   UNL     1     -10.953  10.722  67.726  1.00  0.00    -0.354 C  
HETATM    5  C   UNL     1     -10.512  11.000  65.289  1.00  0.00    -0.316 C  
HETATM    6  H   UNL     1     -10.055   8.532  65.470  1.00  0.00     0.000 HD 
ENDROOT
BRANCH   3   7
HETATM    7  C   UNL     1      -9.272   8.168  67.485  1.00  0.00    -0.137 C  
BRANCH   7   8
HETATM    8  C   UNL     1      -8.013   7.308  67.153  1.00  0.00    -0.110 C  
HETATM    9  H   UNL     1      -6.614   7.393  65.816  1.00  0.00     0.000 HD 
HETATM   10  O   UNL     1      -7.380   7.917  66.018  1.00  0.00    -0.071 OA 
BRANCH   8  11
HETATM   11  C   UNL     1      -8.274   5.825  66.901  1.00  0.00    -0.101 A  
HETATM   12  C   UNL     1      -9.235   5.431  65.952  1.00  0.00    -0.165 A  
HETATM   13  C   UNL     1      -9.488   4.080  65.655  1.00  0.00    -0.176 A  
HETATM   14  C   UNL     1      -8.838   3.109  66.424  1.00  0.00    -0.143 A  
HETATM   15  H   UNL     1      -8.633   1.113  66.780  1.00  0.00     0.000 HD 
HETATM   16  C   UNL     1      -7.915   3.467  67.396  1.00  0.00    -0.081 A  
HETATM   17  O   UNL     1      -9.074   1.773  66.258  1.00  0.00    -0.113 OA 
HETATM   18  C   UNL     1      -7.612   4.814  67.615  1.00  0.00    -0.079 A  
BRANCH  13  19
HETATM   19  C   UNL     1     -10.477   3.749  64.570  1.00  0.00    -0.182 C  
HETATM   20  O   UNL     1     -11.643   4.562  64.687  1.00  0.00    -0.877 OA 
HETATM   21  H   UNL     1     -12.268   4.354  64.002  1.00  0.00     0.000 HD 
ENDBRANCH  13  19
ENDBRANCH   8  11
ENDBRANCH   7   8
ENDBRANCH   3   7
TORSDOF 4
ENDMDL
MODEL      261
REMARK 921   NORMALIZED FREE ENERGY PREDICTED BY IDOCK:   -2.57 KCAL/MOL
REMARK 922        TOTAL FREE ENERGY PREDICTED BY IDOCK:   -3.88 KCAL/MOL
REMARK 923 INTER-LIGAND FREE ENERGY PREDICTED BY IDOCK:   -3.43 KCAL/MOL
REMARK 924 INTRA-LIGAND FREE ENERGY PREDICTED BY IDOCK:   -0.45 KCAL/MOL
REMARK 927      BINDING AFFINITY PREDICTED BY RF-SCORE:    0.00 PKD
ROOT
HETATM    1  C   UNL     1      -8.593   4.585  71.932  1.00  0.00    -0.121 C  
HETATM    2  C   UNL     1      -9.175   5.050  73.277  1.00  0.00    -0.128 C  
HETATM    3  N   UNL     1      -8.784   6.443  73.577  1.00  0.00    -0.124 NA 
HETATM    4  C   UNL     1     -10.696   4.845  73.299  1.00  0.00    -0.316 C  
HETATM    5  C   UNL     1      -8.556   4.187  74.396  1.00  0.00    -0.095 C  
HETATM    6  H   UNL     1      -8.221   6.682  74.393  1.00  0.00     0.000 HD 
ENDROOT
BRANCH   3   7
HETATM    7  C   UNL     1      -9.256   7.469  72.628  1.00  0.00    -0.152 C  
BRANCH   7   8
HETATM    8  C   UNL     1      -8.216   7.902  71.548  1.00  0.00    -0.109 C  
HETATM    9  H   UNL     1      -6.942   9.352  71.383  1.00  0.00     0.000 HD 
HETATM   10  O   UNL     1      -7.575   9.089  72.040  1.00  0.00    -0.343 OA 
BRANCH   8  11
HETATM   11  C   UNL     1      -8.773   8.127  70.145  1.00  0.00    -0.130 A  
HETATM   12  C   UNL     1      -9.665   7.195  69.585  1.00  0.00    -0.158 A  
HETATM   13  C   UNL     1     -10.237   7.372  68.312  1.00  0.00    -0.213 A  
HETATM   14  C   UNL     1      -9.799   8.456  67.544  1.00  0.00    -0.181 A  
HETATM   15  H   UNL     1      -9.944   9.406  65.747  1.00  0.00     0.000 HD 
HETATM   16  C   UNL     1      -8.887   9.370  68.053  1.00  0.00    -0.124 A  
HETATM   17  O   UNL     1     -10.241   8.669  66.269  1.00  0.00    -0.264 OA 
HETATM   18  C   UNL     1      -8.399   9.225  69.355  1.00  0.00    -0.127 A  
BRANCH  13  19
HETATM   19  C   UNL     1     -11.243   6.366  67.823  1.00  0.00    -0.152 C  
HETATM   20  O   UNL     1     -11.107   6.160  66.418  1.00  0.00    -0.697 OA 
HETATM   21  H   UNL     1     -11.742   5.525  66.108  1.00  0.00     0.000 HD 
ENDBRANCH  13  19
ENDBRANCH   8  11
ENDBRANCH   7   8
ENDBRANCH   3   7
TORSDOF 4
ENDMDL
MODEL      262
REMARK 921   NORMALIZED FREE ENERGY PREDICTED BY IDOCK:   -2.55 KCAL/MOL
REMARK 922        TOTAL FREE ENERGY PREDICTED BY IDOCK:   -3.86 KCAL/MOL
REMARK 923 INTER-LIGAND FREE ENERGY PREDICTED BY IDOCK:   -3.45 KCAL/MOL
REMARK 924 INTRA-LIGAND FREE ENERGY PREDICTED BY IDOCK:   -0.41 KCAL/MOL
REMARK 927      BINDING AFFINITY PREDICTED BY RF-SCORE:    0.00 PKD
ROOT
HETATM    1  C   UNL     1     -10.770   5.124  72.816  1.00  0.00    -0.294 C  
HETATM    2  C   UNL     1     -10.717   6.449  72.038  1.00  0.00    -0.227 C  
HETATM    3  N   UNL     1      -9.325   6.905  71.848  1.00  0.00    -0.142 NA 
HETATM    4  C   UNL     1     -11.483   6.320  70.713  1.00  0.00    -0.383 C  
HETATM    5  C   UNL     1     -11.407   7.536  72.887  1.00  0.00    -0.355 C  
HETATM    6  H   UNL     1      -8.988   7.786  72.237  1.00  0.00     0.000 HD 
ENDROOT
BRANCH   3   7
HETATM    7  C   UNL     1      -8.451   6.014  71.064  1.00  0.00    -0.124 C  
BRANCH   7   8
HETATM    8  C   UNL     1      -7.544   6.729  70.014  1.00  0.00    -0.100 C  
HETATM    9  H   UNL     1      -6.119   8.038  70.105  1.00  0.00     0.000 HD 
HETATM   10  O   UNL     1      -6.671   7.603  70.744  1.00  0.00    -0.042 OA 
BRANCH   8  11
HETATM   11  C   UNL     1      -8.279   7.488  68.913  1.00  0.00    -0.128 A  
HETATM   12  C   UNL     1      -8.918   8.707  69.205  1.00  0.00    -0.145 A  
HETATM   13  C   UNL     1      -9.578   9.465  68.221  1.00  0.00    -0.156 A  
HETATM   14  C   UNL     1      -9.695   8.914  66.941  1.00  0.00    -0.202 A  
HETATM   15  H   UNL     1     -10.460   9.167  65.069  1.00  0.00     0.000 HD 
HETATM   16  C   UNL     1      -9.111   7.693  66.632  1.00  0.00    -0.198 A  
HETATM   17  O   UNL     1     -10.380   9.541  65.939  1.00  0.00    -0.206 OA 
HETATM   18  C   UNL     1      -8.383   6.997  67.602  1.00  0.00    -0.117 A  
BRANCH  13  19
HETATM   19  C   UNL     1     -10.167  10.796  68.605  1.00  0.00    -0.185 C  
HETATM   20  O   UNL     1     -10.552  10.798  69.978  1.00  0.00    -0.450 OA 
HETATM   21  H   UNL     1     -10.923  11.638  70.221  1.00  0.00     0.000 HD 
ENDBRANCH  13  19
ENDBRANCH   8  11
ENDBRANCH   7   8
ENDBRANCH   3   7
TORSDOF 4
ENDMDL
MODEL      263
REMARK 921   NORMALIZED FREE ENERGY PREDICTED BY IDOCK:   -2.55 KCAL/MOL
REMARK 922        TOTAL FREE ENERGY PREDICTED BY IDOCK:   -3.86 KCAL/MOL
REMARK 923 INTER-LIGAND FREE ENERGY PREDICTED BY IDOCK:   -3.83 KCAL/MOL
REMARK 924 INTRA-LIGAND FREE ENERGY PREDICTED BY IDOCK:   -0.03 KCAL/MOL
REMARK 927      BINDING AFFINITY PREDICTED BY RF-SCORE:    0.00 PKD
ROOT
HETATM    1  C   UNL     1     -10.377   8.255  69.261  1.00  0.00    -0.223 C  
HETATM    2  C   UNL     1     -10.730   9.301  70.331  1.00  0.00    -0.251 C  
HETATM    3  N   UNL     1     -10.548  10.675  69.819  1.00  0.00    -0.386 NA 
HETATM    4  C   UNL     1     -12.147   9.054  70.870  1.00  0.00    -0.247 C  
HETATM    5  C   UNL     1      -9.737   9.150  71.502  1.00  0.00    -0.313 C  
HETATM    6  H   UNL     1      -9.877  11.320  70.233  1.00  0.00     0.000 HD 
ENDROOT
BRANCH   3   7
HETATM    7  C   UNL     1     -11.394  11.058  68.673  1.00  0.00    -0.281 C  
BRANCH   7   8
HETATM    8  C   UNL     1     -11.436  12.586  68.361  1.00  0.00    -0.312 C  
HETATM    9  H   UNL     1     -12.424  13.701  67.121  1.00  0.00     0.000 HD 
HETATM   10  O   UNL     1     -12.398  12.770  67.311  1.00  0.00    -0.335 OA 
BRANCH   8  11
HETATM   11  C   UNL     1     -10.099  13.223  67.992  1.00  0.00    -0.235 A  
HETATM   12  C   UNL     1      -8.899  12.663  68.465  1.00  0.00    -0.044 A  
HETATM   13  C   UNL     1      -7.638  13.188  68.126  1.00  0.00    -0.141 A  
HETATM   14  C   UNL     1      -7.603  14.376  67.390  1.00  0.00    -0.172 A  
HETATM   15  H   UNL     1      -6.404  15.808  66.574  1.00  0.00     0.000 HD 
HETATM   16  C   UNL     1      -8.771  14.976  66.943  1.00  0.00    -0.285 A  
HETATM   17  O   UNL     1      -6.429  15.001  67.074  1.00  0.00    -0.200 OA 
HETATM   18  C   UNL     1     -10.011  14.389  67.216  1.00  0.00    -0.247 A  
BRANCH  13  19
HETATM   19  C   UNL     1      -6.403  12.479  68.612  1.00  0.00    -0.073 C  
HETATM   20  O   UNL     1      -5.673  13.305  69.518  1.00  0.00    -0.083 OA 
HETATM   21  H   UNL     1      -4.893  12.858  69.825  1.00  0.00     0.000 HD 
ENDBRANCH  13  19
ENDBRANCH   8  11
ENDBRANCH   7   8
ENDBRANCH   3   7
TORSDOF 4
ENDMDL
MODEL      264
REMARK 921   NORMALIZED FREE ENERGY PREDICTED BY IDOCK:   -2.55 KCAL/MOL
REMARK 922        TOTAL FREE ENERGY PREDICTED BY IDOCK:   -3.85 KCAL/MOL
REMARK 923 INTER-LIGAND FREE ENERGY PREDICTED BY IDOCK:   -3.26 KCAL/MOL
REMARK 924 INTRA-LIGAND FREE ENERGY PREDICTED BY IDOCK:   -0.60 KCAL/MOL
REMARK 927      BINDING AFFINITY PREDICTED BY RF-SCORE:    0.00 PKD
ROOT
HETATM    1  C   UNL     1      -9.372  10.063  66.505  1.00  0.00    -0.201 C  
HETATM    2  C   UNL     1     -10.336  10.206  67.695  1.00  0.00    -0.219 C  
HETATM    3  N   UNL     1     -11.036   8.935  67.974  1.00  0.00    -0.483 NA 
HETATM    4  C   UNL     1      -9.591  10.752  68.922  1.00  0.00    -0.204 C  
HETATM    5  C   UNL     1     -11.434  11.218  67.310  1.00  0.00    -0.265 C  
HETATM    6  H   UNL     1     -12.050   8.851  67.904  1.00  0.00     0.000 HD 
ENDROOT
BRANCH   3   7
HETATM    7  C   UNL     1     -10.183   7.795  68.360  1.00  0.00    -0.200 C  
BRANCH   7   8
HETATM    8  C   UNL     1     -10.526   7.146  69.737  1.00  0.00    -0.225 C  
HETATM    9  H   UNL     1     -12.134   6.970  70.802  1.00  0.00     0.000 HD 
HETATM   10  O   UNL     1     -11.926   7.365  69.964  1.00  0.00     0.062 OA 
BRANCH   8  11
HETATM   11  C   UNL     1      -9.699   7.636  70.923  1.00  0.00    -0.175 A  
HETATM   12  C   UNL     1      -8.324   7.889  70.766  1.00  0.00    -0.115 A  
HETATM   13  C   UNL     1      -7.524   8.376  71.816  1.00  0.00    -0.124 A  
HETATM   14  C   UNL     1      -8.108   8.494  73.081  1.00  0.00    -0.012 A  
HETATM   15  H   UNL     1      -7.790   8.970  75.037  1.00  0.00     0.000 HD 
HETATM   16  C   UNL     1      -9.452   8.213  73.277  1.00  0.00    -0.290 A  
HETATM   17  O   UNL     1      -7.393   8.889  74.177  1.00  0.00    -0.406 OA 
HETATM   18  C   UNL     1     -10.252   7.815  72.201  1.00  0.00    -0.269 A  
BRANCH  13  19
HETATM   19  C   UNL     1      -6.079   8.693  71.539  1.00  0.00    -0.054 C  
HETATM   20  O   UNL     1      -5.968   9.848  70.709  1.00  0.00    -0.075 OA 
HETATM   21  H   UNL     1      -5.056  10.049  70.534  1.00  0.00     0.000 HD 
ENDBRANCH  13  19
ENDBRANCH   8  11
ENDBRANCH   7   8
ENDBRANCH   3   7
TORSDOF 4
ENDMDL
MODEL      265
REMARK 921   NORMALIZED FREE ENERGY PREDICTED BY IDOCK:   -2.53 KCAL/MOL
REMARK 922        TOTAL FREE ENERGY PREDICTED BY IDOCK:   -3.83 KCAL/MOL
REMARK 923 INTER-LIGAND FREE ENERGY PREDICTED BY IDOCK:   -3.34 KCAL/MOL
REMARK 924 INTRA-LIGAND FREE ENERGY PREDICTED BY IDOCK:   -0.49 KCAL/MOL
REMARK 927      BINDING AFFINITY PREDICTED BY RF-SCORE:    0.00 PKD
ROOT
HETATM    1  C   UNL     1     -10.649  11.398  67.395  1.00  0.00    -0.257 C  
HETATM    2  C   UNL     1      -9.295  11.226  68.103  1.00  0.00    -0.181 C  
HETATM    3  N   UNL     1      -9.471  11.015  69.555  1.00  0.00    -0.379 NA 
HETATM    4  C   UNL     1      -8.484  10.105  67.437  1.00  0.00    -0.122 C  
HETATM    5  C   UNL     1      -8.504  12.542  67.960  1.00  0.00    -0.173 C  
HETATM    6  H   UNL     1      -9.098  11.666  70.244  1.00  0.00     0.000 HD 
ENDROOT
BRANCH   3   7
HETATM    7  C   UNL     1     -10.219   9.806  69.948  1.00  0.00    -0.254 C  
BRANCH   7   8
HETATM    8  C   UNL     1      -9.536   8.930  71.045  1.00  0.00    -0.252 C  
HETATM    9  H   UNL     1      -7.785   8.900  71.874  1.00  0.00     0.000 HD 
HETATM   10  O   UNL     1      -8.201   9.433  71.207  1.00  0.00    -0.315 OA 
BRANCH   8  11
HETATM   11  C   UNL     1      -9.523   7.428  70.778  1.00  0.00    -0.167 A  
HETATM   12  C   UNL     1      -9.018   6.933  69.562  1.00  0.00    -0.143 A  
HETATM   13  C   UNL     1      -8.949   5.556  69.280  1.00  0.00    -0.125 A  
HETATM   14  C   UNL     1      -9.517   4.672  70.203  1.00  0.00    -0.176 A  
HETATM   15  H   UNL     1      -9.949   2.723  70.611  1.00  0.00     0.000 HD 
HETATM   16  C   UNL     1     -10.061   5.133  71.394  1.00  0.00    -0.265 A  
HETATM   17  O   UNL     1      -9.564   3.324  69.984  1.00  0.00    -0.175 OA 
HETATM   18  C   UNL     1     -10.038   6.498  71.695  1.00  0.00    -0.202 A  
BRANCH  13  19
HETATM   19  C   UNL     1      -8.321   5.111  67.987  1.00  0.00    -0.097 C  
HETATM   20  O   UNL     1      -6.901   5.229  68.051  1.00  0.00    -0.057 OA 
HETATM   21  H   UNL     1      -6.504   4.949  67.235  1.00  0.00     0.000 HD 
ENDBRANCH  13  19
ENDBRANCH   8  11
ENDBRANCH   7   8
ENDBRANCH   3   7
TORSDOF 4
ENDMDL
MODEL      266
REMARK 921   NORMALIZED FREE ENERGY PREDICTED BY IDOCK:   -2.52 KCAL/MOL
REMARK 922        TOTAL FREE ENERGY PREDICTED BY IDOCK:   -3.82 KCAL/MOL
REMARK 923 INTER-LIGAND FREE ENERGY PREDICTED BY IDOCK:   -3.63 KCAL/MOL
REMARK 924 INTRA-LIGAND FREE ENERGY PREDICTED BY IDOCK:   -0.19 KCAL/MOL
REMARK 927      BINDING AFFINITY PREDICTED BY RF-SCORE:    0.00 PKD
ROOT
HETATM    1  C   UNL     1     -10.620   4.558  65.376  1.00  0.00    -0.195 C  
HETATM    2  C   UNL     1      -9.148   4.768  64.983  1.00  0.00    -0.150 C  
HETATM    3  N   UNL     1      -8.760   6.189  65.094  1.00  0.00    -0.339 NA 
HETATM    4  C   UNL     1      -8.239   3.841  65.803  1.00  0.00    -0.105 C  
HETATM    5  C   UNL     1      -8.988   4.401  63.493  1.00  0.00    -0.139 C  
HETATM    6  H   UNL     1      -8.454   6.730  64.286  1.00  0.00     0.000 HD 
ENDROOT
BRANCH   3   7
HETATM    7  C   UNL     1      -8.841   6.780  66.443  1.00  0.00    -0.144 C  
BRANCH   7   8
HETATM    8  C   UNL     1     -10.287   6.966  67.001  1.00  0.00    -0.278 C  
HETATM    9  H   UNL     1     -11.503   8.465  67.171  1.00  0.00     0.000 HD 
HETATM   10  O   UNL     1     -10.623   8.352  66.832  1.00  0.00    -0.305 OA 
BRANCH   8  11
HETATM   11  C   UNL     1     -10.500   6.526  68.446  1.00  0.00    -0.258 A  
HETATM   12  C   UNL     1     -10.001   5.286  68.885  1.00  0.00    -0.250 A  
HETATM   13  C   UNL     1     -10.138   4.848  70.215  1.00  0.00    -0.322 A  
HETATM   14  C   UNL     1     -10.901   5.632  71.085  1.00  0.00    -0.218 A  
HETATM   15  H   UNL     1     -11.670   5.787  72.966  1.00  0.00     0.000 HD 
HETATM   16  C   UNL     1     -11.442   6.841  70.671  1.00  0.00    -0.403 A  
HETATM   17  O   UNL     1     -11.151   5.254  72.375  1.00  0.00    -0.240 OA 
HETATM   18  C   UNL     1     -11.219   7.301  69.369  1.00  0.00    -0.019 A  
BRANCH  13  19
HETATM   19  C   UNL     1      -9.506   3.543  70.617  1.00  0.00    -0.173 C  
HETATM   20  O   UNL     1      -8.787   3.689  71.841  1.00  0.00    -0.092 OA 
HETATM   21  H   UNL     1      -8.388   2.866  72.095  1.00  0.00     0.000 HD 
ENDBRANCH  13  19
ENDBRANCH   8  11
ENDBRANCH   7   8
ENDBRANCH   3   7
TORSDOF 4
ENDMDL
MODEL      267
REMARK 921   NORMALIZED FREE ENERGY PREDICTED BY IDOCK:   -2.51 KCAL/MOL
REMARK 922        TOTAL FREE ENERGY PREDICTED BY IDOCK:   -3.81 KCAL/MOL
REMARK 923 INTER-LIGAND FREE ENERGY PREDICTED BY IDOCK:   -3.83 KCAL/MOL
REMARK 924 INTRA-LIGAND FREE ENERGY PREDICTED BY IDOCK:    0.01 KCAL/MOL
REMARK 927      BINDING AFFINITY PREDICTED BY RF-SCORE:    0.00 PKD
ROOT
HETATM    1  C   UNL     1      -9.885  12.449  64.091  1.00  0.00    -0.145 C  
HETATM    2  C   UNL     1     -11.260  12.029  64.635  1.00  0.00    -0.326 C  
HETATM    3  N   UNL     1     -11.705  12.926  65.721  1.00  0.00    -0.368 NA 
HETATM    4  C   UNL     1     -12.281  11.936  63.491  1.00  0.00    -0.591 C  
HETATM    5  C   UNL     1     -11.122  10.630  65.270  1.00  0.00     0.335 C  
HETATM    6  H   UNL     1     -11.867  12.586  66.669  1.00  0.00     0.000 HD 
ENDROOT
BRANCH   3   7
HETATM    7  C   UNL     1     -11.900  14.341  65.355  1.00  0.00    -0.363 C  
BRANCH   7   8
HETATM    8  C   UNL     1     -11.029  15.360  66.155  1.00  0.00    -0.279 C  
HETATM    9  H   UNL     1     -10.241  17.086  65.765  1.00  0.00     0.000 HD 
HETATM   10  O   UNL     1     -10.771  16.467  65.278  1.00  0.00    -0.501 OA 
BRANCH   8  11
HETATM   11  C   UNL     1      -9.728  14.808  66.732  1.00  0.00    -0.264 A  
HETATM   12  C   UNL     1      -9.730  13.586  67.429  1.00  0.00    -0.229 A  
HETATM   13  C   UNL     1      -8.554  13.015  67.949  1.00  0.00    -0.189 A  
HETATM   14  C   UNL     1      -7.373  13.759  67.863  1.00  0.00    -0.153 A  
HETATM   15  H   UNL     1      -5.394  13.826  68.344  1.00  0.00     0.000 HD 
HETATM   16  C   UNL     1      -7.347  14.987  67.217  1.00  0.00    -0.195 A  
HETATM   17  O   UNL     1      -6.197  13.320  68.403  1.00  0.00    -0.072 OA 
HETATM   18  C   UNL     1      -8.510  15.496  66.629  1.00  0.00    -0.314 A  
BRANCH  13  19
HETATM   19  C   UNL     1      -8.635  11.667  68.612  1.00  0.00    -0.086 C  
HETATM   20  O   UNL     1      -7.522  10.856  68.241  1.00  0.00    -0.086 OA 
HETATM   21  H   UNL     1      -7.572  10.005  68.660  1.00  0.00     0.000 HD 
ENDBRANCH  13  19
ENDBRANCH   8  11
ENDBRANCH   7   8
ENDBRANCH   3   7
TORSDOF 4
ENDMDL
MODEL      268
REMARK 921   NORMALIZED FREE ENERGY PREDICTED BY IDOCK:   -2.48 KCAL/MOL
REMARK 922        TOTAL FREE ENERGY PREDICTED BY IDOCK:   -3.77 KCAL/MOL
REMARK 923 INTER-LIGAND FREE ENERGY PREDICTED BY IDOCK:   -3.56 KCAL/MOL
REMARK 924 INTRA-LIGAND FREE ENERGY PREDICTED BY IDOCK:   -0.21 KCAL/MOL
REMARK 927      BINDING AFFINITY PREDICTED BY RF-SCORE:    0.00 PKD
ROOT
HETATM    1  C   UNL     1      -7.958   5.064  69.559  1.00  0.00    -0.075 C  
HETATM    2  C   UNL     1      -7.255   5.170  68.196  1.00  0.00    -0.067 C  
HETATM    3  N   UNL     1      -8.177   5.663  67.153  1.00  0.00    -0.102 NA 
HETATM    4  C   UNL     1      -5.986   6.026  68.316  1.00  0.00    -0.020 C  
HETATM    5  C   UNL     1      -6.838   3.752  67.755  1.00  0.00    -0.050 C  
HETATM    6  H   UNL     1      -8.420   5.101  66.337  1.00  0.00     0.000 HD 
ENDROOT
BRANCH   3   7
HETATM    7  C   UNL     1      -8.727   7.016  67.359  1.00  0.00    -0.120 C  
BRANCH   7   8
HETATM    8  C   UNL     1     -10.071   7.073  68.150  1.00  0.00    -0.169 C  
HETATM    9  H   UNL     1     -11.876   6.450  67.823  1.00  0.00     0.000 HD 
HETATM   10  O   UNL     1     -11.058   6.415  67.341  1.00  0.00    -0.363 OA 
BRANCH   8  11
HETATM   11  C   UNL     1     -10.541   8.467  68.556  1.00  0.00    -0.154 A  
HETATM   12  C   UNL     1     -10.669   9.477  67.585  1.00  0.00    -0.314 A  
HETATM   13  C   UNL     1     -11.132  10.768  67.898  1.00  0.00    -0.369 A  
HETATM   14  C   UNL     1     -11.355  11.073  69.245  1.00  0.00    -0.282 A  
HETATM   15  H   UNL     1     -11.887  12.527  70.569  1.00  0.00     0.000 HD 
HETATM   16  C   UNL     1     -11.197  10.110  70.231  1.00  0.00    -0.387 A  
HETATM   17  O   UNL     1     -11.735  12.320  69.654  1.00  0.00    -0.301 OA 
HETATM   18  C   UNL     1     -10.822   8.807  69.888  1.00  0.00    -0.211 A  
BRANCH  13  19
HETATM   19  C   UNL     1     -11.314  11.763  66.784  1.00  0.00    -0.320 C  
HETATM   20  O   UNL     1     -10.951  13.073  67.217  1.00  0.00    -0.255 OA 
HETATM   21  H   UNL     1     -11.065  13.702  66.514  1.00  0.00     0.000 HD 
ENDBRANCH  13  19
ENDBRANCH   8  11
ENDBRANCH   7   8
ENDBRANCH   3   7
TORSDOF 4
ENDMDL
MODEL      269
REMARK 921   NORMALIZED FREE ENERGY PREDICTED BY IDOCK:   -2.47 KCAL/MOL
REMARK 922        TOTAL FREE ENERGY PREDICTED BY IDOCK:   -3.75 KCAL/MOL
REMARK 923 INTER-LIGAND FREE ENERGY PREDICTED BY IDOCK:   -3.43 KCAL/MOL
REMARK 924 INTRA-LIGAND FREE ENERGY PREDICTED BY IDOCK:   -0.32 KCAL/MOL
REMARK 927      BINDING AFFINITY PREDICTED BY RF-SCORE:    0.00 PKD
ROOT
HETATM    1  C   UNL     1      -9.426   4.324  73.371  1.00  0.00    -0.125 C  
HETATM    2  C   UNL     1      -9.338   4.423  71.839  1.00  0.00    -0.137 C  
HETATM    3  N   UNL     1     -10.373   5.329  71.300  1.00  0.00    -0.225 NA 
HETATM    4  C   UNL     1      -7.919   4.827  71.412  1.00  0.00    -0.101 C  
HETATM    5  C   UNL     1      -9.641   3.032  71.245  1.00  0.00    -0.225 C  
HETATM    6  H   UNL     1     -11.098   5.001  70.661  1.00  0.00     0.000 HD 
ENDROOT
BRANCH   3   7
HETATM    7  C   UNL     1     -10.299   6.735  71.739  1.00  0.00    -0.199 C  
BRANCH   7   8
HETATM    8  C   UNL     1     -11.350   7.689  71.092  1.00  0.00    -0.266 C  
HETATM    9  H   UNL     1     -13.058   7.444  70.211  1.00  0.00     0.000 HD 
HETATM   10  O   UNL     1     -12.418   6.863  70.604  1.00  0.00    -0.321 OA 
BRANCH   8  11
HETATM   11  C   UNL     1     -10.824   8.604  69.990  1.00  0.00    -0.226 A  
HETATM   12  C   UNL     1     -10.599   8.094  68.699  1.00  0.00    -0.144 A  
HETATM   13  C   UNL     1     -10.149   8.902  67.638  1.00  0.00    -0.274 A  
HETATM   14  C   UNL     1      -9.806  10.226  67.927  1.00  0.00    -0.157 A  
HETATM   15  H   UNL     1      -9.058  11.966  67.175  1.00  0.00     0.000 HD 
HETATM   16  C   UNL     1      -9.976  10.748  69.201  1.00  0.00    -0.206 A  
HETATM   17  O   UNL     1      -9.291  11.066  66.979  1.00  0.00    -0.169 OA 
HETATM   18  C   UNL     1     -10.509   9.952  70.221  1.00  0.00    -0.348 A  
BRANCH  13  19
HETATM   19  C   UNL     1     -10.012   8.291  66.270  1.00  0.00    -0.109 C  
HETATM   20  O   UNL     1      -9.176   7.136  66.316  1.00  0.00    -0.195 OA 
HETATM   21  H   UNL     1      -9.089   6.750  65.453  1.00  0.00     0.000 HD 
ENDBRANCH  13  19
ENDBRANCH   8  11
ENDBRANCH   7   8
ENDBRANCH   3   7
TORSDOF 4
ENDMDL
MODEL      270
REMARK 921   NORMALIZED FREE ENERGY PREDICTED BY IDOCK:   -2.46 KCAL/MOL
REMARK 922        TOTAL FREE ENERGY PREDICTED BY IDOCK:   -3.75 KCAL/MOL
REMARK 923 INTER-LIGAND FREE ENERGY PREDICTED BY IDOCK:   -3.39 KCAL/MOL
REMARK 924 INTRA-LIGAND FREE ENERGY PREDICTED BY IDOCK:   -0.36 KCAL/MOL
REMARK 927      BINDING AFFINITY PREDICTED BY RF-SCORE:    0.00 PKD
ROOT
HETATM    1  C   UNL     1      -5.299  18.097  67.875  1.00  0.00    -0.152 C  
HETATM    2  C   UNL     1      -6.582  17.575  68.542  1.00  0.00    -0.198 C  
HETATM    3  N   UNL     1      -7.270  16.588  67.684  1.00  0.00    -0.130 NA 
HETATM    4  C   UNL     1      -6.269  17.025  69.941  1.00  0.00    -0.132 C  
HETATM    5  C   UNL     1      -7.562  18.756  68.698  1.00  0.00    -0.357 C  
HETATM    6  H   UNL     1      -8.210  16.750  67.324  1.00  0.00     0.000 HD 
ENDROOT
BRANCH   3   7
HETATM    7  C   UNL     1      -6.518  15.357  67.379  1.00  0.00    -0.080 C  
BRANCH   7   8
HETATM    8  C   UNL     1      -7.148  14.041  67.932  1.00  0.00    -0.160 C  
HETATM    9  H   UNL     1      -6.782  12.152  67.707  1.00  0.00     0.000 HD 
HETATM   10  O   UNL     1      -6.399  12.953  67.370  1.00  0.00    -0.161 OA 
BRANCH   8  11
HETATM   11  C   UNL     1      -8.642  13.863  67.675  1.00  0.00    -0.190 A  
HETATM   12  C   UNL     1      -9.576  14.271  68.644  1.00  0.00    -0.192 A  
HETATM   13  C   UNL     1     -10.964  14.164  68.443  1.00  0.00    -0.270 A  
HETATM   14  C   UNL     1     -11.408  13.519  67.285  1.00  0.00    -0.315 A  
HETATM   15  H   UNL     1     -13.037  12.865  66.249  1.00  0.00     0.000 HD 
HETATM   16  C   UNL     1     -10.510  13.068  66.328  1.00  0.00    -0.285 A  
HETATM   17  O   UNL     1     -12.735  13.303  67.036  1.00  0.00    -0.023 OA 
HETATM   18  C   UNL     1      -9.137  13.264  66.506  1.00  0.00    -0.130 A  
BRANCH  13  19
HETATM   19  C   UNL     1     -11.893  14.698  69.500  1.00  0.00    -0.330 C  
HETATM   20  O   UNL     1     -11.174  15.475  70.456  1.00  0.00    -0.286 OA 
HETATM   21  H   UNL     1     -11.760  15.813  71.123  1.00  0.00     0.000 HD 
ENDBRANCH  13  19
ENDBRANCH   8  11
ENDBRANCH   7   8
ENDBRANCH   3   7
TORSDOF 4
ENDMDL
MODEL      271
REMARK 921   NORMALIZED FREE ENERGY PREDICTED BY IDOCK:   -2.43 KCAL/MOL
REMARK 922        TOTAL FREE ENERGY PREDICTED BY IDOCK:   -3.71 KCAL/MOL
REMARK 923 INTER-LIGAND FREE ENERGY PREDICTED BY IDOCK:   -3.00 KCAL/MOL
REMARK 924 INTRA-LIGAND FREE ENERGY PREDICTED BY IDOCK:   -0.71 KCAL/MOL
REMARK 927      BINDING AFFINITY PREDICTED BY RF-SCORE:    0.00 PKD
ROOT
HETATM    1  C   UNL     1     -10.036  13.025  68.120  1.00  0.00    -0.231 C  
HETATM    2  C   UNL     1      -9.592  11.627  67.659  1.00  0.00    -0.181 C  
HETATM    3  N   UNL     1      -9.415  10.714  68.808  1.00  0.00    -0.176 NA 
HETATM    4  C   UNL     1     -10.570  11.075  66.611  1.00  0.00    -0.315 C  
HETATM    5  C   UNL     1      -8.203  11.753  67.001  1.00  0.00    -0.172 C  
HETATM    6  H   UNL     1      -8.512  10.297  69.031  1.00  0.00     0.000 HD 
ENDROOT
BRANCH   3   7
HETATM    7  C   UNL     1     -10.620  10.442  69.612  1.00  0.00    -0.253 C  
BRANCH   7   8
HETATM    8  C   UNL     1     -10.798   8.958  70.060  1.00  0.00    -0.227 C  
HETATM    9  H   UNL     1     -10.483   7.979  71.702  1.00  0.00     0.000 HD 
HETATM   10  O   UNL     1     -10.375   8.882  71.430  1.00  0.00    -0.251 OA 
BRANCH   8  11
HETATM   11  C   UNL     1     -10.074   7.919  69.208  1.00  0.00    -0.197 A  
HETATM   12  C   UNL     1      -8.933   7.268  69.711  1.00  0.00    -0.142 A  
HETATM   13  C   UNL     1      -8.250   6.277  68.983  1.00  0.00    -0.114 A  
HETATM   14  C   UNL     1      -8.664   6.029  67.670  1.00  0.00    -0.104 A  
HETATM   15  H   UNL     1      -8.299   4.969  65.969  1.00  0.00     0.000 HD 
HETATM   16  C   UNL     1      -9.761   6.685  67.131  1.00  0.00    -0.178 A  
HETATM   17  O   UNL     1      -8.018   5.138  66.860  1.00  0.00    -0.103 OA 
HETATM   18  C   UNL     1     -10.481   7.602  67.903  1.00  0.00    -0.270 A  
BRANCH  13  19
HETATM   19  C   UNL     1      -7.085   5.576  69.628  1.00  0.00    -0.064 C  
HETATM   20  O   UNL     1      -5.942   5.611  68.776  1.00  0.00    -0.021 OA 
HETATM   21  H   UNL     1      -5.206   5.169  69.183  1.00  0.00     0.000 HD 
ENDBRANCH  13  19
ENDBRANCH   8  11
ENDBRANCH   7   8
ENDBRANCH   3   7
TORSDOF 4
ENDMDL
MODEL      272
REMARK 921   NORMALIZED FREE ENERGY PREDICTED BY IDOCK:   -2.42 KCAL/MOL
REMARK 922        TOTAL FREE ENERGY PREDICTED BY IDOCK:   -3.70 KCAL/MOL
REMARK 923 INTER-LIGAND FREE ENERGY PREDICTED BY IDOCK:   -3.86 KCAL/MOL
REMARK 924 INTRA-LIGAND FREE ENERGY PREDICTED BY IDOCK:    0.16 KCAL/MOL
REMARK 927      BINDING AFFINITY PREDICTED BY RF-SCORE:    0.00 PKD
ROOT
HETATM    1  C   UNL     1      -9.190   9.482  64.995  1.00  0.00    -0.297 C  
HETATM    2  C   UNL     1      -9.203  10.928  65.519  1.00  0.00    -0.209 C  
HETATM    3  N   UNL     1      -9.288  11.900  64.410  1.00  0.00    -0.429 NA 
HETATM    4  C   UNL     1     -10.325  11.110  66.552  1.00  0.00    -0.290 C  
HETATM    5  C   UNL     1      -7.857  11.201  66.220  1.00  0.00    -0.109 C  
HETATM    6  H   UNL     1      -8.550  12.581  64.232  1.00  0.00     0.000 HD 
ENDROOT
BRANCH   3   7
HETATM    7  C   UNL     1     -10.501  11.828  63.575  1.00  0.00    -0.449 C  
BRANCH   7   8
HETATM    8  C   UNL     1     -11.687  12.724  64.048  1.00  0.00    -0.426 C  
HETATM    9  H   UNL     1     -13.406  13.221  63.305  1.00  0.00     0.000 HD 
HETATM   10  O   UNL     1     -12.684  12.676  63.016  1.00  0.00    -0.488 OA 
BRANCH   8  11
HETATM   11  C   UNL     1     -11.329  14.167  64.392  1.00  0.00    -0.310 A  
HETATM   12  C   UNL     1     -10.130  14.453  65.069  1.00  0.00    -0.322 A  
HETATM   13  C   UNL     1      -9.735  15.767  65.378  1.00  0.00    -0.146 A  
HETATM   14  C   UNL     1     -10.633  16.802  65.099  1.00  0.00    -0.114 A  
HETATM   15  H   UNL     1     -10.980  18.805  65.239  1.00  0.00     0.000 HD 
HETATM   16  C   UNL     1     -11.843  16.548  64.469  1.00  0.00     0.525 A  
HETATM   17  O   UNL     1     -10.369  18.102  65.428  1.00  0.00    -0.537 OA 
HETATM   18  C   UNL     1     -12.178  15.244  64.090  1.00  0.00    -0.133 A  
BRANCH  13  19
HETATM   19  C   UNL     1      -8.398  15.987  66.034  1.00  0.00     0.062 C  
HETATM   20  O   UNL     1      -8.538  16.797  67.200  1.00  0.00    -0.186 OA 
HETATM   21  H   UNL     1      -7.694  16.937  67.614  1.00  0.00     0.000 HD 
ENDBRANCH  13  19
ENDBRANCH   8  11
ENDBRANCH   7   8
ENDBRANCH   3   7
TORSDOF 4
ENDMDL
MODEL      273
REMARK 921   NORMALIZED FREE ENERGY PREDICTED BY IDOCK:   -2.41 KCAL/MOL
REMARK 922        TOTAL FREE ENERGY PREDICTED BY IDOCK:   -3.68 KCAL/MOL
REMARK 923 INTER-LIGAND FREE ENERGY PREDICTED BY IDOCK:   -3.15 KCAL/MOL
REMARK 924 INTRA-LIGAND FREE ENERGY PREDICTED BY IDOCK:   -0.53 KCAL/MOL
REMARK 927      BINDING AFFINITY PREDICTED BY RF-SCORE:    0.00 PKD
ROOT
HETATM    1  C   UNL     1      -9.914   4.476  71.763  1.00  0.00    -0.264 C  
HETATM    2  C   UNL     1     -10.505   5.509  72.736  1.00  0.00    -0.212 C  
HETATM    3  N   UNL     1      -9.841   6.821  72.593  1.00  0.00    -0.167 NA 
HETATM    4  C   UNL     1     -12.028   5.595  72.562  1.00  0.00    -0.130 C  
HETATM    5  C   UNL     1     -10.211   5.041  74.176  1.00  0.00    -0.279 C  
HETATM    6  H   UNL     1      -9.322   7.250  73.359  1.00  0.00     0.000 HD 
ENDROOT
BRANCH   3   7
HETATM    7  C   UNL     1      -9.973   7.476  71.278  1.00  0.00    -0.186 C  
BRANCH   7   8
HETATM    8  C   UNL     1      -8.639   7.998  70.659  1.00  0.00    -0.130 C  
HETATM    9  H   UNL     1      -7.555   9.587  70.892  1.00  0.00     0.000 HD 
HETATM   10  O   UNL     1      -8.367   9.269  71.269  1.00  0.00    -0.317 OA 
BRANCH   8  11
HETATM   11  C   UNL     1      -8.614   8.108  69.137  1.00  0.00    -0.136 A  
HETATM   12  C   UNL     1      -8.779   9.361  68.520  1.00  0.00    -0.128 A  
HETATM   13  C   UNL     1      -8.728   9.523  67.123  1.00  0.00    -0.137 A  
HETATM   14  C   UNL     1      -8.628   8.373  66.335  1.00  0.00    -0.127 A  
HETATM   15  H   UNL     1      -8.577   7.642  64.433  1.00  0.00     0.000 HD 
HETATM   16  C   UNL     1      -8.506   7.118  66.914  1.00  0.00    -0.123 A  
HETATM   17  O   UNL     1      -8.644   8.423  64.969  1.00  0.00    -0.169 OA 
HETATM   18  C   UNL     1      -8.470   6.987  68.306  1.00  0.00    -0.123 A  
BRANCH  13  19
HETATM   19  C   UNL     1      -8.834  10.911  66.550  1.00  0.00    -0.163 C  
HETATM   20  O   UNL     1      -7.800  11.142  65.596  1.00  0.00    -0.363 OA 
HETATM   21  H   UNL     1      -7.867  12.018  65.234  1.00  0.00     0.000 HD 
ENDBRANCH  13  19
ENDBRANCH   8  11
ENDBRANCH   7   8
ENDBRANCH   3   7
TORSDOF 4
ENDMDL
MODEL      274
REMARK 921   NORMALIZED FREE ENERGY PREDICTED BY IDOCK:   -2.41 KCAL/MOL
REMARK 922        TOTAL FREE ENERGY PREDICTED BY IDOCK:   -3.68 KCAL/MOL
REMARK 923 INTER-LIGAND FREE ENERGY PREDICTED BY IDOCK:   -3.32 KCAL/MOL
REMARK 924 INTRA-LIGAND FREE ENERGY PREDICTED BY IDOCK:   -0.35 KCAL/MOL
REMARK 927      BINDING AFFINITY PREDICTED BY RF-SCORE:    0.00 PKD
ROOT
HETATM    1  C   UNL     1      -9.852   9.996  65.005  1.00  0.00    -0.374 C  
HETATM    2  C   UNL     1      -9.869  10.575  66.430  1.00  0.00    -0.210 C  
HETATM    3  N   UNL     1     -10.195   9.535  67.427  1.00  0.00    -0.212 NA 
HETATM    4  C   UNL     1      -8.542  11.287  66.731  1.00  0.00    -0.159 C  
HETATM    5  C   UNL     1     -11.004  11.616  66.516  1.00  0.00    -0.349 C  
HETATM    6  H   UNL     1     -11.028   9.592  68.013  1.00  0.00     0.000 HD 
ENDROOT
BRANCH   3   7
HETATM    7  C   UNL     1      -9.247   8.410  67.526  1.00  0.00    -0.140 C  
BRANCH   7   8
HETATM    8  C   UNL     1      -9.480   7.450  68.735  1.00  0.00    -0.143 C  
HETATM    9  H   UNL     1     -11.041   6.783  69.668  1.00  0.00     0.000 HD 
HETATM   10  O   UNL     1     -10.899   7.368  68.933  1.00  0.00    -0.166 OA 
BRANCH   8  11
HETATM   11  C   UNL     1      -8.770   7.833  70.030  1.00  0.00    -0.141 A  
HETATM   12  C   UNL     1      -9.256   7.363  71.264  1.00  0.00    -0.153 A  
HETATM   13  C   UNL     1      -8.619   7.657  72.484  1.00  0.00    -0.164 A  
HETATM   14  C   UNL     1      -7.538   8.544  72.460  1.00  0.00    -0.025 A  
HETATM   15  H   UNL     1      -6.168   9.548  73.584  1.00  0.00     0.000 HD 
HETATM   16  C   UNL     1      -7.062   9.058  71.262  1.00  0.00    -0.093 A  
HETATM   17  O   UNL     1      -6.902   8.945  73.600  1.00  0.00    -0.345 OA 
HETATM   18  C   UNL     1      -7.654   8.683  70.052  1.00  0.00    -0.068 A  
BRANCH  13  19
HETATM   19  C   UNL     1      -9.160   7.047  73.749  1.00  0.00    -0.185 C  
HETATM   20  O   UNL     1     -10.583   7.139  73.782  1.00  0.00    -0.397 OA 
HETATM   21  H   UNL     1     -10.925   6.754  74.581  1.00  0.00     0.000 HD 
ENDBRANCH  13  19
ENDBRANCH   8  11
ENDBRANCH   7   8
ENDBRANCH   3   7
TORSDOF 4
ENDMDL
MODEL      275
REMARK 921   NORMALIZED FREE ENERGY PREDICTED BY IDOCK:   -2.37 KCAL/MOL
REMARK 922        TOTAL FREE ENERGY PREDICTED BY IDOCK:   -3.64 KCAL/MOL
REMARK 923 INTER-LIGAND FREE ENERGY PREDICTED BY IDOCK:   -3.23 KCAL/MOL
REMARK 924 INTRA-LIGAND FREE ENERGY PREDICTED BY IDOCK:   -0.41 KCAL/MOL
REMARK 927      BINDING AFFINITY PREDICTED BY RF-SCORE:    0.00 PKD
ROOT
HETATM    1  C   UNL     1      -7.382   8.993  64.566  1.00  0.00    -0.099 C  
HETATM    2  C   UNL     1      -8.007   8.696  65.939  1.00  0.00    -0.105 C  
HETATM    3  N   UNL     1      -8.177   9.932  66.730  1.00  0.00    -0.123 NA 
HETATM    4  C   UNL     1      -9.320   7.917  65.769  1.00  0.00     0.027 C  
HETATM    5  C   UNL     1      -7.025   7.814  66.737  1.00  0.00    -0.072 C  
HETATM    6  H   UNL     1      -7.700  10.072  67.620  1.00  0.00     0.000 HD 
ENDROOT
BRANCH   3   7
HETATM    7  C   UNL     1      -9.077  10.950  66.158  1.00  0.00    -0.183 C  
BRANCH   7   8
HETATM    8  C   UNL     1     -10.231  11.419  67.098  1.00  0.00    -0.202 C  
HETATM    9  H   UNL     1     -12.157  11.212  67.104  1.00  0.00     0.000 HD 
HETATM   10  O   UNL     1     -11.455  10.927  66.532  1.00  0.00    -0.173 OA 
BRANCH   8  11
HETATM   11  C   UNL     1     -10.312  12.923  67.346  1.00  0.00    -0.233 A  
HETATM   12  C   UNL     1      -9.872  13.823  66.360  1.00  0.00    -0.305 A  
HETATM   13  C   UNL     1      -9.958  15.218  66.522  1.00  0.00    -0.278 A  
HETATM   14  C   UNL     1     -10.387  15.706  67.760  1.00  0.00    -0.266 A  
HETATM   15  H   UNL     1     -10.726  17.375  68.879  1.00  0.00     0.000 HD 
HETATM   16  C   UNL     1     -10.789  14.842  68.769  1.00  0.00    -0.254 A  
HETATM   17  O   UNL     1     -10.434  17.044  68.038  1.00  0.00    -0.322 OA 
HETATM   18  C   UNL     1     -10.780  13.460  68.555  1.00  0.00    -0.278 A  
BRANCH  13  19
HETATM   19  C   UNL     1      -9.537  16.108  65.384  1.00  0.00     0.155 C  
HETATM   20  O   UNL     1      -8.937  17.305  65.876  1.00  0.00    -0.519 OA 
HETATM   21  H   UNL     1      -8.671  17.867  65.157  1.00  0.00     0.000 HD 
ENDBRANCH  13  19
ENDBRANCH   8  11
ENDBRANCH   7   8
ENDBRANCH   3   7
TORSDOF 4
ENDMDL
MODEL      276
REMARK 921   NORMALIZED FREE ENERGY PREDICTED BY IDOCK:   -2.32 KCAL/MOL
REMARK 922        TOTAL FREE ENERGY PREDICTED BY IDOCK:   -3.57 KCAL/MOL
REMARK 923 INTER-LIGAND FREE ENERGY PREDICTED BY IDOCK:   -4.17 KCAL/MOL
REMARK 924 INTRA-LIGAND FREE ENERGY PREDICTED BY IDOCK:    0.59 KCAL/MOL
REMARK 927      BINDING AFFINITY PREDICTED BY RF-SCORE:    0.00 PKD
ROOT
HETATM    1  C   UNL     1      -6.785   8.359  70.994  1.00  0.00    -0.049 C  
HETATM    2  C   UNL     1      -7.547   7.313  70.163  1.00  0.00    -0.090 C  
HETATM    3  N   UNL     1      -8.686   7.924  69.447  1.00  0.00    -0.137 NA 
HETATM    4  C   UNL     1      -6.584   6.576  69.222  1.00  0.00    -0.044 C  
HETATM    5  C   UNL     1      -8.160   6.280  71.130  1.00  0.00    -0.118 C  
HETATM    6  H   UNL     1      -9.649   7.641  69.625  1.00  0.00     0.000 HD 
ENDROOT
BRANCH   3   7
HETATM    7  C   UNL     1      -8.349   8.966  68.459  1.00  0.00    -0.125 C  
BRANCH   7   8
HETATM    8  C   UNL     1      -9.361  10.150  68.371  1.00  0.00    -0.136 C  
HETATM    9  H   UNL     1      -9.207  12.081  68.351  1.00  0.00     0.000 HD 
HETATM   10  O   UNL     1      -8.590  11.360  68.405  1.00  0.00    -0.146 OA 
BRANCH   8  11
HETATM   11  C   UNL     1     -10.451  10.169  69.440  1.00  0.00    -0.254 A  
HETATM   12  C   UNL     1     -10.396   9.265  70.516  1.00  0.00    -0.312 A  
HETATM   13  C   UNL     1     -11.354   9.264  71.547  1.00  0.00    -0.455 A  
HETATM   14  C   UNL     1     -12.454  10.117  71.417  1.00  0.00    -0.423 A  
HETATM   15  H   UNL     1     -14.219  10.715  72.241  1.00  0.00     0.000 HD 
HETATM   16  C   UNL     1     -12.558  10.992  70.344  1.00  0.00    -0.349 A  
HETATM   17  O   UNL     1     -13.472  10.135  72.329  1.00  0.00    -0.398 OA 
HETATM   18  C   UNL     1     -11.549  11.040  69.377  1.00  0.00    -0.383 A  
BRANCH  13  19
HETATM   19  C   UNL     1     -11.176   8.315  72.701  1.00  0.00    -0.340 C  
HETATM   20  O   UNL     1     -12.422   7.724  73.064  1.00  0.00    -0.408 OA 
HETATM   21  H   UNL     1     -12.310   7.125  73.793  1.00  0.00     0.000 HD 
ENDBRANCH  13  19
ENDBRANCH   8  11
ENDBRANCH   7   8
ENDBRANCH   3   7
TORSDOF 4
ENDMDL
MODEL      277
REMARK 921   NORMALIZED FREE ENERGY PREDICTED BY IDOCK:   -2.31 KCAL/MOL
REMARK 922        TOTAL FREE ENERGY PREDICTED BY IDOCK:   -3.56 KCAL/MOL
REMARK 923 INTER-LIGAND FREE ENERGY PREDICTED BY IDOCK:   -3.36 KCAL/MOL
REMARK 924 INTRA-LIGAND FREE ENERGY PREDICTED BY IDOCK:   -0.20 KCAL/MOL
REMARK 927      BINDING AFFINITY PREDICTED BY RF-SCORE:    0.00 PKD
ROOT
HETATM    1  C   UNL     1      -8.594   4.370  64.799  1.00  0.00    -0.132 C  
HETATM    2  C   UNL     1      -8.238   5.638  65.593  1.00  0.00    -0.126 C  
HETATM    3  N   UNL     1      -9.344   6.040  66.486  1.00  0.00    -0.149 NA 
HETATM    4  C   UNL     1      -6.913   5.442  66.344  1.00  0.00    -0.064 C  
HETATM    5  C   UNL     1      -8.057   6.799  64.594  1.00  0.00    -0.086 C  
HETATM    6  H   UNL     1      -9.822   6.935  66.383  1.00  0.00     0.000 HD 
ENDROOT
BRANCH   3   7
HETATM    7  C   UNL     1      -9.715   5.073  67.535  1.00  0.00    -0.157 C  
BRANCH   7   8
HETATM    8  C   UNL     1      -9.070   5.329  68.933  1.00  0.00    -0.111 C  
HETATM    9  H   UNL     1      -8.358   4.200  70.337  1.00  0.00     0.000 HD 
HETATM   10  O   UNL     1      -8.751   4.043  69.487  1.00  0.00    -0.074 OA 
BRANCH   8  11
HETATM   11  C   UNL     1      -9.909   6.149  69.908  1.00  0.00    -0.205 A  
HETATM   12  C   UNL     1      -9.289   6.819  70.979  1.00  0.00    -0.160 A  
HETATM   13  C   UNL     1     -10.010   7.618  71.885  1.00  0.00    -0.217 A  
HETATM   14  C   UNL     1     -11.404   7.638  71.772  1.00  0.00    -0.255 A  
HETATM   15  H   UNL     1     -13.141   8.340  72.572  1.00  0.00     0.000 HD 
HETATM   16  C   UNL     1     -12.048   6.954  70.751  1.00  0.00    -0.400 A  
HETATM   17  O   UNL     1     -12.195   8.326  72.649  1.00  0.00    -0.364 OA 
HETATM   18  C   UNL     1     -11.306   6.238  69.807  1.00  0.00    -0.506 A  
BRANCH  13  19
HETATM   19  C   UNL     1      -9.257   8.362  72.954  1.00  0.00    -0.218 C  
HETATM   20  O   UNL     1      -7.858   8.098  72.860  1.00  0.00    -0.135 OA 
HETATM   21  H   UNL     1      -7.382   8.568  73.534  1.00  0.00     0.000 HD 
ENDBRANCH  13  19
ENDBRANCH   8  11
ENDBRANCH   7   8
ENDBRANCH   3   7
TORSDOF 4
ENDMDL
MODEL      278
REMARK 921   NORMALIZED FREE ENERGY PREDICTED BY IDOCK:   -2.30 KCAL/MOL
REMARK 922        TOTAL FREE ENERGY PREDICTED BY IDOCK:   -3.55 KCAL/MOL
REMARK 923 INTER-LIGAND FREE ENERGY PREDICTED BY IDOCK:   -3.16 KCAL/MOL
REMARK 924 INTRA-LIGAND FREE ENERGY PREDICTED BY IDOCK:   -0.39 KCAL/MOL
REMARK 927      BINDING AFFINITY PREDICTED BY RF-SCORE:    0.00 PKD
ROOT
HETATM    1  C   UNL     1      -9.200  11.606  66.357  1.00  0.00    -0.219 C  
HETATM    2  C   UNL     1     -10.702  11.437  66.638  1.00  0.00    -0.269 C  
HETATM    3  N   UNL     1     -10.933  10.747  67.924  1.00  0.00    -0.266 NA 
HETATM    4  C   UNL     1     -11.415  12.795  66.559  1.00  0.00    -0.409 C  
HETATM    5  C   UNL     1     -11.297  10.518  65.552  1.00  0.00     0.911 C  
HETATM    6  H   UNL     1     -11.409   9.847  67.975  1.00  0.00     0.000 HD 
ENDROOT
BRANCH   3   7
HETATM    7  C   UNL     1     -10.435  11.436  69.129  1.00  0.00    -0.127 C  
BRANCH   7   8
HETATM    8  C   UNL     1     -11.234  11.145  70.438  1.00  0.00     0.087 C  
HETATM    9  H   UNL     1     -12.562   9.838  70.965  1.00  0.00     0.000 HD 
HETATM   10  O   UNL     1     -12.076  10.015  70.169  1.00  0.00    -0.199 OA 
BRANCH   8  11
HETATM   11  C   UNL     1     -12.048  12.312  70.988  1.00  0.00    -0.037 A  
HETATM   12  C   UNL     1     -11.587  13.631  70.826  1.00  0.00     0.180 A  
HETATM   13  C   UNL     1     -12.315  14.745  71.282  1.00  0.00    -0.390 A  
HETATM   14  C   UNL     1     -13.477  14.506  72.024  1.00  0.00    -0.384 A  
HETATM   15  H   UNL     1     -15.001  15.359  73.074  1.00  0.00     0.000 HD 
HETATM   16  C   UNL     1     -13.936  13.214  72.237  1.00  0.00    -0.490 A  
HETATM   17  O   UNL     1     -14.212  15.521  72.570  1.00  0.00    -0.548 OA 
HETATM   18  C   UNL     1     -13.244  12.125  71.699  1.00  0.00    -0.358 A  
BRANCH  13  19
HETATM   19  C   UNL     1     -11.786  16.124  70.996  1.00  0.00    -0.367 C  
HETATM   20  O   UNL     1     -11.643  16.327  69.591  1.00  0.00    -0.276 OA 
HETATM   21  H   UNL     1     -11.309  17.197  69.410  1.00  0.00     0.000 HD 
ENDBRANCH  13  19
ENDBRANCH   8  11
ENDBRANCH   7   8
ENDBRANCH   3   7
TORSDOF 4
ENDMDL
MODEL      279
REMARK 921   NORMALIZED FREE ENERGY PREDICTED BY IDOCK:   -2.28 KCAL/MOL
REMARK 922        TOTAL FREE ENERGY PREDICTED BY IDOCK:   -3.53 KCAL/MOL
REMARK 923 INTER-LIGAND FREE ENERGY PREDICTED BY IDOCK:   -3.20 KCAL/MOL
REMARK 924 INTRA-LIGAND FREE ENERGY PREDICTED BY IDOCK:   -0.33 KCAL/MOL
REMARK 927      BINDING AFFINITY PREDICTED BY RF-SCORE:    0.00 PKD
ROOT
HETATM    1  C   UNL     1      -8.595   3.684  65.043  1.00  0.00    -0.109 C  
HETATM    2  C   UNL     1      -8.205   4.949  65.825  1.00  0.00    -0.113 C  
HETATM    3  N   UNL     1      -9.270   5.346  66.768  1.00  0.00    -0.124 NA 
HETATM    4  C   UNL     1      -6.847   4.751  66.515  1.00  0.00    -0.058 C  
HETATM    5  C   UNL     1      -8.070   6.115  64.824  1.00  0.00    -0.132 C  
HETATM    6  H   UNL     1      -9.754   6.241  66.690  1.00  0.00     0.000 HD 
ENDROOT
BRANCH   3   7
HETATM    7  C   UNL     1      -9.593   4.374  67.829  1.00  0.00    -0.160 C  
BRANCH   7   8
HETATM    8  C   UNL     1      -8.764   4.526  69.143  1.00  0.00    -0.084 C  
HETATM    9  H   UNL     1      -7.963   3.291  70.403  1.00  0.00     0.000 HD 
HETATM   10  O   UNL     1      -8.467   3.199  69.603  1.00  0.00    -0.057 OA 
BRANCH   8  11
HETATM   11  C   UNL     1      -9.419   5.351  70.246  1.00  0.00    -0.214 A  
HETATM   12  C   UNL     1     -10.736   5.818  70.088  1.00  0.00    -0.390 A  
HETATM   13  C   UNL     1     -11.400   6.552  71.089  1.00  0.00    -0.367 A  
HETATM   14  C   UNL     1     -10.668   6.920  72.222  1.00  0.00    -0.223 A  
HETATM   15  H   UNL     1     -10.707   7.944  73.983  1.00  0.00     0.000 HD 
HETATM   16  C   UNL     1      -9.353   6.510  72.389  1.00  0.00    -0.137 A  
HETATM   17  O   UNL     1     -11.204   7.694  73.213  1.00  0.00    -0.358 OA 
HETATM   18  C   UNL     1      -8.740   5.706  71.422  1.00  0.00    -0.133 A  
BRANCH  13  19
HETATM   19  C   UNL     1     -12.836   6.945  70.868  1.00  0.00    -0.061 C  
HETATM   20  O   UNL     1     -12.966   8.365  70.818  1.00  0.00    -0.475 OA 
HETATM   21  H   UNL     1     -13.873   8.613  70.678  1.00  0.00     0.000 HD 
ENDBRANCH  13  19
ENDBRANCH   8  11
ENDBRANCH   7   8
ENDBRANCH   3   7
TORSDOF 4
ENDMDL
MODEL      280
REMARK 921   NORMALIZED FREE ENERGY PREDICTED BY IDOCK:   -2.24 KCAL/MOL
REMARK 922        TOTAL FREE ENERGY PREDICTED BY IDOCK:   -3.47 KCAL/MOL
REMARK 923 INTER-LIGAND FREE ENERGY PREDICTED BY IDOCK:   -3.04 KCAL/MOL
REMARK 924 INTRA-LIGAND FREE ENERGY PREDICTED BY IDOCK:   -0.44 KCAL/MOL
REMARK 927      BINDING AFFINITY PREDICTED BY RF-SCORE:    0.00 PKD
ROOT
HETATM    1  C   UNL     1      -9.694  13.027  66.036  1.00  0.00    -0.223 C  
HETATM    2  C   UNL     1     -10.247  11.622  65.749  1.00  0.00    -0.240 C  
HETATM    3  N   UNL     1      -9.172  10.608  65.767  1.00  0.00    -0.181 NA 
HETATM    4  C   UNL     1     -11.389  11.289  66.721  1.00  0.00    -0.187 C  
HETATM    5  C   UNL     1     -10.817  11.609  64.316  1.00  0.00    -0.418 C  
HETATM    6  H   UNL     1      -8.936  10.057  64.942  1.00  0.00     0.000 HD 
ENDROOT
BRANCH   3   7
HETATM    7  C   UNL     1      -8.459  10.441  67.047  1.00  0.00    -0.127 C  
BRANCH   7   8
HETATM    8  C   UNL     1      -8.066   8.972  67.400  1.00  0.00    -0.108 C  
HETATM    9  H   UNL     1      -8.073   7.288  66.443  1.00  0.00     0.000 HD 
HETATM   10  O   UNL     1      -8.313   8.182  66.228  1.00  0.00    -0.108 OA 
BRANCH   8  11
HETATM   11  C   UNL     1      -8.766   8.375  68.617  1.00  0.00    -0.133 A  
HETATM   12  C   UNL     1      -8.804   6.980  68.793  1.00  0.00    -0.129 A  
HETATM   13  C   UNL     1      -9.405   6.379  69.915  1.00  0.00    -0.156 A  
HETATM   14  C   UNL     1     -10.084   7.207  70.814  1.00  0.00    -0.190 A  
HETATM   15  H   UNL     1     -11.221   7.272  72.503  1.00  0.00     0.000 HD 
HETATM   16  C   UNL     1     -10.101   8.584  70.645  1.00  0.00    -0.225 A  
HETATM   17  O   UNL     1     -10.759   6.709  71.893  1.00  0.00    -0.217 OA 
HETATM   18  C   UNL     1      -9.422   9.169  69.571  1.00  0.00    -0.170 A  
BRANCH  13  19
HETATM   19  C   UNL     1      -9.330   4.884  70.063  1.00  0.00    -0.144 C  
HETATM   20  O   UNL     1     -10.152   4.241  69.090  1.00  0.00    -0.083 OA 
HETATM   21  H   UNL     1     -10.106   3.296  69.183  1.00  0.00     0.000 HD 
ENDBRANCH  13  19
ENDBRANCH   8  11
ENDBRANCH   7   8
ENDBRANCH   3   7
TORSDOF 4
ENDMDL
MODEL      281
REMARK 921   NORMALIZED FREE ENERGY PREDICTED BY IDOCK:   -2.24 KCAL/MOL
REMARK 922        TOTAL FREE ENERGY PREDICTED BY IDOCK:   -3.47 KCAL/MOL
REMARK 923 INTER-LIGAND FREE ENERGY PREDICTED BY IDOCK:   -3.18 KCAL/MOL
REMARK 924 INTRA-LIGAND FREE ENERGY PREDICTED BY IDOCK:   -0.30 KCAL/MOL
REMARK 927      BINDING AFFINITY PREDICTED BY RF-SCORE:    0.00 PKD
ROOT
HETATM    1  C   UNL     1      -5.225  18.114  67.029  1.00  0.00    -0.138 C  
HETATM    2  C   UNL     1      -6.674  18.239  67.527  1.00  0.00    -0.193 C  
HETATM    3  N   UNL     1      -7.357  16.929  67.527  1.00  0.00    -0.150 NA 
HETATM    4  C   UNL     1      -6.709  18.924  68.901  1.00  0.00    -0.312 C  
HETATM    5  C   UNL     1      -7.454  19.122  66.531  1.00  0.00    -0.258 C  
HETATM    6  H   UNL     1      -8.178  16.749  66.950  1.00  0.00     0.000 HD 
ENDROOT
BRANCH   3   7
HETATM    7  C   UNL     1      -6.780  15.897  68.409  1.00  0.00    -0.116 C  
BRANCH   7   8
HETATM    8  C   UNL     1      -7.799  14.852  68.962  1.00  0.00    -0.165 C  
HETATM    9  H   UNL     1      -7.826  13.635  70.469  1.00  0.00     0.000 HD 
HETATM   10  O   UNL     1      -7.206  14.271  70.132  1.00  0.00     0.122 OA 
BRANCH   8  11
HETATM   11  C   UNL     1      -8.235  13.770  67.978  1.00  0.00    -0.164 A  
HETATM   12  C   UNL     1      -9.337  13.990  67.133  1.00  0.00    -0.244 A  
HETATM   13  C   UNL     1      -9.759  13.041  66.183  1.00  0.00    -0.255 A  
HETATM   14  C   UNL     1      -9.122  11.796  66.177  1.00  0.00    -0.185 A  
HETATM   15  H   UNL     1      -9.076   9.940  65.338  1.00  0.00     0.000 HD 
HETATM   16  C   UNL     1      -8.058  11.533  67.028  1.00  0.00    -0.161 A  
HETATM   17  O   UNL     1      -9.509  10.786  65.342  1.00  0.00    -0.190 OA 
HETATM   18  C   UNL     1      -7.597  12.522  67.903  1.00  0.00    -0.133 A  
BRANCH  13  19
HETATM   19  C   UNL     1     -10.898  13.391  65.265  1.00  0.00    -0.309 C  
HETATM   20  O   UNL     1     -11.215  14.778  65.363  1.00  0.00    -0.325 OA 
HETATM   21  H   UNL     1     -11.935  15.000  64.784  1.00  0.00     0.000 HD 
ENDBRANCH  13  19
ENDBRANCH   8  11
ENDBRANCH   7   8
ENDBRANCH   3   7
TORSDOF 4
ENDMDL
MODEL      282
REMARK 921   NORMALIZED FREE ENERGY PREDICTED BY IDOCK:   -2.23 KCAL/MOL
REMARK 922        TOTAL FREE ENERGY PREDICTED BY IDOCK:   -3.46 KCAL/MOL
REMARK 923 INTER-LIGAND FREE ENERGY PREDICTED BY IDOCK:   -3.17 KCAL/MOL
REMARK 924 INTRA-LIGAND FREE ENERGY PREDICTED BY IDOCK:   -0.29 KCAL/MOL
REMARK 927      BINDING AFFINITY PREDICTED BY RF-SCORE:    0.00 PKD
ROOT
HETATM    1  C   UNL     1      -8.334  15.733  68.833  1.00  0.00    -0.213 C  
HETATM    2  C   UNL     1      -7.722  15.526  67.438  1.00  0.00    -0.194 C  
HETATM    3  N   UNL     1      -7.223  14.145  67.271  1.00  0.00    -0.320 NA 
HETATM    4  C   UNL     1      -8.727  15.926  66.349  1.00  0.00    -0.362 C  
HETATM    5  C   UNL     1      -6.486  16.440  67.310  1.00  0.00    -0.222 C  
HETATM    6  H   UNL     1      -6.238  13.944  67.101  1.00  0.00     0.000 HD 
ENDROOT
BRANCH   3   7
HETATM    7  C   UNL     1      -8.233  13.074  67.363  1.00  0.00    -0.183 C  
BRANCH   7   8
HETATM    8  C   UNL     1      -7.712  11.718  67.932  1.00  0.00    -0.125 C  
HETATM    9  H   UNL     1      -6.753  10.205  67.194  1.00  0.00     0.000 HD 
HETATM   10  O   UNL     1      -7.069  11.031  66.847  1.00  0.00    -0.109 OA 
BRANCH   8  11
HETATM   11  C   UNL     1      -8.764  10.830  68.591  1.00  0.00    -0.152 A  
HETATM   12  C   UNL     1      -8.524   9.453  68.748  1.00  0.00    -0.122 A  
HETATM   13  C   UNL     1      -9.443   8.596  69.381  1.00  0.00    -0.161 A  
HETATM   14  C   UNL     1     -10.681   9.128  69.754  1.00  0.00    -0.228 A  
HETATM   15  H   UNL     1     -12.507   8.720  70.562  1.00  0.00     0.000 HD 
HETATM   16  C   UNL     1     -10.965  10.475  69.575  1.00  0.00    -0.312 A  
HETATM   17  O   UNL     1     -11.666   8.359  70.309  1.00  0.00    -0.083 OA 
HETATM   18  C   UNL     1     -10.002  11.328  69.024  1.00  0.00    -0.124 A  
BRANCH  13  19
HETATM   19  C   UNL     1      -9.072   7.151  69.577  1.00  0.00    -0.146 C  
HETATM   20  O   UNL     1      -8.084   7.020  70.598  1.00  0.00    -0.113 OA 
HETATM   21  H   UNL     1      -7.849   6.107  70.722  1.00  0.00     0.000 HD 
ENDBRANCH  13  19
ENDBRANCH   8  11
ENDBRANCH   7   8
ENDBRANCH   3   7
TORSDOF 4
ENDMDL
MODEL      283
REMARK 921   NORMALIZED FREE ENERGY PREDICTED BY IDOCK:   -2.23 KCAL/MOL
REMARK 922        TOTAL FREE ENERGY PREDICTED BY IDOCK:   -3.46 KCAL/MOL
REMARK 923 INTER-LIGAND FREE ENERGY PREDICTED BY IDOCK:   -3.01 KCAL/MOL
REMARK 924 INTRA-LIGAND FREE ENERGY PREDICTED BY IDOCK:   -0.45 KCAL/MOL
REMARK 927      BINDING AFFINITY PREDICTED BY RF-SCORE:    0.00 PKD
ROOT
HETATM    1  C   UNL     1      -9.791  14.638  67.941  1.00  0.00    -0.217 C  
HETATM    2  C   UNL     1     -10.583  13.863  66.874  1.00  0.00    -0.280 C  
HETATM    3  N   UNL     1     -10.075  12.483  66.727  1.00  0.00    -0.221 NA 
HETATM    4  C   UNL     1     -12.085  13.911  67.186  1.00  0.00    -0.422 C  
HETATM    5  C   UNL     1     -10.353  14.547  65.510  1.00  0.00    -0.379 C  
HETATM    6  H   UNL     1      -9.678  12.146  65.851  1.00  0.00     0.000 HD 
ENDROOT
BRANCH   3   7
HETATM    7  C   UNL     1     -10.178  11.623  67.920  1.00  0.00    -0.189 C  
BRANCH   7   8
HETATM    8  C   UNL     1      -8.833  11.363  68.668  1.00  0.00    -0.125 C  
HETATM    9  H   UNL     1      -7.004  11.041  68.118  1.00  0.00     0.000 HD 
HETATM   10  O   UNL     1      -7.822  11.200  67.663  1.00  0.00    -0.110 OA 
BRANCH   8  11
HETATM   11  C   UNL     1      -8.833  10.184  69.637  1.00  0.00    -0.184 A  
HETATM   12  C   UNL     1      -9.857   9.222  69.574  1.00  0.00    -0.188 A  
HETATM   13  C   UNL     1      -9.885   8.096  70.418  1.00  0.00    -0.188 A  
HETATM   14  C   UNL     1      -8.920   8.012  71.426  1.00  0.00    -0.141 A  
HETATM   15  H   UNL     1      -8.253   6.938  73.025  1.00  0.00     0.000 HD 
HETATM   16  C   UNL     1      -7.921   8.968  71.541  1.00  0.00    -0.042 A  
HETATM   17  O   UNL     1      -8.909   6.996  72.340  1.00  0.00    -0.128 OA 
HETATM   18  C   UNL     1      -7.858  10.032  70.635  1.00  0.00     0.359 A  
BRANCH  13  19
HETATM   19  C   UNL     1     -10.975   7.075  70.230  1.00  0.00    -0.271 C  
HETATM   20  O   UNL     1     -11.744   6.935  71.423  1.00  0.00    -0.280 OA 
HETATM   21  H   UNL     1     -12.432   6.290  71.304  1.00  0.00     0.000 HD 
ENDBRANCH  13  19
ENDBRANCH   8  11
ENDBRANCH   7   8
ENDBRANCH   3   7
TORSDOF 4
ENDMDL
MODEL      284
REMARK 921   NORMALIZED FREE ENERGY PREDICTED BY IDOCK:   -2.22 KCAL/MOL
REMARK 922        TOTAL FREE ENERGY PREDICTED BY IDOCK:   -3.45 KCAL/MOL
REMARK 923 INTER-LIGAND FREE ENERGY PREDICTED BY IDOCK:   -2.97 KCAL/MOL
REMARK 924 INTRA-LIGAND FREE ENERGY PREDICTED BY IDOCK:   -0.48 KCAL/MOL
REMARK 927      BINDING AFFINITY PREDICTED BY RF-SCORE:    0.00 PKD
ROOT
HETATM    1  C   UNL     1     -10.670   9.457  67.365  1.00  0.00    -0.280 C  
HETATM    2  C   UNL     1      -9.234   8.931  67.208  1.00  0.00    -0.138 C  
HETATM    3  N   UNL     1      -9.015   7.718  68.024  1.00  0.00    -0.127 NA 
HETATM    4  C   UNL     1      -8.905   8.712  65.724  1.00  0.00    -0.231 C  
HETATM    5  C   UNL     1      -8.265   9.995  67.763  1.00  0.00    -0.113 C  
HETATM    6  H   UNL     1      -8.328   7.692  68.777  1.00  0.00     0.000 HD 
ENDROOT
BRANCH   3   7
HETATM    7  C   UNL     1      -9.847   6.549  67.684  1.00  0.00    -0.125 C  
BRANCH   7   8
HETATM    8  C   UNL     1      -9.161   5.163  67.895  1.00  0.00    -0.115 C  
HETATM    9  H   UNL     1      -9.400   3.393  67.145  1.00  0.00     0.000 HD 
HETATM   10  O   UNL     1      -9.817   4.236  67.016  1.00  0.00    -0.209 OA 
BRANCH   8  11
HETATM   11  C   UNL     1      -9.152   4.641  69.329  1.00  0.00    -0.159 A  
HETATM   12  C   UNL     1      -9.960   5.250  70.305  1.00  0.00    -0.310 A  
HETATM   13  C   UNL     1     -10.017   4.787  71.632  1.00  0.00    -0.257 A  
HETATM   14  C   UNL     1      -9.144   3.759  72.002  1.00  0.00    -0.116 A  
HETATM   15  H   UNL     1      -8.481   2.593  73.536  1.00  0.00     0.000 HD 
HETATM   16  C   UNL     1      -8.303   3.165  71.072  1.00  0.00    -0.087 A  
HETATM   17  O   UNL     1      -9.074   3.291  73.284  1.00  0.00    -0.089 OA 
HETATM   18  C   UNL     1      -8.327   3.581  69.737  1.00  0.00    -0.080 A  
BRANCH  13  19
HETATM   19  C   UNL     1     -10.969   5.448  72.591  1.00  0.00    -0.268 C  
HETATM   20  O   UNL     1     -11.710   4.470  73.319  1.00  0.00    -0.262 OA 
HETATM   21  H   UNL     1     -12.312   4.888  73.924  1.00  0.00     0.000 HD 
ENDBRANCH  13  19
ENDBRANCH   8  11
ENDBRANCH   7   8
ENDBRANCH   3   7
TORSDOF 4
ENDMDL
MODEL      285
REMARK 921   NORMALIZED FREE ENERGY PREDICTED BY IDOCK:   -2.20 KCAL/MOL
REMARK 922        TOTAL FREE ENERGY PREDICTED BY IDOCK:   -3.42 KCAL/MOL
REMARK 923 INTER-LIGAND FREE ENERGY PREDICTED BY IDOCK:   -2.96 KCAL/MOL
REMARK 924 INTRA-LIGAND FREE ENERGY PREDICTED BY IDOCK:   -0.46 KCAL/MOL
REMARK 927      BINDING AFFINITY PREDICTED BY RF-SCORE:    0.00 PKD
ROOT
HETATM    1  C   UNL     1      -6.320   8.794  65.358  1.00  0.00    -0.062 C  
HETATM    2  C   UNL     1      -6.938   8.637  66.757  1.00  0.00    -0.077 C  
HETATM    3  N   UNL     1      -7.050   9.940  67.444  1.00  0.00    -0.084 NA 
HETATM    4  C   UNL     1      -8.282   7.899  66.666  1.00  0.00    -0.119 C  
HETATM    5  C   UNL     1      -5.980   7.786  67.617  1.00  0.00    -0.045 C  
HETATM    6  H   UNL     1      -6.556  10.135  68.314  1.00  0.00     0.000 HD 
ENDROOT
BRANCH   3   7
HETATM    7  C   UNL     1      -7.917  10.942  66.797  1.00  0.00    -0.143 C  
BRANCH   7   8
HETATM    8  C   UNL     1      -8.963  11.620  67.736  1.00  0.00    -0.170 C  
HETATM    9  H   UNL     1     -10.894  11.774  67.745  1.00  0.00     0.000 HD 
HETATM   10  O   UNL     1     -10.258  11.361  67.174  1.00  0.00    -0.195 OA 
BRANCH   8  11
HETATM   11  C   UNL     1      -8.763  13.113  67.979  1.00  0.00    -0.190 A  
HETATM   12  C   UNL     1      -9.722  13.843  68.704  1.00  0.00    -0.160 A  
HETATM   13  C   UNL     1      -9.570  15.212  68.988  1.00  0.00    -0.229 A  
HETATM   14  C   UNL     1      -8.480  15.879  68.420  1.00  0.00    -0.176 A  
HETATM   15  H   UNL     1      -7.547  17.676  68.192  1.00  0.00     0.000 HD 
HETATM   16  C   UNL     1      -7.538  15.196  67.665  1.00  0.00    -0.194 A  
HETATM   17  O   UNL     1      -8.287  17.223  68.578  1.00  0.00    -0.252 OA 
HETATM   18  C   UNL     1      -7.661  13.816  67.469  1.00  0.00    -0.185 A  
BRANCH  13  19
HETATM   19  C   UNL     1     -10.606  15.897  69.837  1.00  0.00    -0.326 C  
HETATM   20  O   UNL     1     -10.869  17.211  69.349  1.00  0.00    -0.355 OA 
HETATM   21  H   UNL     1     -11.523  17.644  69.885  1.00  0.00     0.000 HD 
ENDBRANCH  13  19
ENDBRANCH   8  11
ENDBRANCH   7   8
ENDBRANCH   3   7
TORSDOF 4
ENDMDL
MODEL      286
REMARK 921   NORMALIZED FREE ENERGY PREDICTED BY IDOCK:   -2.14 KCAL/MOL
REMARK 922        TOTAL FREE ENERGY PREDICTED BY IDOCK:   -3.35 KCAL/MOL
REMARK 923 INTER-LIGAND FREE ENERGY PREDICTED BY IDOCK:   -2.93 KCAL/MOL
REMARK 924 INTRA-LIGAND FREE ENERGY PREDICTED BY IDOCK:   -0.42 KCAL/MOL
REMARK 927      BINDING AFFINITY PREDICTED BY RF-SCORE:    0.00 PKD
ROOT
HETATM    1  C   UNL     1     -10.534   9.455  71.434  1.00  0.00    -0.358 C  
HETATM    2  C   UNL     1     -11.772   9.712  70.559  1.00  0.00    -0.242 C  
HETATM    3  N   UNL     1     -11.459   9.545  69.124  1.00  0.00    -0.439 NA 
HETATM    4  C   UNL     1     -12.940   8.828  71.016  1.00  0.00    -0.002 C  
HETATM    5  C   UNL     1     -12.189  11.187  70.732  1.00  0.00    -0.484 C  
HETATM    6  H   UNL     1     -11.542  10.315  68.461  1.00  0.00     0.000 HD 
ENDROOT
BRANCH   3   7
HETATM    7  C   UNL     1     -11.019   8.200  68.708  1.00  0.00     0.187 C  
BRANCH   7   8
HETATM    8  C   UNL     1     -10.701   8.047  67.188  1.00  0.00    -0.215 C  
HETATM    9  H   UNL     1     -10.806   6.594  65.911  1.00  0.00     0.000 HD 
HETATM   10  O   UNL     1     -10.999   6.687  66.836  1.00  0.00    -0.376 OA 
BRANCH   8  11
HETATM   11  C   UNL     1      -9.282   8.419  66.769  1.00  0.00    -0.214 A  
HETATM   12  C   UNL     1      -8.641   9.523  67.359  1.00  0.00    -0.125 A  
HETATM   13  C   UNL     1      -7.321   9.888  67.035  1.00  0.00    -0.091 A  
HETATM   14  C   UNL     1      -6.685   9.190  66.004  1.00  0.00    -0.076 A  
HETATM   15  H   UNL     1      -4.999   9.045  64.868  1.00  0.00     0.000 HD 
HETATM   16  C   UNL     1      -7.307   8.123  65.373  1.00  0.00    -0.069 A  
HETATM   17  O   UNL     1      -5.432   9.519  65.569  1.00  0.00    -0.043 OA 
HETATM   18  C   UNL     1      -8.586   7.719  65.771  1.00  0.00    -0.162 A  
BRANCH  13  19
HETATM   19  C   UNL     1      -6.684  11.035  67.773  1.00  0.00    -0.064 C  
HETATM   20  O   UNL     1      -6.048  11.928  66.860  1.00  0.00    -0.157 OA 
HETATM   21  H   UNL     1      -5.646  12.652  67.326  1.00  0.00     0.000 HD 
ENDBRANCH  13  19
ENDBRANCH   8  11
ENDBRANCH   7   8
ENDBRANCH   3   7
TORSDOF 4
ENDMDL
MODEL      287
REMARK 921   NORMALIZED FREE ENERGY PREDICTED BY IDOCK:   -2.13 KCAL/MOL
REMARK 922        TOTAL FREE ENERGY PREDICTED BY IDOCK:   -3.33 KCAL/MOL
REMARK 923 INTER-LIGAND FREE ENERGY PREDICTED BY IDOCK:   -3.14 KCAL/MOL
REMARK 924 INTRA-LIGAND FREE ENERGY PREDICTED BY IDOCK:   -0.19 KCAL/MOL
REMARK 927      BINDING AFFINITY PREDICTED BY RF-SCORE:    0.00 PKD
ROOT
HETATM    1  C   UNL     1      -5.299  18.068  67.868  1.00  0.00    -0.151 C  
HETATM    2  C   UNL     1      -6.530  17.439  68.540  1.00  0.00    -0.180 C  
HETATM    3  N   UNL     1      -7.194  16.469  67.645  1.00  0.00    -0.130 NA 
HETATM    4  C   UNL     1      -6.144  16.826  69.894  1.00  0.00    -0.194 C  
HETATM    5  C   UNL     1      -7.564  18.555  68.795  1.00  0.00    -0.308 C  
HETATM    6  H   UNL     1      -8.153  16.600  67.322  1.00  0.00     0.000 HD 
ENDROOT
BRANCH   3   7
HETATM    7  C   UNL     1      -6.389  15.300  67.244  1.00  0.00     0.139 C  
BRANCH   7   8
HETATM    8  C   UNL     1      -6.897  13.928  67.787  1.00  0.00    -0.175 C  
HETATM    9  H   UNL     1      -6.472  12.073  67.423  1.00  0.00     0.000 HD 
HETATM   10  O   UNL     1      -6.163  12.908  67.092  1.00  0.00    -0.281 OA 
BRANCH   8  11
HETATM   11  C   UNL     1      -8.400  13.688  67.677  1.00  0.00    -0.182 A  
HETATM   12  C   UNL     1      -9.102  14.132  66.542  1.00  0.00    -0.198 A  
HETATM   13  C   UNL     1     -10.480  13.905  66.373  1.00  0.00    -0.284 A  
HETATM   14  C   UNL     1     -11.181  13.322  67.434  1.00  0.00    -0.289 A  
HETATM   15  H   UNL     1     -13.009  12.733  68.113  1.00  0.00     0.000 HD 
HETATM   16  C   UNL     1     -10.523  12.911  68.584  1.00  0.00    -0.231 A  
HETATM   17  O   UNL     1     -12.533  13.129  67.392  1.00  0.00    -0.150 OA 
HETATM   18  C   UNL     1      -9.138  13.065  68.695  1.00  0.00     0.047 A  
BRANCH  13  19
HETATM   19  C   UNL     1     -11.136  14.344  65.091  1.00  0.00    -0.362 C  
HETATM   20  O   UNL     1     -10.153  14.695  64.119  1.00  0.00    -0.215 OA 
HETATM   21  H   UNL     1     -10.566  14.972  63.309  1.00  0.00     0.000 HD 
ENDBRANCH  13  19
ENDBRANCH   8  11
ENDBRANCH   7   8
ENDBRANCH   3   7
TORSDOF 4
ENDMDL
MODEL      288
REMARK 921   NORMALIZED FREE ENERGY PREDICTED BY IDOCK:   -2.09 KCAL/MOL
REMARK 922        TOTAL FREE ENERGY PREDICTED BY IDOCK:   -3.28 KCAL/MOL
REMARK 923 INTER-LIGAND FREE ENERGY PREDICTED BY IDOCK:   -3.00 KCAL/MOL
REMARK 924 INTRA-LIGAND FREE ENERGY PREDICTED BY IDOCK:   -0.29 KCAL/MOL
REMARK 927      BINDING AFFINITY PREDICTED BY RF-SCORE:    0.00 PKD
ROOT
HETATM    1  C   UNL     1      -5.647   5.672  70.194  1.00  0.00    -0.009 C  
HETATM    2  C   UNL     1      -6.633   4.950  69.260  1.00  0.00    -0.040 C  
HETATM    3  N   UNL     1      -7.953   5.614  69.257  1.00  0.00    -0.095 NA 
HETATM    4  C   UNL     1      -6.034   4.817  67.853  1.00  0.00    -0.023 C  
HETATM    5  C   UNL     1      -6.875   3.531  69.816  1.00  0.00    -0.034 C  
HETATM    6  H   UNL     1      -8.797   5.138  69.573  1.00  0.00     0.000 HD 
ENDROOT
BRANCH   3   7
HETATM    7  C   UNL     1      -7.977   7.006  68.769  1.00  0.00    -0.120 C  
BRANCH   7   8
HETATM    8  C   UNL     1      -8.894   7.260  67.533  1.00  0.00    -0.119 C  
HETATM    9  H   UNL     1      -8.630   7.265  65.614  1.00  0.00     0.000 HD 
HETATM   10  O   UNL     1      -8.071   7.110  66.366  1.00  0.00    -0.108 OA 
BRANCH   8  11
HETATM   11  C   UNL     1      -9.624   8.600  67.516  1.00  0.00    -0.196 A  
HETATM   12  C   UNL     1      -9.415   9.502  66.457  1.00  0.00    -0.236 A  
HETATM   13  C   UNL     1     -10.090  10.734  66.373  1.00  0.00    -0.278 A  
HETATM   14  C   UNL     1     -10.901  11.108  67.449  1.00  0.00    -0.266 A  
HETATM   15  H   UNL     1     -12.091  12.571  68.223  1.00  0.00     0.000 HD 
HETATM   16  C   UNL     1     -11.095  10.258  68.528  1.00  0.00    -0.294 A  
HETATM   17  O   UNL     1     -11.539  12.316  67.492  1.00  0.00    -0.322 OA 
HETATM   18  C   UNL     1     -10.485   9.000  68.550  1.00  0.00    -0.232 A  
BRANCH  13  19
HETATM   19  C   UNL     1      -9.865  11.603  65.165  1.00  0.00    -0.249 C  
HETATM   20  O   UNL     1      -8.714  11.171  64.442  1.00  0.00    -0.375 OA 
HETATM   21  H   UNL     1      -8.572  11.719  63.679  1.00  0.00     0.000 HD 
ENDBRANCH  13  19
ENDBRANCH   8  11
ENDBRANCH   7   8
ENDBRANCH   3   7
TORSDOF 4
ENDMDL
MODEL      289
REMARK 921   NORMALIZED FREE ENERGY PREDICTED BY IDOCK:   -2.06 KCAL/MOL
REMARK 922        TOTAL FREE ENERGY PREDICTED BY IDOCK:   -3.25 KCAL/MOL
REMARK 923 INTER-LIGAND FREE ENERGY PREDICTED BY IDOCK:   -4.16 KCAL/MOL
REMARK 924 INTRA-LIGAND FREE ENERGY PREDICTED BY IDOCK:    0.91 KCAL/MOL
REMARK 927      BINDING AFFINITY PREDICTED BY RF-SCORE:    0.00 PKD
ROOT
HETATM    1  C   UNL     1     -10.318  12.210  64.248  1.00  0.00    -0.363 C  
HETATM    2  C   UNL     1     -11.689  12.880  64.440  1.00  0.00    -0.372 C  
HETATM    3  N   UNL     1     -12.155  12.758  65.837  1.00  0.00    -0.510 NA 
HETATM    4  C   UNL     1     -11.642  14.337  63.958  1.00  0.00    -0.100 C  
HETATM    5  C   UNL     1     -12.722  12.123  63.581  1.00  0.00    -0.549 C  
HETATM    6  H   UNL     1     -13.010  12.257  66.078  1.00  0.00     0.000 HD 
ENDROOT
BRANCH   3   7
HETATM    7  C   UNL     1     -11.312  13.403  66.861  1.00  0.00    -0.323 C  
BRANCH   7   8
HETATM    8  C   UNL     1      -9.827  13.641  66.444  1.00  0.00    -0.296 C  
HETATM    9  H   UNL     1      -8.132  12.820  66.899  1.00  0.00     0.000 HD 
HETATM   10  O   UNL     1      -9.036  12.675  67.152  1.00  0.00    -0.195 OA 
BRANCH   8  11
HETATM   11  C   UNL     1      -9.295  15.053  66.673  1.00  0.00    -0.290 A  
HETATM   12  C   UNL     1     -10.191  16.120  66.867  1.00  0.00    -0.283 A  
HETATM   13  C   UNL     1      -9.754  17.433  67.117  1.00  0.00    -0.267 A  
HETATM   14  C   UNL     1      -8.381  17.689  67.050  1.00  0.00    -0.221 A  
HETATM   15  H   UNL     1      -6.934  19.119  67.161  1.00  0.00     0.000 HD 
HETATM   16  C   UNL     1      -7.474  16.665  66.819  1.00  0.00    -0.289 A  
HETATM   17  O   UNL     1      -7.866  18.945  67.207  1.00  0.00    -0.233 OA 
HETATM   18  C   UNL     1      -7.924  15.350  66.661  1.00  0.00    -0.068 A  
BRANCH  13  19
HETATM   19  C   UNL     1     -10.780  18.499  67.392  1.00  0.00    -0.381 C  
HETATM   20  O   UNL     1     -11.649  18.100  68.450  1.00  0.00     0.583 OA 
HETATM   21  H   UNL     1     -12.298  18.772  68.624  1.00  0.00     0.000 HD 
ENDBRANCH  13  19
ENDBRANCH   8  11
ENDBRANCH   7   8
ENDBRANCH   3   7
TORSDOF 4
ENDMDL
MODEL      290
REMARK 921   NORMALIZED FREE ENERGY PREDICTED BY IDOCK:   -2.04 KCAL/MOL
REMARK 922        TOTAL FREE ENERGY PREDICTED BY IDOCK:   -3.23 KCAL/MOL
REMARK 923 INTER-LIGAND FREE ENERGY PREDICTED BY IDOCK:   -2.53 KCAL/MOL
REMARK 924 INTRA-LIGAND FREE ENERGY PREDICTED BY IDOCK:   -0.70 KCAL/MOL
REMARK 927      BINDING AFFINITY PREDICTED BY RF-SCORE:    0.00 PKD
ROOT
HETATM    1  C   UNL     1     -10.284   4.396  66.139  1.00  0.00    -0.232 C  
HETATM    2  C   UNL     1      -9.715   4.145  64.732  1.00  0.00    -0.184 C  
HETATM    3  N   UNL     1      -9.016   5.340  64.215  1.00  0.00    -0.357 NA 
HETATM    4  C   UNL     1      -8.826   2.893  64.732  1.00  0.00    -0.115 C  
HETATM    5  C   UNL     1     -10.895   3.896  63.770  1.00  0.00    -0.138 C  
HETATM    6  H   UNL     1      -9.328   5.826  63.376  1.00  0.00     0.000 HD 
ENDROOT
BRANCH   3   7
HETATM    7  C   UNL     1      -7.840   5.787  64.985  1.00  0.00    -0.107 C  
BRANCH   7   8
HETATM    8  C   UNL     1      -7.981   7.188  65.658  1.00  0.00    -0.126 C  
HETATM    9  H   UNL     1      -7.084   8.894  65.464  1.00  0.00     0.000 HD 
HETATM   10  O   UNL     1      -6.998   8.041  65.054  1.00  0.00    -0.061 OA 
BRANCH   8  11
HETATM   11  C   UNL     1      -7.857   7.205  67.179  1.00  0.00    -0.110 A  
HETATM   12  C   UNL     1      -8.031   8.409  67.885  1.00  0.00    -0.115 A  
HETATM   13  C   UNL     1      -7.963   8.475  69.289  1.00  0.00    -0.111 A  
HETATM   14  C   UNL     1      -7.591   7.317  69.980  1.00  0.00    -0.090 A  
HETATM   15  H   UNL     1      -7.175   6.514  71.806  1.00  0.00     0.000 HD 
HETATM   16  C   UNL     1      -7.372   6.123  69.308  1.00  0.00    -0.088 A  
HETATM   17  O   UNL     1      -7.428   7.301  71.337  1.00  0.00    -0.080 OA 
HETATM   18  C   UNL     1      -7.531   6.058  67.920  1.00  0.00    -0.085 A  
BRANCH  13  19
HETATM   19  C   UNL     1      -8.240   9.789  69.968  1.00  0.00    -0.191 C  
HETATM   20  O   UNL     1      -9.109   9.605  71.084  1.00  0.00    -0.338 OA 
HETATM   21  H   UNL     1      -9.285  10.434  71.513  1.00  0.00     0.000 HD 
ENDBRANCH  13  19
ENDBRANCH   8  11
ENDBRANCH   7   8
ENDBRANCH   3   7
TORSDOF 4
ENDMDL
MODEL      291
REMARK 921   NORMALIZED FREE ENERGY PREDICTED BY IDOCK:   -2.00 KCAL/MOL
REMARK 922        TOTAL FREE ENERGY PREDICTED BY IDOCK:   -3.18 KCAL/MOL
REMARK 923 INTER-LIGAND FREE ENERGY PREDICTED BY IDOCK:   -2.71 KCAL/MOL
REMARK 924 INTRA-LIGAND FREE ENERGY PREDICTED BY IDOCK:   -0.47 KCAL/MOL
REMARK 927      BINDING AFFINITY PREDICTED BY RF-SCORE:    0.00 PKD
ROOT
HETATM    1  C   UNL     1     -12.189   6.332  72.275  1.00  0.00    -0.203 C  
HETATM    2  C   UNL     1     -11.364   7.150  71.268  1.00  0.00    -0.268 C  
HETATM    3  N   UNL     1      -9.971   7.322  71.729  1.00  0.00    -0.172 NA 
HETATM    4  C   UNL     1     -11.451   6.519  69.870  1.00  0.00    -0.467 C  
HETATM    5  C   UNL     1     -11.963   8.570  71.192  1.00  0.00    -0.306 C  
HETATM    6  H   UNL     1      -9.577   8.242  71.923  1.00  0.00     0.000 HD 
ENDROOT
BRANCH   3   7
HETATM    7  C   UNL     1      -9.184   6.085  71.891  1.00  0.00    -0.150 C  
BRANCH   7   8
HETATM    8  C   UNL     1      -7.841   6.044  71.095  1.00  0.00    -0.111 C  
HETATM    9  H   UNL     1      -5.971   5.905  71.579  1.00  0.00     0.000 HD 
HETATM   10  O   UNL     1      -6.787   5.930  72.063  1.00  0.00    -0.071 OA 
BRANCH   8  11
HETATM   11  C   UNL     1      -7.593   7.221  70.156  1.00  0.00    -0.090 A  
HETATM   12  C   UNL     1      -6.829   8.319  70.590  1.00  0.00    -0.038 A  
HETATM   13  C   UNL     1      -6.540   9.412  69.753  1.00  0.00    -0.045 A  
HETATM   14  C   UNL     1      -7.140   9.445  68.491  1.00  0.00    -0.071 A  
HETATM   15  H   UNL     1      -7.385  10.521  66.778  1.00  0.00     0.000 HD 
HETATM   16  C   UNL     1      -7.933   8.396  68.049  1.00  0.00    -0.119 A  
HETATM   17  O   UNL     1      -6.977  10.499  67.635  1.00  0.00    -0.077 OA 
HETATM   18  C   UNL     1      -8.136   7.277  68.863  1.00  0.00    -0.128 A  
BRANCH  13  19
HETATM   19  C   UNL     1      -5.648  10.508  70.273  1.00  0.00    -0.071 C  
HETATM   20  O   UNL     1      -5.747  10.604  71.693  1.00  0.00    -0.322 OA 
HETATM   21  H   UNL     1      -5.184  11.295  72.022  1.00  0.00     0.000 HD 
ENDBRANCH  13  19
ENDBRANCH   8  11
ENDBRANCH   7   8
ENDBRANCH   3   7
TORSDOF 4
ENDMDL
MODEL      292
REMARK 921   NORMALIZED FREE ENERGY PREDICTED BY IDOCK:   -1.97 KCAL/MOL
REMARK 922        TOTAL FREE ENERGY PREDICTED BY IDOCK:   -3.14 KCAL/MOL
REMARK 923 INTER-LIGAND FREE ENERGY PREDICTED BY IDOCK:   -2.70 KCAL/MOL
REMARK 924 INTRA-LIGAND FREE ENERGY PREDICTED BY IDOCK:   -0.44 KCAL/MOL
REMARK 927      BINDING AFFINITY PREDICTED BY RF-SCORE:    0.00 PKD
ROOT
HETATM    1  C   UNL     1      -7.975  15.683  68.728  1.00  0.00    -0.172 C  
HETATM    2  C   UNL     1      -7.791  15.575  67.205  1.00  0.00    -0.204 C  
HETATM    3  N   UNL     1      -7.296  14.237  66.818  1.00  0.00    -0.155 NA 
HETATM    4  C   UNL     1      -9.091  15.956  66.483  1.00  0.00    -0.320 C  
HETATM    5  C   UNL     1      -6.694  16.571  66.778  1.00  0.00    -0.202 C  
HETATM    6  H   UNL     1      -6.396  14.107  66.357  1.00  0.00     0.000 HD 
ENDROOT
BRANCH   3   7
HETATM    7  C   UNL     1      -8.181  13.101  67.138  1.00  0.00    -0.120 C  
BRANCH   7   8
HETATM    8  C   UNL     1      -7.487  11.703  67.153  1.00  0.00    -0.146 C  
HETATM    9  H   UNL     1      -6.451  10.678  65.877  1.00  0.00     0.000 HD 
HETATM   10  O   UNL     1      -6.873  11.529  65.867  1.00  0.00     0.215 OA 
BRANCH   8  11
HETATM   11  C   UNL     1      -8.390  10.520  67.491  1.00  0.00    -0.118 A  
HETATM   12  C   UNL     1      -8.097   9.243  66.980  1.00  0.00    -0.112 A  
HETATM   13  C   UNL     1      -8.875   8.112  67.289  1.00  0.00    -0.136 A  
HETATM   14  C   UNL     1     -10.042   8.307  68.035  1.00  0.00    -0.198 A  
HETATM   15  H   UNL     1     -11.692   7.414  68.830  1.00  0.00     0.000 HD 
HETATM   16  C   UNL     1     -10.380   9.562  68.518  1.00  0.00    -0.234 A  
HETATM   17  O   UNL     1     -10.899   7.282  68.323  1.00  0.00    -0.157 OA 
HETATM   18  C   UNL     1      -9.546  10.658  68.274  1.00  0.00    -0.167 A  
BRANCH  13  19
HETATM   19  C   UNL     1      -8.444   6.770  66.763  1.00  0.00    -0.117 C  
HETATM   20  O   UNL     1      -9.439   6.227  65.897  1.00  0.00    -0.358 OA 
HETATM   21  H   UNL     1      -9.167   5.379  65.564  1.00  0.00     0.000 HD 
ENDBRANCH  13  19
ENDBRANCH   8  11
ENDBRANCH   7   8
ENDBRANCH   3   7
TORSDOF 4
ENDMDL
MODEL      293
REMARK 921   NORMALIZED FREE ENERGY PREDICTED BY IDOCK:   -1.93 KCAL/MOL
REMARK 922        TOTAL FREE ENERGY PREDICTED BY IDOCK:   -3.09 KCAL/MOL
REMARK 923 INTER-LIGAND FREE ENERGY PREDICTED BY IDOCK:   -2.75 KCAL/MOL
REMARK 924 INTRA-LIGAND FREE ENERGY PREDICTED BY IDOCK:   -0.34 KCAL/MOL
REMARK 927      BINDING AFFINITY PREDICTED BY RF-SCORE:    0.00 PKD
ROOT
HETATM    1  C   UNL     1      -6.585   6.073  69.844  1.00  0.00    -0.047 C  
HETATM    2  C   UNL     1      -8.073   6.344  70.119  1.00  0.00    -0.120 C  
HETATM    3  N   UNL     1      -8.453   7.713  69.713  1.00  0.00    -0.133 NA 
HETATM    4  C   UNL     1      -8.943   5.267  69.453  1.00  0.00    -0.124 C  
HETATM    5  C   UNL     1      -8.305   6.274  71.642  1.00  0.00    -0.129 C  
HETATM    6  H   UNL     1      -8.797   8.399  70.384  1.00  0.00     0.000 HD 
ENDROOT
BRANCH   3   7
HETATM    7  C   UNL     1      -8.307   8.029  68.280  1.00  0.00    -0.123 C  
BRANCH   7   8
HETATM    8  C   UNL     1      -7.849   9.487  67.965  1.00  0.00    -0.087 C  
HETATM    9  H   UNL     1      -6.800  10.821  68.899  1.00  0.00     0.000 HD 
HETATM   10  O   UNL     1      -7.078   9.933  69.091  1.00  0.00    -0.063 OA 
BRANCH   8  11
HETATM   11  C   UNL     1      -8.966  10.476  67.644  1.00  0.00    -0.138 A  
HETATM   12  C   UNL     1      -9.148  11.617  68.446  1.00  0.00    -0.180 A  
HETATM   13  C   UNL     1     -10.138  12.579  68.173  1.00  0.00    -0.225 A  
HETATM   14  C   UNL     1     -11.038  12.313  67.136  1.00  0.00    -0.278 A  
HETATM   15  H   UNL     1     -12.689  12.970  66.139  1.00  0.00     0.000 HD 
HETATM   16  C   UNL     1     -10.911  11.174  66.353  1.00  0.00    -0.248 A  
HETATM   17  O   UNL     1     -12.077  13.151  66.843  1.00  0.00    -0.379 OA 
HETATM   18  C   UNL     1      -9.865  10.275  66.585  1.00  0.00    -0.256 A  
BRANCH  13  19
HETATM   19  C   UNL     1     -10.211  13.809  69.036  1.00  0.00    -0.026 C  
HETATM   20  O   UNL     1      -9.494  14.887  68.436  1.00  0.00    -0.196 OA 
HETATM   21  H   UNL     1      -9.540  15.664  68.981  1.00  0.00     0.000 HD 
ENDBRANCH  13  19
ENDBRANCH   8  11
ENDBRANCH   7   8
ENDBRANCH   3   7
TORSDOF 4
ENDMDL
MODEL      294
REMARK 921   NORMALIZED FREE ENERGY PREDICTED BY IDOCK:   -1.88 KCAL/MOL
REMARK 922        TOTAL FREE ENERGY PREDICTED BY IDOCK:   -3.03 KCAL/MOL
REMARK 923 INTER-LIGAND FREE ENERGY PREDICTED BY IDOCK:   -2.66 KCAL/MOL
REMARK 924 INTRA-LIGAND FREE ENERGY PREDICTED BY IDOCK:   -0.37 KCAL/MOL
REMARK 927      BINDING AFFINITY PREDICTED BY RF-SCORE:    0.00 PKD
ROOT
HETATM    1  C   UNL     1     -10.696   8.748  72.656  1.00  0.00     0.096 C  
HETATM    2  C   UNL     1     -11.873   8.232  71.811  1.00  0.00    -0.306 C  
HETATM    3  N   UNL     1     -11.577   8.321  70.367  1.00  0.00    -0.461 NA 
HETATM    4  C   UNL     1     -12.260   6.812  72.249  1.00  0.00    -0.174 C  
HETATM    5  C   UNL     1     -13.084   9.156  72.053  1.00  0.00    -0.497 C  
HETATM    6  H   UNL     1     -12.130   8.903  69.738  1.00  0.00     0.000 HD 
ENDROOT
BRANCH   3   7
HETATM    7  C   UNL     1     -10.435   7.520  69.888  1.00  0.00    -0.229 C  
BRANCH   7   8
HETATM    8  C   UNL     1      -9.859   7.948  68.502  1.00  0.00    -0.177 C  
HETATM    9  H   UNL     1      -9.202   7.002  66.944  1.00  0.00     0.000 HD 
HETATM   10  O   UNL     1      -9.552   6.741  67.788  1.00  0.00    -0.125 OA 
BRANCH   8  11
HETATM   11  C   UNL     1      -8.649   8.877  68.547  1.00  0.00    -0.133 A  
HETATM   12  C   UNL     1      -8.313   9.650  67.421  1.00  0.00    -0.114 A  
HETATM   13  C   UNL     1      -7.231  10.549  67.421  1.00  0.00    -0.092 A  
HETATM   14  C   UNL     1      -6.401  10.571  68.547  1.00  0.00    -0.050 A  
HETATM   15  H   UNL     1      -4.721  11.373  69.376  1.00  0.00     0.000 HD 
HETATM   16  C   UNL     1      -6.682   9.789  69.658  1.00  0.00    -0.055 A  
HETATM   17  O   UNL     1      -5.284  11.357  68.611  1.00  0.00    -0.044 OA 
HETATM   18  C   UNL     1      -7.814   8.968  69.671  1.00  0.00    -0.088 A  
BRANCH  13  19
HETATM   19  C   UNL     1      -6.991  11.395  66.200  1.00  0.00     0.151 C  
HETATM   20  O   UNL     1      -7.913  11.058  65.166  1.00  0.00    -0.363 OA 
HETATM   21  H   UNL     1      -7.762  11.592  64.395  1.00  0.00     0.000 HD 
ENDBRANCH  13  19
ENDBRANCH   8  11
ENDBRANCH   7   8
ENDBRANCH   3   7
TORSDOF 4
ENDMDL
MODEL      295
REMARK 921   NORMALIZED FREE ENERGY PREDICTED BY IDOCK:   -1.88 KCAL/MOL
REMARK 922        TOTAL FREE ENERGY PREDICTED BY IDOCK:   -3.02 KCAL/MOL
REMARK 923 INTER-LIGAND FREE ENERGY PREDICTED BY IDOCK:   -3.06 KCAL/MOL
REMARK 924 INTRA-LIGAND FREE ENERGY PREDICTED BY IDOCK:    0.03 KCAL/MOL
REMARK 927      BINDING AFFINITY PREDICTED BY RF-SCORE:    0.00 PKD
ROOT
HETATM    1  C   UNL     1      -9.703  13.184  65.521  1.00  0.00    -0.061 C  
HETATM    2  C   UNL     1     -11.071  12.739  66.062  1.00  0.00    -0.285 C  
HETATM    3  N   UNL     1     -10.936  11.593  66.985  1.00  0.00    -0.273 NA 
HETATM    4  C   UNL     1     -11.805  13.927  66.699  1.00  0.00    -0.447 C  
HETATM    5  C   UNL     1     -11.918  12.230  64.877  1.00  0.00    -0.420 C  
HETATM    6  H   UNL     1     -11.363  10.688  66.788  1.00  0.00     0.000 HD 
ENDROOT
BRANCH   3   7
HETATM    7  C   UNL     1     -10.147  11.834  68.207  1.00  0.00    -0.197 C  
BRANCH   7   8
HETATM    8  C   UNL     1      -8.683  11.294  68.170  1.00  0.00    -0.155 C  
HETATM    9  H   UNL     1      -6.968  12.029  67.647  1.00  0.00     0.000 HD 
HETATM   10  O   UNL     1      -7.859  12.358  67.670  1.00  0.00    -0.139 OA 
BRANCH   8  11
HETATM   11  C   UNL     1      -8.470  10.016  67.363  1.00  0.00    -0.121 A  
HETATM   12  C   UNL     1      -8.127  10.093  66.001  1.00  0.00    -0.129 A  
HETATM   13  C   UNL     1      -7.884   8.948  65.220  1.00  0.00    -0.104 A  
HETATM   14  C   UNL     1      -8.113   7.698  65.805  1.00  0.00    -0.126 A  
HETATM   15  H   UNL     1      -8.129   5.683  65.503  1.00  0.00     0.000 HD 
HETATM   16  C   UNL     1      -8.492   7.590  67.135  1.00  0.00    -0.121 A  
HETATM   17  O   UNL     1      -7.974   6.532  65.106  1.00  0.00    -0.111 OA 
HETATM   18  C   UNL     1      -8.642   8.739  67.919  1.00  0.00    -0.130 A  
BRANCH  13  19
HETATM   19  C   UNL     1      -7.445   9.124  63.792  1.00  0.00    -0.106 C  
HETATM   20  O   UNL     1      -6.496  10.183  63.684  1.00  0.00    -0.131 OA 
HETATM   21  H   UNL     1      -6.218  10.295  62.783  1.00  0.00     0.000 HD 
ENDBRANCH  13  19
ENDBRANCH   8  11
ENDBRANCH   7   8
ENDBRANCH   3   7
TORSDOF 4
ENDMDL
MODEL      296
REMARK 921   NORMALIZED FREE ENERGY PREDICTED BY IDOCK:   -1.86 KCAL/MOL
REMARK 922        TOTAL FREE ENERGY PREDICTED BY IDOCK:   -3.00 KCAL/MOL
REMARK 923 INTER-LIGAND FREE ENERGY PREDICTED BY IDOCK:   -2.74 KCAL/MOL
REMARK 924 INTRA-LIGAND FREE ENERGY PREDICTED BY IDOCK:   -0.26 KCAL/MOL
REMARK 927      BINDING AFFINITY PREDICTED BY RF-SCORE:    0.00 PKD
ROOT
HETATM    1  C   UNL     1     -11.449  10.889  67.571  1.00  0.00    -0.234 C  
HETATM    2  C   UNL     1     -10.960  10.750  69.022  1.00  0.00    -0.240 C  
HETATM    3  N   UNL     1     -10.828   9.331  69.411  1.00  0.00    -0.332 NA 
HETATM    4  C   UNL     1      -9.660  11.542  69.225  1.00  0.00     0.301 C  
HETATM    5  C   UNL     1     -12.035  11.346  69.954  1.00  0.00    -0.434 C  
HETATM    6  H   UNL     1     -11.380   8.925  70.165  1.00  0.00     0.000 HD 
ENDROOT
BRANCH   3   7
HETATM    7  C   UNL     1      -9.851   8.536  68.643  1.00  0.00    -0.170 C  
BRANCH   7   8
HETATM    8  C   UNL     1      -9.412   7.197  69.313  1.00  0.00    -0.152 C  
HETATM    9  H   UNL     1      -8.353   6.729  70.867  1.00  0.00     0.000 HD 
HETATM   10  O   UNL     1      -8.620   7.545  70.459  1.00  0.00    -0.134 OA 
BRANCH   8  11
HETATM   11  C   UNL     1      -8.664   6.220  68.410  1.00  0.00    -0.116 A  
HETATM   12  C   UNL     1      -9.327   5.612  67.329  1.00  0.00    -0.113 A  
HETATM   13  C   UNL     1      -8.676   4.733  66.445  1.00  0.00    -0.112 A  
HETATM   14  C   UNL     1      -7.357   4.372  66.737  1.00  0.00    -0.080 A  
HETATM   15  H   UNL     1      -5.769   3.223  66.178  1.00  0.00     0.000 HD 
HETATM   16  C   UNL     1      -6.688   4.922  67.821  1.00  0.00    -0.051 A  
HETATM   17  O   UNL     1      -6.665   3.469  65.979  1.00  0.00    -0.040 OA 
HETATM   18  C   UNL     1      -7.326   5.863  68.637  1.00  0.00    -0.085 A  
BRANCH  13  19
HETATM   19  C   UNL     1      -9.440   4.189  65.268  1.00  0.00    -0.173 C  
HETATM   20  O   UNL     1     -10.843   4.376  65.451  1.00  0.00    -0.572 OA 
HETATM   21  H   UNL     1     -11.326   4.033  64.708  1.00  0.00     0.000 HD 
ENDBRANCH  13  19
ENDBRANCH   8  11
ENDBRANCH   7   8
ENDBRANCH   3   7
TORSDOF 4
ENDMDL
MODEL      297
REMARK 921   NORMALIZED FREE ENERGY PREDICTED BY IDOCK:   -1.79 KCAL/MOL
REMARK 922        TOTAL FREE ENERGY PREDICTED BY IDOCK:   -2.92 KCAL/MOL
REMARK 923 INTER-LIGAND FREE ENERGY PREDICTED BY IDOCK:   -3.07 KCAL/MOL
REMARK 924 INTRA-LIGAND FREE ENERGY PREDICTED BY IDOCK:    0.15 KCAL/MOL
REMARK 927      BINDING AFFINITY PREDICTED BY RF-SCORE:    0.00 PKD
ROOT
HETATM    1  C   UNL     1      -9.705  10.724  64.577  1.00  0.00    -0.351 C  
HETATM    2  C   UNL     1      -9.621  11.394  65.959  1.00  0.00    -0.221 C  
HETATM    3  N   UNL     1     -10.500  10.720  66.936  1.00  0.00    -0.241 NA 
HETATM    4  C   UNL     1      -8.161  11.467  66.428  1.00  0.00    -0.069 C  
HETATM    5  C   UNL     1     -10.157  12.835  65.831  1.00  0.00    -0.286 C  
HETATM    6  H   UNL     1     -11.276  11.203  67.387  1.00  0.00     0.000 HD 
ENDROOT
BRANCH   3   7
HETATM    7  C   UNL     1     -10.188   9.307  67.222  1.00  0.00    -0.252 C  
BRANCH   7   8
HETATM    8  C   UNL     1      -9.340   9.061  68.509  1.00  0.00    -0.139 C  
HETATM    9  H   UNL     1      -7.448   9.087  68.923  1.00  0.00     0.000 HD 
HETATM   10  O   UNL     1      -7.964   9.237  68.140  1.00  0.00    -0.098 OA 
BRANCH   8  11
HETATM   11  C   UNL     1      -9.553   7.715  69.194  1.00  0.00    -0.155 A  
HETATM   12  C   UNL     1      -8.694   6.637  68.910  1.00  0.00    -0.128 A  
HETATM   13  C   UNL     1      -8.823   5.386  69.540  1.00  0.00    -0.118 A  
HETATM   14  C   UNL     1      -9.920   5.190  70.385  1.00  0.00    -0.246 A  
HETATM   15  H   UNL     1     -10.915   3.855  71.559  1.00  0.00     0.000 HD 
HETATM   16  C   UNL     1     -10.809   6.221  70.653  1.00  0.00    -0.339 A  
HETATM   17  O   UNL     1     -10.170   3.988  70.985  1.00  0.00    -0.090 OA 
HETATM   18  C   UNL     1     -10.612   7.484  70.086  1.00  0.00    -0.241 A  
BRANCH  13  19
HETATM   19  C   UNL     1      -7.813   4.313  69.235  1.00  0.00    -0.057 C  
HETATM   20  O   UNL     1      -7.327   3.723  70.439  1.00  0.00    -0.041 OA 
HETATM   21  H   UNL     1      -6.689   3.046  70.248  1.00  0.00     0.000 HD 
ENDBRANCH  13  19
ENDBRANCH   8  11
ENDBRANCH   7   8
ENDBRANCH   3   7
TORSDOF 4
ENDMDL
MODEL      298
REMARK 921   NORMALIZED FREE ENERGY PREDICTED BY IDOCK:   -1.79 KCAL/MOL
REMARK 922        TOTAL FREE ENERGY PREDICTED BY IDOCK:   -2.91 KCAL/MOL
REMARK 923 INTER-LIGAND FREE ENERGY PREDICTED BY IDOCK:   -2.55 KCAL/MOL
REMARK 924 INTRA-LIGAND FREE ENERGY PREDICTED BY IDOCK:   -0.36 KCAL/MOL
REMARK 927      BINDING AFFINITY PREDICTED BY RF-SCORE:    0.00 PKD
ROOT
HETATM    1  C   UNL     1      -9.028   4.276  73.648  1.00  0.00    -0.092 C  
HETATM    2  C   UNL     1      -9.200   4.358  72.122  1.00  0.00    -0.127 C  
HETATM    3  N   UNL     1     -10.182   5.397  71.748  1.00  0.00    -0.200 NA 
HETATM    4  C   UNL     1      -7.838   4.559  71.442  1.00  0.00    -0.086 C  
HETATM    5  C   UNL     1      -9.791   3.021  71.630  1.00  0.00    -0.214 C  
HETATM    6  H   UNL     1     -11.045   5.170  71.255  1.00  0.00     0.000 HD 
ENDROOT
BRANCH   3   7
HETATM    7  C   UNL     1      -9.839   6.780  72.127  1.00  0.00    -0.148 C  
BRANCH   7   8
HETATM    8  C   UNL     1     -10.198   7.867  71.067  1.00  0.00    -0.197 C  
HETATM    9  H   UNL     1     -11.845   8.533  70.295  1.00  0.00     0.000 HD 
HETATM   10  O   UNL     1     -11.628   7.871  70.940  1.00  0.00    -0.284 OA 
BRANCH   8  11
HETATM   11  C   UNL     1      -9.531   7.706  69.703  1.00  0.00    -0.156 A  
HETATM   12  C   UNL     1      -9.973   6.707  68.818  1.00  0.00    -0.150 A  
HETATM   13  C   UNL     1      -9.418   6.539  67.536  1.00  0.00    -0.131 A  
HETATM   14  C   UNL     1      -8.312   7.323  67.195  1.00  0.00    -0.118 A  
HETATM   15  H   UNL     1      -6.909   7.715  65.770  1.00  0.00     0.000 HD 
HETATM   16  C   UNL     1      -7.826   8.290  68.064  1.00  0.00    -0.118 A  
HETATM   17  O   UNL     1      -7.660   7.182  66.002  1.00  0.00    -0.084 OA 
HETATM   18  C   UNL     1      -8.448   8.502  69.298  1.00  0.00    -0.128 A  
BRANCH  13  19
HETATM   19  C   UNL     1     -10.005   5.495  66.623  1.00  0.00    -0.186 C  
HETATM   20  O   UNL     1     -10.109   4.241  67.295  1.00  0.00    -0.137 OA 
HETATM   21  H   UNL     1     -10.480   3.582  66.719  1.00  0.00     0.000 HD 
ENDBRANCH  13  19
ENDBRANCH   8  11
ENDBRANCH   7   8
ENDBRANCH   3   7
TORSDOF 4
ENDMDL
MODEL      299
REMARK 921   NORMALIZED FREE ENERGY PREDICTED BY IDOCK:   -1.73 KCAL/MOL
REMARK 922        TOTAL FREE ENERGY PREDICTED BY IDOCK:   -2.85 KCAL/MOL
REMARK 923 INTER-LIGAND FREE ENERGY PREDICTED BY IDOCK:   -2.47 KCAL/MOL
REMARK 924 INTRA-LIGAND FREE ENERGY PREDICTED BY IDOCK:   -0.38 KCAL/MOL
REMARK 927      BINDING AFFINITY PREDICTED BY RF-SCORE:    0.00 PKD
ROOT
HETATM    1  C   UNL     1      -9.437   4.359  73.283  1.00  0.00    -0.135 C  
HETATM    2  C   UNL     1      -9.093   4.272  71.787  1.00  0.00    -0.123 C  
HETATM    3  N   UNL     1      -9.664   5.411  71.038  1.00  0.00    -0.171 NA 
HETATM    4  C   UNL     1      -7.575   4.140  71.595  1.00  0.00    -0.065 C  
HETATM    5  C   UNL     1      -9.762   3.008  71.209  1.00  0.00    -0.208 C  
HETATM    6  H   UNL     1     -10.353   5.279  70.298  1.00  0.00     0.000 HD 
ENDROOT
BRANCH   3   7
HETATM    7  C   UNL     1      -9.179   6.749  71.423  1.00  0.00    -0.153 C  
BRANCH   7   8
HETATM    8  C   UNL     1      -9.504   7.890  70.410  1.00  0.00    -0.163 C  
HETATM    9  H   UNL     1     -11.048   8.370  69.342  1.00  0.00     0.000 HD 
HETATM   10  O   UNL     1     -10.850   7.676  69.959  1.00  0.00    -0.246 OA 
BRANCH   8  11
HETATM   11  C   UNL     1      -8.548   8.017  69.227  1.00  0.00    -0.137 A  
HETATM   12  C   UNL     1      -8.970   8.654  68.047  1.00  0.00    -0.141 A  
HETATM   13  C   UNL     1      -8.117   8.830  66.941  1.00  0.00    -0.101 A  
HETATM   14  C   UNL     1      -6.851   8.240  66.992  1.00  0.00    -0.070 A  
HETATM   15  H   UNL     1      -5.120   7.893  65.975  1.00  0.00     0.000 HD 
HETATM   16  C   UNL     1      -6.420   7.568  68.128  1.00  0.00    -0.049 A  
HETATM   17  O   UNL     1      -5.980   8.294  65.940  1.00  0.00    -0.043 OA 
HETATM   18  C   UNL     1      -7.251   7.482  69.250  1.00  0.00    -0.086 A  
BRANCH  13  19
HETATM   19  C   UNL     1      -8.626   9.593  65.748  1.00  0.00    -0.136 C  
HETATM   20  O   UNL     1      -9.986   9.258  65.479  1.00  0.00    -0.440 OA 
HETATM   21  H   UNL     1     -10.308   9.739  64.726  1.00  0.00     0.000 HD 
ENDBRANCH  13  19
ENDBRANCH   8  11
ENDBRANCH   7   8
ENDBRANCH   3   7
TORSDOF 4
ENDMDL
MODEL      300
REMARK 921   NORMALIZED FREE ENERGY PREDICTED BY IDOCK:   -1.71 KCAL/MOL
REMARK 922        TOTAL FREE ENERGY PREDICTED BY IDOCK:   -2.82 KCAL/MOL
REMARK 923 INTER-LIGAND FREE ENERGY PREDICTED BY IDOCK:   -2.61 KCAL/MOL
REMARK 924 INTRA-LIGAND FREE ENERGY PREDICTED BY IDOCK:   -0.21 KCAL/MOL
REMARK 927      BINDING AFFINITY PREDICTED BY RF-SCORE:    0.00 PKD
ROOT
HETATM    1  C   UNL     1      -5.799  10.374  65.753  1.00  0.00    -0.108 C  
HETATM    2  C   UNL     1      -6.364   8.946  65.817  1.00  0.00    -0.056 C  
HETATM    3  N   UNL     1      -7.617   8.899  66.597  1.00  0.00    -0.089 NA 
HETATM    4  C   UNL     1      -6.527   8.373  64.401  1.00  0.00    -0.066 C  
HETATM    5  C   UNL     1      -5.357   8.060  66.580  1.00  0.00    -0.028 C  
HETATM    6  H   UNL     1      -7.699   8.353  67.454  1.00  0.00     0.000 HD 
ENDROOT
BRANCH   3   7
HETATM    7  C   UNL     1      -8.743   9.689  66.065  1.00  0.00    -0.138 C  
BRANCH   7   8
HETATM    8  C   UNL     1      -9.376  10.703  67.068  1.00  0.00    -0.155 C  
HETATM    9  H   UNL     1      -8.784  12.346  67.905  1.00  0.00     0.000 HD 
HETATM   10  O   UNL     1      -8.399  11.730  67.295  1.00  0.00    -0.147 OA 
BRANCH   8  11
HETATM   11  C   UNL     1      -9.861  10.111  68.389  1.00  0.00    -0.164 A  
HETATM   12  C   UNL     1     -10.075   8.726  68.502  1.00  0.00    -0.210 A  
HETATM   13  C   UNL     1     -10.486   8.124  69.706  1.00  0.00    -0.227 A  
HETATM   14  C   UNL     1     -10.801   8.962  70.780  1.00  0.00    -0.241 A  
HETATM   15  H   UNL     1     -11.491   9.045  72.696  1.00  0.00     0.000 HD 
HETATM   16  C   UNL     1     -10.639  10.337  70.686  1.00  0.00    -0.035 A  
HETATM   17  O   UNL     1     -11.277   8.476  71.966  1.00  0.00    -0.301 OA 
HETATM   18  C   UNL     1     -10.144  10.907  69.509  1.00  0.00    -0.056 A  
BRANCH  13  19
HETATM   19  C   UNL     1     -10.616   6.626  69.760  1.00  0.00    -0.228 C  
HETATM   20  O   UNL     1     -11.780   6.248  70.493  1.00  0.00    -0.354 OA 
HETATM   21  H   UNL     1     -11.862   5.302  70.528  1.00  0.00     0.000 HD 
ENDBRANCH  13  19
ENDBRANCH   8  11
ENDBRANCH   7   8
ENDBRANCH   3   7
TORSDOF 4
ENDMDL
MODEL      301
REMARK 921   NORMALIZED FREE ENERGY PREDICTED BY IDOCK:   -1.64 KCAL/MOL
REMARK 922        TOTAL FREE ENERGY PREDICTED BY IDOCK:   -2.73 KCAL/MOL
REMARK 923 INTER-LIGAND FREE ENERGY PREDICTED BY IDOCK:   -2.33 KCAL/MOL
REMARK 924 INTRA-LIGAND FREE ENERGY PREDICTED BY IDOCK:   -0.40 KCAL/MOL
REMARK 927      BINDING AFFINITY PREDICTED BY RF-SCORE:    0.00 PKD
ROOT
HETATM    1  C   UNL     1      -7.616  11.120  69.067  1.00  0.00    -0.119 C  
HETATM    2  C   UNL     1      -7.231  10.378  67.777  1.00  0.00    -0.086 C  
HETATM    3  N   UNL     1      -7.740   8.991  67.783  1.00  0.00    -0.096 NA 
HETATM    4  C   UNL     1      -7.695  11.172  66.547  1.00  0.00    -0.146 C  
HETATM    5  C   UNL     1      -5.693  10.265  67.724  1.00  0.00    -0.044 C  
HETATM    6  H   UNL     1      -7.114   8.187  67.749  1.00  0.00     0.000 HD 
ENDROOT
BRANCH   3   7
HETATM    7  C   UNL     1      -9.205   8.838  67.842  1.00  0.00    -0.139 C  
BRANCH   7   8
HETATM    8  C   UNL     1      -9.720   7.762  68.849  1.00  0.00    -0.160 C  
HETATM    9  H   UNL     1      -9.400   7.379  70.721  1.00  0.00     0.000 HD 
HETATM   10  O   UNL     1      -9.086   8.033  70.108  1.00  0.00    -0.149 OA 
BRANCH   8  11
HETATM   11  C   UNL     1      -9.505   6.310  68.432  1.00  0.00    -0.118 A  
HETATM   12  C   UNL     1      -9.993   5.853  67.195  1.00  0.00    -0.187 A  
HETATM   13  C   UNL     1      -9.790   4.535  66.747  1.00  0.00    -0.242 A  
HETATM   14  C   UNL     1      -9.185   3.632  67.626  1.00  0.00    -0.185 A  
HETATM   15  H   UNL     1      -8.600   1.700  67.906  1.00  0.00     0.000 HD 
HETATM   16  C   UNL     1      -8.730   4.042  68.871  1.00  0.00    -0.129 A  
HETATM   17  O   UNL     1      -9.011   2.314  67.309  1.00  0.00    -0.129 OA 
HETATM   18  C   UNL     1      -8.861   5.378  69.262  1.00  0.00    -0.112 A  
BRANCH  13  19
HETATM   19  C   UNL     1     -10.278   4.152  65.375  1.00  0.00    -0.177 C  
HETATM   20  O   UNL     1      -9.966   5.173  64.428  1.00  0.00    -0.113 OA 
HETATM   21  H   UNL     1     -10.274   4.932  63.562  1.00  0.00     0.000 HD 
ENDBRANCH  13  19
ENDBRANCH   8  11
ENDBRANCH   7   8
ENDBRANCH   3   7
TORSDOF 4
ENDMDL
MODEL      302
REMARK 921   NORMALIZED FREE ENERGY PREDICTED BY IDOCK:   -1.59 KCAL/MOL
REMARK 922        TOTAL FREE ENERGY PREDICTED BY IDOCK:   -2.68 KCAL/MOL
REMARK 923 INTER-LIGAND FREE ENERGY PREDICTED BY IDOCK:   -2.78 KCAL/MOL
REMARK 924 INTRA-LIGAND FREE ENERGY PREDICTED BY IDOCK:    0.11 KCAL/MOL
REMARK 927      BINDING AFFINITY PREDICTED BY RF-SCORE:    0.00 PKD
ROOT
HETATM    1  C   UNL     1     -10.678  11.759  66.845  1.00  0.00    -0.288 C  
HETATM    2  C   UNL     1      -9.585  10.710  66.578  1.00  0.00    -0.180 C  
HETATM    3  N   UNL     1      -9.439   9.785  67.721  1.00  0.00    -0.133 NA 
HETATM    4  C   UNL     1      -9.861   9.977  65.257  1.00  0.00    -0.388 C  
HETATM    5  C   UNL     1      -8.233  11.441  66.450  1.00  0.00    -0.124 C  
HETATM    6  H   UNL     1      -8.570   9.715  68.251  1.00  0.00     0.000 HD 
ENDROOT
BRANCH   3   7
HETATM    7  C   UNL     1     -10.623   8.970  68.052  1.00  0.00    -0.186 C  
BRANCH   7   8
HETATM    8  C   UNL     1     -10.640   7.541  67.426  1.00  0.00    -0.294 C  
HETATM    9  H   UNL     1     -11.290   5.807  67.996  1.00  0.00     0.000 HD 
HETATM   10  O   UNL     1     -11.280   6.677  68.378  1.00  0.00    -0.230 OA 
BRANCH   8  11
HETATM   11  C   UNL     1      -9.281   6.984  67.012  1.00  0.00    -0.167 A  
HETATM   12  C   UNL     1      -9.172   6.172  65.868  1.00  0.00    -0.068 A  
HETATM   13  C   UNL     1      -7.939   5.663  65.421  1.00  0.00    -0.112 A  
HETATM   14  C   UNL     1      -6.814   5.883  66.221  1.00  0.00    -0.061 A  
HETATM   15  H   UNL     1      -4.822   5.517  66.452  1.00  0.00     0.000 HD 
HETATM   16  C   UNL     1      -6.896   6.645  67.378  1.00  0.00    -0.073 A  
HETATM   17  O   UNL     1      -5.587   5.367  65.909  1.00  0.00    -0.013 OA 
HETATM   18  C   UNL     1      -8.115   7.217  67.757  1.00  0.00    -0.115 A  
BRANCH  13  19
HETATM   19  C   UNL     1      -7.903   4.869  64.144  1.00  0.00    -0.092 C  
HETATM   20  O   UNL     1      -9.223   4.643  63.654  1.00  0.00    -0.259 OA 
HETATM   21  H   UNL     1      -9.201   4.141  62.848  1.00  0.00     0.000 HD 
ENDBRANCH  13  19
ENDBRANCH   8  11
ENDBRANCH   7   8
ENDBRANCH   3   7
TORSDOF 4
ENDMDL
MODEL      303
REMARK 921   NORMALIZED FREE ENERGY PREDICTED BY IDOCK:   -1.57 KCAL/MOL
REMARK 922        TOTAL FREE ENERGY PREDICTED BY IDOCK:   -2.65 KCAL/MOL
REMARK 923 INTER-LIGAND FREE ENERGY PREDICTED BY IDOCK:   -2.14 KCAL/MOL
REMARK 924 INTRA-LIGAND FREE ENERGY PREDICTED BY IDOCK:   -0.51 KCAL/MOL
REMARK 927      BINDING AFFINITY PREDICTED BY RF-SCORE:    0.00 PKD
ROOT
HETATM    1  C   UNL     1      -9.610  13.154  68.662  1.00  0.00    -0.034 C  
HETATM    2  C   UNL     1      -8.843  12.079  67.875  1.00  0.00    -0.174 C  
HETATM    3  N   UNL     1      -8.268  11.060  68.778  1.00  0.00    -0.147 NA 
HETATM    4  C   UNL     1      -9.743  11.468  66.791  1.00  0.00    -0.220 C  
HETATM    5  C   UNL     1      -7.642  12.753  67.179  1.00  0.00    -0.050 C  
HETATM    6  H   UNL     1      -7.263  10.906  68.847  1.00  0.00     0.000 HD 
ENDROOT
BRANCH   3   7
HETATM    7  C   UNL     1      -9.234  10.278  69.572  1.00  0.00    -0.170 C  
BRANCH   7   8
HETATM    8  C   UNL     1      -9.228   8.741  69.299  1.00  0.00    -0.149 C  
HETATM    9  H   UNL     1     -10.588   7.415  68.922  1.00  0.00     0.000 HD 
HETATM   10  O   UNL     1     -10.593   8.350  69.088  1.00  0.00    -0.217 OA 
BRANCH   8  11
HETATM   11  C   UNL     1      -8.575   7.881  70.378  1.00  0.00    -0.132 A  
HETATM   12  C   UNL     1      -9.369   7.057  71.195  1.00  0.00    -0.158 A  
HETATM   13  C   UNL     1      -8.815   6.217  72.180  1.00  0.00    -0.137 A  
HETATM   14  C   UNL     1      -7.441   6.308  72.418  1.00  0.00    -0.093 A  
HETATM   15  H   UNL     1      -5.890   5.649  73.564  1.00  0.00     0.000 HD 
HETATM   16  C   UNL     1      -6.637   7.144  71.656  1.00  0.00    -0.048 A  
HETATM   17  O   UNL     1      -6.824   5.587  73.402  1.00  0.00    -0.079 OA 
HETATM   18  C   UNL     1      -7.194   7.904  70.623  1.00  0.00    -0.053 A  
BRANCH  13  19
HETATM   19  C   UNL     1      -9.731   5.309  72.956  1.00  0.00    -0.146 C  
HETATM   20  O   UNL     1      -9.457   5.394  74.353  1.00  0.00    -0.129 OA 
HETATM   21  H   UNL     1     -10.035   4.820  74.843  1.00  0.00     0.000 HD 
ENDBRANCH  13  19
ENDBRANCH   8  11
ENDBRANCH   7   8
ENDBRANCH   3   7
TORSDOF 4
ENDMDL
MODEL      304
REMARK 921   NORMALIZED FREE ENERGY PREDICTED BY IDOCK:   -1.43 KCAL/MOL
REMARK 922        TOTAL FREE ENERGY PREDICTED BY IDOCK:   -2.47 KCAL/MOL
REMARK 923 INTER-LIGAND FREE ENERGY PREDICTED BY IDOCK:   -2.22 KCAL/MOL
REMARK 924 INTRA-LIGAND FREE ENERGY PREDICTED BY IDOCK:   -0.25 KCAL/MOL
REMARK 927      BINDING AFFINITY PREDICTED BY RF-SCORE:    0.00 PKD
ROOT
HETATM    1  C   UNL     1     -10.873   9.317  67.338  1.00  0.00    -0.165 C  
HETATM    2  C   UNL     1      -9.446   8.789  67.116  1.00  0.00    -0.162 C  
HETATM    3  N   UNL     1      -9.001   7.953  68.250  1.00  0.00    -0.133 NA 
HETATM    4  C   UNL     1      -9.352   8.057  65.769  1.00  0.00    -0.010 C  
HETATM    5  C   UNL     1      -8.485   9.994  67.076  1.00  0.00    -0.125 C  
HETATM    6  H   UNL     1      -8.199   8.207  68.826  1.00  0.00     0.000 HD 
ENDROOT
BRANCH   3   7
HETATM    7  C   UNL     1      -9.783   6.728  68.500  1.00  0.00    -0.133 C  
BRANCH   7   8
HETATM    8  C   UNL     1      -8.962   5.512  69.031  1.00  0.00    -0.108 C  
HETATM    9  H   UNL     1      -9.360   3.654  69.406  1.00  0.00     0.000 HD 
HETATM   10  O   UNL     1      -9.860   4.394  69.083  1.00  0.00    -0.182 OA 
BRANCH   8  11
HETATM   11  C   UNL     1      -8.270   5.718  70.375  1.00  0.00    -0.107 A  
HETATM   12  C   UNL     1      -8.552   6.862  71.143  1.00  0.00    -0.131 A  
HETATM   13  C   UNL     1      -7.970   7.083  72.405  1.00  0.00    -0.097 A  
HETATM   14  C   UNL     1      -6.991   6.183  72.839  1.00  0.00    -0.076 A  
HETATM   15  H   UNL     1      -5.653   5.743  74.312  1.00  0.00     0.000 HD 
HETATM   16  C   UNL     1      -6.660   5.067  72.084  1.00  0.00    -0.044 A  
HETATM   17  O   UNL     1      -6.318   6.354  74.016  1.00  0.00    -0.065 OA 
HETATM   18  C   UNL     1      -7.315   4.819  70.874  1.00  0.00    -0.063 A  
BRANCH  13  19
HETATM   19  C   UNL     1      -8.388   8.294  73.195  1.00  0.00    -0.187 C  
HETATM   20  O   UNL     1      -8.814   7.918  74.504  1.00  0.00    -0.438 OA 
HETATM   21  H   UNL     1      -9.078   8.683  75.002  1.00  0.00     0.000 HD 
ENDBRANCH  13  19
ENDBRANCH   8  11
ENDBRANCH   7   8
ENDBRANCH   3   7
TORSDOF 4
ENDMDL
MODEL      305
REMARK 921   NORMALIZED FREE ENERGY PREDICTED BY IDOCK:   -1.41 KCAL/MOL
REMARK 922        TOTAL FREE ENERGY PREDICTED BY IDOCK:   -2.45 KCAL/MOL
REMARK 923 INTER-LIGAND FREE ENERGY PREDICTED BY IDOCK:   -1.98 KCAL/MOL
REMARK 924 INTRA-LIGAND FREE ENERGY PREDICTED BY IDOCK:   -0.47 KCAL/MOL
REMARK 927      BINDING AFFINITY PREDICTED BY RF-SCORE:    0.00 PKD
ROOT
HETATM    1  C   UNL     1      -9.304   9.980  66.780  1.00  0.00    -0.193 C  
HETATM    2  C   UNL     1      -8.102   9.920  67.737  1.00  0.00    -0.109 C  
HETATM    3  N   UNL     1      -8.420   9.135  68.948  1.00  0.00    -0.127 NA 
HETATM    4  C   UNL     1      -6.861   9.395  67.001  1.00  0.00    -0.084 C  
HETATM    5  C   UNL     1      -7.801  11.351  68.227  1.00  0.00    -0.132 C  
HETATM    6  H   UNL     1      -8.406   9.550  69.879  1.00  0.00     0.000 HD 
ENDROOT
BRANCH   3   7
HETATM    7  C   UNL     1      -8.756   7.715  68.731  1.00  0.00    -0.128 C  
BRANCH   7   8
HETATM    8  C   UNL     1      -9.569   7.043  69.881  1.00  0.00    -0.159 C  
HETATM    9  H   UNL     1      -9.913   7.468  71.740  1.00  0.00     0.000 HD 
HETATM   10  O   UNL     1      -9.418   7.877  71.040  1.00  0.00    -0.154 OA 
BRANCH   8  11
HETATM   11  C   UNL     1      -9.196   5.598  70.198  1.00  0.00    -0.170 A  
HETATM   12  C   UNL     1      -8.644   4.779  69.197  1.00  0.00    -0.094 A  
HETATM   13  C   UNL     1      -8.248   3.451  69.444  1.00  0.00    -0.070 A  
HETATM   14  C   UNL     1      -8.531   2.909  70.702  1.00  0.00    -0.057 A  
HETATM   15  H   UNL     1      -8.442   1.240  71.867  1.00  0.00     0.000 HD 
HETATM   16  C   UNL     1      -9.113   3.680  71.698  1.00  0.00    -0.171 A  
HETATM   17  O   UNL     1      -8.251   1.608  71.013  1.00  0.00    -0.045 OA 
HETATM   18  C   UNL     1      -9.417   5.024  71.459  1.00  0.00    -0.203 A  
BRANCH  13  19
HETATM   19  C   UNL     1      -7.594   2.671  68.336  1.00  0.00    -0.055 C  
HETATM   20  O   UNL     1      -6.322   2.176  68.753  1.00  0.00    -0.028 OA 
HETATM   21  H   UNL     1      -5.909   1.683  68.053  1.00  0.00     0.000 HD 
ENDBRANCH  13  19
ENDBRANCH   8  11
ENDBRANCH   7   8
ENDBRANCH   3   7
TORSDOF 4
ENDMDL
MODEL      306
REMARK 921   NORMALIZED FREE ENERGY PREDICTED BY IDOCK:   -1.33 KCAL/MOL
REMARK 922        TOTAL FREE ENERGY PREDICTED BY IDOCK:   -2.35 KCAL/MOL
REMARK 923 INTER-LIGAND FREE ENERGY PREDICTED BY IDOCK:   -2.36 KCAL/MOL
REMARK 924 INTRA-LIGAND FREE ENERGY PREDICTED BY IDOCK:    0.01 KCAL/MOL
REMARK 927      BINDING AFFINITY PREDICTED BY RF-SCORE:    0.00 PKD
ROOT
HETATM    1  C   UNL     1     -11.300  11.406  67.293  1.00  0.00    -0.347 C  
HETATM    2  C   UNL     1      -9.808  11.040  67.227  1.00  0.00    -0.178 C  
HETATM    3  N   UNL     1      -9.412  10.198  68.375  1.00  0.00    -0.141 NA 
HETATM    4  C   UNL     1      -9.477  10.391  65.875  1.00  0.00    -0.237 C  
HETATM    5  C   UNL     1      -8.985  12.339  67.351  1.00  0.00    -0.183 C  
HETATM    6  H   UNL     1      -8.715  10.504  69.054  1.00  0.00     0.000 HD 
ENDROOT
BRANCH   3   7
HETATM    7  C   UNL     1     -10.081   8.888  68.480  1.00  0.00    -0.188 C  
BRANCH   7   8
HETATM    8  C   UNL     1      -9.512   7.775  67.545  1.00  0.00    -0.141 C  
HETATM    9  H   UNL     1     -10.294   6.435  66.385  1.00  0.00     0.000 HD 
HETATM   10  O   UNL     1     -10.640   7.112  66.954  1.00  0.00    -0.305 OA 
BRANCH   8  11
HETATM   11  C   UNL     1      -8.576   6.769  68.209  1.00  0.00    -0.124 A  
HETATM   12  C   UNL     1      -7.769   5.931  67.418  1.00  0.00    -0.097 A  
HETATM   13  C   UNL     1      -6.862   5.013  67.978  1.00  0.00    -0.060 A  
HETATM   14  C   UNL     1      -6.864   4.858  69.368  1.00  0.00    -0.053 A  
HETATM   15  H   UNL     1      -6.073   3.835  70.943  1.00  0.00     0.000 HD 
HETATM   16  C   UNL     1      -7.679   5.641  70.173  1.00  0.00    -0.086 A  
HETATM   17  O   UNL     1      -6.072   3.940  69.998  1.00  0.00    -0.021 OA 
HETATM   18  C   UNL     1      -8.509   6.611  69.602  1.00  0.00    -0.132 A  
BRANCH  13  19
HETATM   19  C   UNL     1      -5.981   4.212  67.058  1.00  0.00    -0.024 C  
HETATM   20  O   UNL     1      -6.626   3.997  65.804  1.00  0.00    -0.042 OA 
HETATM   21  H   UNL     1      -6.069   3.492  65.223  1.00  0.00     0.000 HD 
ENDBRANCH  13  19
ENDBRANCH   8  11
ENDBRANCH   7   8
ENDBRANCH   3   7
TORSDOF 4
ENDMDL
MODEL      307
REMARK 921   NORMALIZED FREE ENERGY PREDICTED BY IDOCK:   -1.29 KCAL/MOL
REMARK 922        TOTAL FREE ENERGY PREDICTED BY IDOCK:   -2.30 KCAL/MOL
REMARK 923 INTER-LIGAND FREE ENERGY PREDICTED BY IDOCK:   -2.40 KCAL/MOL
REMARK 924 INTRA-LIGAND FREE ENERGY PREDICTED BY IDOCK:    0.10 KCAL/MOL
REMARK 927      BINDING AFFINITY PREDICTED BY RF-SCORE:    0.00 PKD
ROOT
HETATM    1  C   UNL     1     -10.778  10.104  67.319  1.00  0.00    -0.316 C  
HETATM    2  C   UNL     1      -9.451   9.753  66.627  1.00  0.00    -0.171 C  
HETATM    3  N   UNL     1      -9.047   8.361  66.914  1.00  0.00    -0.142 NA 
HETATM    4  C   UNL     1      -9.541  10.044  65.122  1.00  0.00    -0.356 C  
HETATM    5  C   UNL     1      -8.343  10.647  67.223  1.00  0.00    -0.120 C  
HETATM    6  H   UNL     1      -8.183   8.142  67.409  1.00  0.00     0.000 HD 
ENDROOT
BRANCH   3   7
HETATM    7  C   UNL     1      -9.966   7.309  66.443  1.00  0.00    -0.024 C  
BRANCH   7   8
HETATM    8  C   UNL     1      -9.404   5.855  66.517  1.00  0.00    -0.153 C  
HETATM    9  H   UNL     1     -10.139   4.089  66.212  1.00  0.00     0.000 HD 
HETATM   10  O   UNL     1     -10.481   4.974  66.166  1.00  0.00    -0.276 OA 
BRANCH   8  11
HETATM   11  C   UNL     1      -8.785   5.453  67.853  1.00  0.00    -0.106 A  
HETATM   12  C   UNL     1      -8.985   6.255  68.991  1.00  0.00    -0.123 A  
HETATM   13  C   UNL     1      -8.468   5.912  70.254  1.00  0.00    -0.127 A  
HETATM   14  C   UNL     1      -7.631   4.796  70.335  1.00  0.00    -0.054 A  
HETATM   15  H   UNL     1      -6.454   3.667  71.558  1.00  0.00     0.000 HD 
HETATM   16  C   UNL     1      -7.380   4.007  69.221  1.00  0.00    -0.054 A  
HETATM   17  O   UNL     1      -7.023   4.426  71.502  1.00  0.00    -0.036 OA 
HETATM   18  C   UNL     1      -7.976   4.315  67.994  1.00  0.00    -0.086 A  
BRANCH  13  19
HETATM   19  C   UNL     1      -8.797   6.787  71.434  1.00  0.00    -0.131 C  
HETATM   20  O   UNL     1      -8.768   8.164  71.062  1.00  0.00    -0.127 OA 
HETATM   21  H   UNL     1      -8.976   8.716  71.807  1.00  0.00     0.000 HD 
ENDBRANCH  13  19
ENDBRANCH   8  11
ENDBRANCH   7   8
ENDBRANCH   3   7
TORSDOF 4
ENDMDL
MODEL      308
REMARK 921   NORMALIZED FREE ENERGY PREDICTED BY IDOCK:   -1.13 KCAL/MOL
REMARK 922        TOTAL FREE ENERGY PREDICTED BY IDOCK:   -2.10 KCAL/MOL
REMARK 923 INTER-LIGAND FREE ENERGY PREDICTED BY IDOCK:   -1.60 KCAL/MOL
REMARK 924 INTRA-LIGAND FREE ENERGY PREDICTED BY IDOCK:   -0.50 KCAL/MOL
REMARK 927      BINDING AFFINITY PREDICTED BY RF-SCORE:    0.00 PKD
ROOT
HETATM    1  C   UNL     1      -6.307  13.798  68.292  1.00  0.00    -0.108 C  
HETATM    2  C   UNL     1      -6.490  13.123  69.661  1.00  0.00    -0.047 C  
HETATM    3  N   UNL     1      -7.415  11.974  69.574  1.00  0.00    -0.292 NA 
HETATM    4  C   UNL     1      -5.126  12.741  70.254  1.00  0.00    -0.100 C  
HETATM    5  C   UNL     1      -7.161  14.135  70.613  1.00  0.00     0.887 C  
HETATM    6  H   UNL     1      -8.295  11.949  70.088  1.00  0.00     0.000 HD 
ENDROOT
BRANCH   3   7
HETATM    7  C   UNL     1      -6.990  10.864  68.700  1.00  0.00    -0.073 C  
BRANCH   7   8
HETATM    8  C   UNL     1      -8.151  10.076  68.017  1.00  0.00    -0.112 C  
HETATM    9  H   UNL     1      -9.950  10.514  67.449  1.00  0.00     0.000 HD 
HETATM   10  O   UNL     1      -9.244  10.994  67.864  1.00  0.00    -0.148 OA 
BRANCH   8  11
HETATM   11  C   UNL     1      -8.601   8.807  68.735  1.00  0.00    -0.137 A  
HETATM   12  C   UNL     1      -9.450   8.895  69.853  1.00  0.00    -0.177 A  
HETATM   13  C   UNL     1      -9.924   7.756  70.529  1.00  0.00    -0.187 A  
HETATM   14  C   UNL     1      -9.427   6.509  70.136  1.00  0.00    -0.157 A  
HETATM   15  H   UNL     1      -9.435   4.507  70.512  1.00  0.00     0.000 HD 
HETATM   16  C   UNL     1      -8.555   6.393  69.063  1.00  0.00    -0.124 A  
HETATM   17  O   UNL     1      -9.772   5.354  70.779  1.00  0.00    -0.164 OA 
HETATM   18  C   UNL     1      -8.166   7.530  68.348  1.00  0.00    -0.125 A  
BRANCH  13  19
HETATM   19  C   UNL     1     -10.893   7.939  71.666  1.00  0.00    -0.232 C  
HETATM   20  O   UNL     1     -12.143   7.321  71.365  1.00  0.00    -0.300 OA 
HETATM   21  H   UNL     1     -12.755   7.436  72.083  1.00  0.00     0.000 HD 
ENDBRANCH  13  19
ENDBRANCH   8  11
ENDBRANCH   7   8
ENDBRANCH   3   7
TORSDOF 4
ENDMDL
MODEL      309
REMARK 921   NORMALIZED FREE ENERGY PREDICTED BY IDOCK:   -1.12 KCAL/MOL
REMARK 922        TOTAL FREE ENERGY PREDICTED BY IDOCK:   -2.08 KCAL/MOL
REMARK 923 INTER-LIGAND FREE ENERGY PREDICTED BY IDOCK:   -2.01 KCAL/MOL
REMARK 924 INTRA-LIGAND FREE ENERGY PREDICTED BY IDOCK:   -0.08 KCAL/MOL
REMARK 927      BINDING AFFINITY PREDICTED BY RF-SCORE:    0.00 PKD
ROOT
HETATM    1  C   UNL     1      -8.117  10.513  66.134  1.00  0.00    -0.145 C  
HETATM    2  C   UNL     1      -8.289  10.762  67.641  1.00  0.00    -0.119 C  
HETATM    3  N   UNL     1      -8.929   9.609  68.306  1.00  0.00    -0.123 NA 
HETATM    4  C   UNL     1      -6.942  11.138  68.276  1.00  0.00    -0.070 C  
HETATM    5  C   UNL     1      -9.256  11.949  67.828  1.00  0.00    -0.184 C  
HETATM    6  H   UNL     1      -9.831   9.689  68.775  1.00  0.00     0.000 HD 
ENDROOT
BRANCH   3   7
HETATM    7  C   UNL     1      -8.188   8.335  68.253  1.00  0.00    -0.128 C  
BRANCH   7   8
HETATM    8  C   UNL     1      -7.092   8.158  69.350  1.00  0.00    -0.055 C  
HETATM    9  H   UNL     1      -5.420   7.186  69.467  1.00  0.00     0.000 HD 
HETATM   10  O   UNL     1      -6.087   7.294  68.799  1.00  0.00    -0.025 OA 
BRANCH   8  11
HETATM   11  C   UNL     1      -7.584   7.633  70.696  1.00  0.00    -0.080 A  
HETATM   12  C   UNL     1      -8.817   6.962  70.782  1.00  0.00    -0.150 A  
HETATM   13  C   UNL     1      -9.299   6.426  71.990  1.00  0.00    -0.151 A  
HETATM   14  C   UNL     1      -8.571   6.684  73.156  1.00  0.00    -0.120 A  
HETATM   15  H   UNL     1      -8.503   6.443  75.178  1.00  0.00     0.000 HD 
HETATM   16  C   UNL     1      -7.372   7.380  73.110  1.00  0.00    -0.085 A  
HETATM   17  O   UNL     1      -8.997   6.268  74.386  1.00  0.00    -0.134 OA 
HETATM   18  C   UNL     1      -6.864   7.827  71.886  1.00  0.00    -0.060 A  
BRANCH  13  19
HETATM   19  C   UNL     1     -10.591   5.654  71.976  1.00  0.00    -0.229 C  
HETATM   20  O   UNL     1     -10.343   4.263  71.778  1.00  0.00    -0.145 OA 
HETATM   21  H   UNL     1     -11.158   3.775  71.769  1.00  0.00     0.000 HD 
ENDBRANCH  13  19
ENDBRANCH   8  11
ENDBRANCH   7   8
ENDBRANCH   3   7
TORSDOF 4
ENDMDL
MODEL      310
REMARK 921   NORMALIZED FREE ENERGY PREDICTED BY IDOCK:   -0.92 KCAL/MOL
REMARK 922        TOTAL FREE ENERGY PREDICTED BY IDOCK:   -1.85 KCAL/MOL
REMARK 923 INTER-LIGAND FREE ENERGY PREDICTED BY IDOCK:   -1.90 KCAL/MOL
REMARK 924 INTRA-LIGAND FREE ENERGY PREDICTED BY IDOCK:    0.05 KCAL/MOL
REMARK 927      BINDING AFFINITY PREDICTED BY RF-SCORE:    0.00 PKD
ROOT
HETATM    1  C   UNL     1     -11.544   6.592  69.759  1.00  0.00    -0.392 C  
HETATM    2  C   UNL     1     -10.317   7.495  69.964  1.00  0.00    -0.221 C  
HETATM    3  N   UNL     1      -9.825   7.424  71.355  1.00  0.00    -0.184 NA 
HETATM    4  C   UNL     1      -9.228   7.158  68.934  1.00  0.00    -0.137 C  
HETATM    5  C   UNL     1     -10.751   8.959  69.742  1.00  0.00    -0.230 C  
HETATM    6  H   UNL     1      -9.810   8.242  71.965  1.00  0.00     0.000 HD 
ENDROOT
BRANCH   3   7
HETATM    7  C   UNL     1      -9.356   6.103  71.811  1.00  0.00    -0.151 C  
BRANCH   7   8
HETATM    8  C   UNL     1      -7.807   5.922  71.841  1.00  0.00    -0.106 C  
HETATM    9  H   UNL     1      -6.291   7.048  71.407  1.00  0.00     0.000 HD 
HETATM   10  O   UNL     1      -7.234   7.158  71.389  1.00  0.00    -0.075 OA 
BRANCH   8  11
HETATM   11  C   UNL     1      -7.263   4.744  71.038  1.00  0.00    -0.059 A  
HETATM   12  C   UNL     1      -7.544   4.640  69.663  1.00  0.00    -0.058 A  
HETATM   13  C   UNL     1      -7.038   3.595  68.869  1.00  0.00    -0.050 A  
HETATM   14  C   UNL     1      -6.333   2.571  69.508  1.00  0.00    -0.029 A  
HETATM   15  H   UNL     1      -5.386   0.782  69.267  1.00  0.00     0.000 HD 
HETATM   16  C   UNL     1      -6.075   2.623  70.871  1.00  0.00    -0.018 A  
HETATM   17  O   UNL     1      -5.866   1.478  68.833  1.00  0.00    -0.021 OA 
HETATM   18  C   UNL     1      -6.510   3.716  71.627  1.00  0.00    -0.015 A  
BRANCH  13  19
HETATM   19  C   UNL     1      -7.324   3.604  67.391  1.00  0.00    -0.066 C  
HETATM   20  O   UNL     1      -7.516   4.938  66.925  1.00  0.00    -0.084 OA 
HETATM   21  H   UNL     1      -7.696   4.945  65.992  1.00  0.00     0.000 HD 
ENDBRANCH  13  19
ENDBRANCH   8  11
ENDBRANCH   7   8
ENDBRANCH   3   7
TORSDOF 4
ENDMDL
MODEL      311
REMARK 921   NORMALIZED FREE ENERGY PREDICTED BY IDOCK:   -0.80 KCAL/MOL
REMARK 922        TOTAL FREE ENERGY PREDICTED BY IDOCK:   -1.69 KCAL/MOL
REMARK 923 INTER-LIGAND FREE ENERGY PREDICTED BY IDOCK:   -1.41 KCAL/MOL
REMARK 924 INTRA-LIGAND FREE ENERGY PREDICTED BY IDOCK:   -0.29 KCAL/MOL
REMARK 927      BINDING AFFINITY PREDICTED BY RF-SCORE:    0.00 PKD
ROOT
HETATM    1  C   UNL     1      -6.247  13.821  68.191  1.00  0.00    -0.126 C  
HETATM    2  C   UNL     1      -6.460  13.160  69.563  1.00  0.00    -0.074 C  
HETATM    3  N   UNL     1      -7.511  12.123  69.501  1.00  0.00    -0.250 NA 
HETATM    4  C   UNL     1      -5.130  12.621  70.108  1.00  0.00    -0.091 C  
HETATM    5  C   UNL     1      -6.982  14.232  70.541  1.00  0.00     0.444 C  
HETATM    6  H   UNL     1      -8.371  12.193  70.044  1.00  0.00     0.000 HD 
ENDROOT
BRANCH   3   7
HETATM    7  C   UNL     1      -7.243  10.980  68.609  1.00  0.00    -0.091 C  
BRANCH   7   8
HETATM    8  C   UNL     1      -8.496  10.393  67.887  1.00  0.00    -0.114 C  
HETATM    9  H   UNL     1      -9.799   9.023  68.309  1.00  0.00     0.000 HD 
HETATM   10  O   UNL     1      -9.036   9.380  68.749  1.00  0.00    -0.131 OA 
BRANCH   8  11
HETATM   11  C   UNL     1      -8.254   9.842  66.485  1.00  0.00    -0.120 A  
HETATM   12  C   UNL     1      -7.977   8.475  66.304  1.00  0.00    -0.102 A  
HETATM   13  C   UNL     1      -7.782   7.909  65.031  1.00  0.00    -0.106 A  
HETATM   14  C   UNL     1      -7.748   8.771  63.931  1.00  0.00    -0.132 A  
HETATM   15  H   UNL     1      -7.470   8.911  61.917  1.00  0.00     0.000 HD 
HETATM   16  C   UNL     1      -7.977  10.131  64.081  1.00  0.00    -0.154 A  
HETATM   17  O   UNL     1      -7.493   8.325  62.664  1.00  0.00    -0.096 OA 
HETATM   18  C   UNL     1      -8.257  10.661  65.345  1.00  0.00    -0.125 A  
BRANCH  13  19
HETATM   19  C   UNL     1      -7.569   6.423  64.923  1.00  0.00    -0.093 C  
HETATM   20  O   UNL     1      -6.638   5.976  65.907  1.00  0.00    -0.045 OA 
HETATM   21  H   UNL     1      -6.503   5.038  65.839  1.00  0.00     0.000 HD 
ENDBRANCH  13  19
ENDBRANCH   8  11
ENDBRANCH   7   8
ENDBRANCH   3   7
TORSDOF 4
ENDMDL
MODEL      312
REMARK 921   NORMALIZED FREE ENERGY PREDICTED BY IDOCK:   -0.76 KCAL/MOL
REMARK 922        TOTAL FREE ENERGY PREDICTED BY IDOCK:   -1.65 KCAL/MOL
REMARK 923 INTER-LIGAND FREE ENERGY PREDICTED BY IDOCK:   -1.31 KCAL/MOL
REMARK 924 INTRA-LIGAND FREE ENERGY PREDICTED BY IDOCK:   -0.34 KCAL/MOL
REMARK 927      BINDING AFFINITY PREDICTED BY RF-SCORE:    0.00 PKD
ROOT
HETATM    1  C   UNL     1     -12.096   6.682  69.649  1.00  0.00     0.333 C  
HETATM    2  C   UNL     1     -10.761   7.401  69.902  1.00  0.00    -0.243 C  
HETATM    3  N   UNL     1      -9.973   6.717  70.948  1.00  0.00    -0.186 NA 
HETATM    4  C   UNL     1      -9.984   7.560  68.587  1.00  0.00    -0.178 C  
HETATM    5  C   UNL     1     -11.066   8.809  70.453  1.00  0.00    -0.261 C  
HETATM    6  H   UNL     1      -9.726   7.177  71.824  1.00  0.00     0.000 HD 
ENDROOT
BRANCH   3   7
HETATM    7  C   UNL     1      -9.565   5.331  70.652  1.00  0.00    -0.176 C  
BRANCH   7   8
HETATM    8  C   UNL     1      -8.026   5.072  70.681  1.00  0.00    -0.083 C  
HETATM    9  H   UNL     1      -6.483   6.074  71.288  1.00  0.00     0.000 HD 
HETATM   10  O   UNL     1      -7.420   6.232  71.271  1.00  0.00    -0.089 OA 
BRANCH   8  11
HETATM   11  C   UNL     1      -7.385   4.747  69.335  1.00  0.00    -0.052 A  
HETATM   12  C   UNL     1      -7.377   5.710  68.309  1.00  0.00    -0.076 A  
HETATM   13  C   UNL     1      -6.768   5.475  67.062  1.00  0.00    -0.062 A  
HETATM   14  C   UNL     1      -6.264   4.195  66.812  1.00  0.00    -0.032 A  
HETATM   15  H   UNL     1      -5.378   2.981  65.437  1.00  0.00     0.000 HD 
HETATM   16  C   UNL     1      -6.295   3.211  67.790  1.00  0.00    -0.036 A  
HETATM   17  O   UNL     1      -5.720   3.851  65.607  1.00  0.00    -0.020 OA 
HETATM   18  C   UNL     1      -6.825   3.492  69.053  1.00  0.00    -0.045 A  
BRANCH  13  19
HETATM   19  C   UNL     1      -6.736   6.588  66.050  1.00  0.00    -0.049 C  
HETATM   20  O   UNL     1      -6.747   7.859  66.700  1.00  0.00    -0.060 OA 
HETATM   21  H   UNL     1      -6.726   8.562  66.061  1.00  0.00     0.000 HD 
ENDBRANCH  13  19
ENDBRANCH   8  11
ENDBRANCH   7   8
ENDBRANCH   3   7
TORSDOF 4
ENDMDL
MODEL      313
REMARK 921   NORMALIZED FREE ENERGY PREDICTED BY IDOCK:   -0.71 KCAL/MOL
REMARK 922        TOTAL FREE ENERGY PREDICTED BY IDOCK:   -1.58 KCAL/MOL
REMARK 923 INTER-LIGAND FREE ENERGY PREDICTED BY IDOCK:   -1.92 KCAL/MOL
REMARK 924 INTRA-LIGAND FREE ENERGY PREDICTED BY IDOCK:    0.35 KCAL/MOL
REMARK 927      BINDING AFFINITY PREDICTED BY RF-SCORE:    0.00 PKD
ROOT
HETATM    1  C   UNL     1      -8.725  11.144  66.189  1.00  0.00    -0.188 C  
HETATM    2  C   UNL     1      -9.134  10.669  67.593  1.00  0.00    -0.142 C  
HETATM    3  N   UNL     1      -9.664   9.290  67.559  1.00  0.00    -0.152 NA 
HETATM    4  C   UNL     1      -7.963  10.828  68.573  1.00  0.00    -0.130 C  
HETATM    5  C   UNL     1     -10.296  11.556  68.085  1.00  0.00    -0.211 C  
HETATM    6  H   UNL     1     -10.621   9.073  67.834  1.00  0.00     0.000 HD 
ENDROOT
BRANCH   3   7
HETATM    7  C   UNL     1      -8.727   8.246  67.104  1.00  0.00    -0.123 C  
BRANCH   7   8
HETATM    8  C   UNL     1      -7.501   8.001  68.039  1.00  0.00    -0.097 C  
HETATM    9  H   UNL     1      -5.622   7.626  67.758  1.00  0.00     0.000 HD 
HETATM   10  O   UNL     1      -6.367   7.775  67.189  1.00  0.00    -0.051 OA 
BRANCH   8  11
HETATM   11  C   UNL     1      -7.658   6.869  69.051  1.00  0.00    -0.104 A  
HETATM   12  C   UNL     1      -8.554   5.816  68.796  1.00  0.00    -0.109 A  
HETATM   13  C   UNL     1      -8.710   4.731  69.677  1.00  0.00    -0.112 A  
HETATM   14  C   UNL     1      -8.030   4.778  70.898  1.00  0.00    -0.082 A  
HETATM   15  H   UNL     1      -7.712   3.838  72.678  1.00  0.00     0.000 HD 
HETATM   16  C   UNL     1      -7.170   5.824  71.197  1.00  0.00    -0.074 A  
HETATM   17  O   UNL     1      -8.174   3.806  71.849  1.00  0.00    -0.073 OA 
HETATM   18  C   UNL     1      -6.961   6.849  70.269  1.00  0.00    -0.066 A  
BRANCH  13  19
HETATM   19  C   UNL     1      -9.634   3.608  69.288  1.00  0.00    -0.115 C  
HETATM   20  O   UNL     1      -9.671   2.611  70.309  1.00  0.00    -0.096 OA 
HETATM   21  H   UNL     1     -10.254   1.902  70.063  1.00  0.00     0.000 HD 
ENDBRANCH  13  19
ENDBRANCH   8  11
ENDBRANCH   7   8
ENDBRANCH   3   7
TORSDOF 4
ENDMDL
MODEL      314
REMARK 921   NORMALIZED FREE ENERGY PREDICTED BY IDOCK:    0.39 KCAL/MOL
REMARK 922        TOTAL FREE ENERGY PREDICTED BY IDOCK:   -0.22 KCAL/MOL
REMARK 923 INTER-LIGAND FREE ENERGY PREDICTED BY IDOCK:    0.16 KCAL/MOL
REMARK 924 INTRA-LIGAND FREE ENERGY PREDICTED BY IDOCK:   -0.38 KCAL/MOL
REMARK 927      BINDING AFFINITY PREDICTED BY RF-SCORE:    0.00 PKD
ROOT
HETATM    1  C   UNL     1      -7.312  11.036  70.488  1.00  0.00     1.419 C  
HETATM    2  C   UNL     1      -6.780  10.358  69.214  1.00  0.00    -0.067 C  
HETATM    3  N   UNL     1      -6.966   8.893  69.269  1.00  0.00    -0.057 NA 
HETATM    4  C   UNL     1      -7.417  10.989  67.968  1.00  0.00    -0.090 C  
HETATM    5  C   UNL     1      -5.256  10.589  69.144  1.00  0.00    -0.038 C  
HETATM    6  H   UNL     1      -6.176   8.248  69.250  1.00  0.00     0.000 HD 
ENDROOT
BRANCH   3   7
HETATM    7  C   UNL     1      -8.359   8.419  69.351  1.00  0.00    -0.120 C  
BRANCH   7   8
HETATM    8  C   UNL     1      -8.599   7.233  70.338  1.00  0.00    -0.144 C  
HETATM    9  H   UNL     1      -8.064   6.841  72.158  1.00  0.00     0.000 HD 
HETATM   10  O   UNL     1      -7.918   7.562  71.558  1.00  0.00    -0.092 OA 
BRANCH   8  11
HETATM   11  C   UNL     1      -8.178   5.857  69.832  1.00  0.00    -0.117 A  
HETATM   12  C   UNL     1      -8.169   5.586  68.452  1.00  0.00    -0.099 A  
HETATM   13  C   UNL     1      -7.755   4.347  67.931  1.00  0.00    -0.080 A  
HETATM   14  C   UNL     1      -7.458   3.324  68.837  1.00  0.00    -0.049 A  
HETATM   15  H   UNL     1      -6.916   1.370  69.042  1.00  0.00     0.000 HD 
HETATM   16  C   UNL     1      -7.497   3.547  70.206  1.00  0.00    -0.041 A  
HETATM   17  O   UNL     1      -7.117   2.065  68.426  1.00  0.00    -0.042 OA 
HETATM   18  C   UNL     1      -7.826   4.813  70.702  1.00  0.00    -0.069 A  
BRANCH  13  19
HETATM   19  C   UNL     1      -7.702   4.169  66.437  1.00  0.00    -0.090 C  
HETATM   20  O   UNL     1      -7.123   5.315  65.815  1.00  0.00    -0.065 OA 
HETATM   21  H   UNL     1      -7.089   5.203  64.872  1.00  0.00     0.000 HD 
ENDBRANCH  13  19
ENDBRANCH   8  11
ENDBRANCH   7   8
ENDBRANCH   3   7
TORSDOF 4
ENDMDL
MODEL      315
REMARK 921   NORMALIZED FREE ENERGY PREDICTED BY IDOCK:    0.46 KCAL/MOL
REMARK 922        TOTAL FREE ENERGY PREDICTED BY IDOCK:   -0.14 KCAL/MOL
REMARK 923 INTER-LIGAND FREE ENERGY PREDICTED BY IDOCK:    0.20 KCAL/MOL
REMARK 924 INTRA-LIGAND FREE ENERGY PREDICTED BY IDOCK:   -0.34 KCAL/MOL
REMARK 927      BINDING AFFINITY PREDICTED BY RF-SCORE:    0.00 PKD
ROOT
HETATM    1  C   UNL     1     -11.173  11.015  71.535  1.00  0.00     2.061 C  
HETATM    2  C   UNL     1     -12.678  11.190  71.272  1.00  0.00    -0.426 C  
HETATM    3  N   UNL     1     -13.047  12.619  71.198  1.00  0.00    -0.144 NA 
HETATM    4  C   UNL     1     -13.095  10.406  70.019  1.00  0.00     0.232 C  
HETATM    5  C   UNL     1     -13.450  10.615  72.477  1.00  0.00     0.352 C  
HETATM    6  H   UNL     1     -13.699  13.042  71.857  1.00  0.00     0.000 HD 
ENDROOT
BRANCH   3   7
HETATM    7  C   UNL     1     -12.418  13.396  70.114  1.00  0.00    -0.174 C  
BRANCH   7   8
HETATM    8  C   UNL     1     -12.156  14.899  70.441  1.00  0.00    -0.330 C  
HETATM    9  H   UNL     1     -13.087  16.559  70.079  1.00  0.00     0.000 HD 
HETATM   10  O   UNL     1     -13.247  15.644  69.880  1.00  0.00     0.047 OA 
BRANCH   8  11
HETATM   11  C   UNL     1     -10.816  15.455  69.967  1.00  0.00    -0.320 A  
HETATM   12  C   UNL     1     -10.719  16.795  69.548  1.00  0.00    -0.273 A  
HETATM   13  C   UNL     1      -9.501  17.367  69.137  1.00  0.00    -0.025 A  
HETATM   14  C   UNL     1      -8.387  16.529  69.035  1.00  0.00    -0.202 A  
HETATM   15  H   UNL     1      -6.423  16.408  68.506  1.00  0.00     0.000 HD 
HETATM   16  C   UNL     1      -8.461  15.193  69.401  1.00  0.00    -0.190 A  
HETATM   17  O   UNL     1      -7.180  16.977  68.575  1.00  0.00    -0.189 OA 
HETATM   18  C   UNL     1      -9.659  14.665  69.892  1.00  0.00     0.466 A  
BRANCH  13  19
HETATM   19  C   UNL     1      -9.472  18.829  68.780  1.00  0.00    -0.335 C  
HETATM   20  O   UNL     1     -10.206  19.069  67.581  1.00  0.00    -0.353 OA 
HETATM   21  H   UNL     1     -10.188  19.992  67.355  1.00  0.00     0.000 HD 
ENDBRANCH  13  19
ENDBRANCH   8  11
ENDBRANCH   7   8
ENDBRANCH   3   7
TORSDOF 4
ENDMDL
MODEL      316
REMARK 921   NORMALIZED FREE ENERGY PREDICTED BY IDOCK:    1.70 KCAL/MOL
REMARK 922        TOTAL FREE ENERGY PREDICTED BY IDOCK:    1.38 KCAL/MOL
REMARK 923 INTER-LIGAND FREE ENERGY PREDICTED BY IDOCK:    0.98 KCAL/MOL
REMARK 924 INTRA-LIGAND FREE ENERGY PREDICTED BY IDOCK:    0.41 KCAL/MOL
REMARK 927      BINDING AFFINITY PREDICTED BY RF-SCORE:    0.00 PKD
ROOT
HETATM    1  C   UNL     1      -9.441  19.743  67.431  1.00  0.00    -0.457 C  
HETATM    2  C   UNL     1      -8.064  19.094  67.217  1.00  0.00    -0.263 C  
HETATM    3  N   UNL     1      -8.179  17.629  67.060  1.00  0.00    -0.213 NA 
HETATM    4  C   UNL     1      -7.338  19.760  66.039  1.00  0.00    -0.319 C  
HETATM    5  C   UNL     1      -7.221  19.318  68.490  1.00  0.00    -0.349 C  
HETATM    6  H   UNL     1      -7.743  16.981  67.715  1.00  0.00     0.000 HD 
ENDROOT
BRANCH   3   7
HETATM    7  C   UNL     1      -8.961  17.161  65.901  1.00  0.00     0.016 C  
BRANCH   7   8
HETATM    8  C   UNL     1      -9.952  15.992  66.198  1.00  0.00    -0.325 C  
HETATM    9  H   UNL     1     -11.392  15.140  65.221  1.00  0.00     0.000 HD 
HETATM   10  O   UNL     1     -10.789  15.852  65.040  1.00  0.00    -0.428 OA 
BRANCH   8  11
HETATM   11  C   UNL     1     -10.792  16.142  67.463  1.00  0.00    -0.284 A  
HETATM   12  C   UNL     1     -11.339  15.004  68.083  1.00  0.00    -0.343 A  
HETATM   13  C   UNL     1     -12.090  15.083  69.271  1.00  0.00    -0.282 A  
HETATM   14  C   UNL     1     -12.392  16.354  69.769  1.00  0.00     0.888 A  
HETATM   15  H   UNL     1     -13.382  17.397  71.213  1.00  0.00     0.000 HD 
HETATM   16  C   UNL     1     -11.903  17.498  69.155  1.00  0.00     2.681 A  
HETATM   17  O   UNL     1     -13.176  16.533  70.874  1.00  0.00     1.266 OA 
HETATM   18  C   UNL     1     -11.083  17.394  68.026  1.00  0.00    -0.016 A  
BRANCH  13  19
HETATM   19  C   UNL     1     -12.570  13.808  69.910  1.00  0.00    -0.092 C  
HETATM   20  O   UNL     1     -11.492  12.888  70.068  1.00  0.00    -0.506 OA 
HETATM   21  H   UNL     1     -11.794  12.083  70.472  1.00  0.00     0.000 HD 
ENDBRANCH  13  19
ENDBRANCH   8  11
ENDBRANCH   7   8
ENDBRANCH   3   7
TORSDOF 4
ENDMDL
MODEL      317
REMARK 921   NORMALIZED FREE ENERGY PREDICTED BY IDOCK:    3.15 KCAL/MOL
REMARK 922        TOTAL FREE ENERGY PREDICTED BY IDOCK:    3.18 KCAL/MOL
REMARK 923 INTER-LIGAND FREE ENERGY PREDICTED BY IDOCK:   -3.31 KCAL/MOL
REMARK 924 INTRA-LIGAND FREE ENERGY PREDICTED BY IDOCK:    6.49 KCAL/MOL
REMARK 927      BINDING AFFINITY PREDICTED BY RF-SCORE:    0.00 PKD
ROOT
HETATM    1  C   UNL     1      -9.571  13.321  66.187  1.00  0.00    -0.211 C  
HETATM    2  C   UNL     1      -9.102  12.623  67.474  1.00  0.00    -0.192 C  
HETATM    3  N   UNL     1      -7.773  13.113  67.897  1.00  0.00    -0.131 NA 
HETATM    4  C   UNL     1     -10.162  12.765  68.575  1.00  0.00    -0.206 C  
HETATM    5  C   UNL     1      -8.922  11.121  67.172  1.00  0.00    -0.145 C  
HETATM    6  H   UNL     1      -6.963  12.497  67.952  1.00  0.00     0.000 HD 
ENDROOT
BRANCH   3   7
HETATM    7  C   UNL     1      -7.688  14.546  68.235  1.00  0.00    -0.126 C  
BRANCH   7   8
HETATM    8  C   UNL     1      -8.919  15.121  69.003  1.00  0.00    -0.219 C  
HETATM    9  H   UNL     1     -10.741  14.534  69.298  1.00  0.00     0.000 HD 
HETATM   10  O   UNL     1      -9.992  14.184  68.831  1.00  0.00    -0.210 OA 
BRANCH   8  11
HETATM   11  C   UNL     1      -9.354  16.527  68.597  1.00  0.00    -0.241 A  
HETATM   12  C   UNL     1      -8.390  17.482  68.228  1.00  0.00    -0.265 A  
HETATM   13  C   UNL     1      -8.738  18.780  67.810  1.00  0.00    -0.309 A  
HETATM   14  C   UNL     1     -10.084  19.151  67.886  1.00  0.00    -0.386 A  
HETATM   15  H   UNL     1     -11.424  20.663  67.623  1.00  0.00     0.000 HD 
HETATM   16  C   UNL     1     -11.055  18.243  68.286  1.00  0.00     0.418 A  
HETATM   17  O   UNL     1     -10.510  20.411  67.572  1.00  0.00    -0.265 OA 
HETATM   18  C   UNL     1     -10.698  16.931  68.611  1.00  0.00    -0.345 A  
BRANCH  13  19
HETATM   19  C   UNL     1      -7.648  19.713  67.357  1.00  0.00    -0.257 C  
HETATM   20  O   UNL     1      -7.069  20.389  68.472  1.00  0.00    -0.223 OA 
HETATM   21  H   UNL     1      -6.380  20.978  68.187  1.00  0.00     0.000 HD 
ENDBRANCH  13  19
ENDBRANCH   8  11
ENDBRANCH   7   8
ENDBRANCH   3   7
TORSDOF 4
ENDMDL
MODEL      318
REMARK 921   NORMALIZED FREE ENERGY PREDICTED BY IDOCK:    4.04 KCAL/MOL
REMARK 922        TOTAL FREE ENERGY PREDICTED BY IDOCK:    4.28 KCAL/MOL
REMARK 923 INTER-LIGAND FREE ENERGY PREDICTED BY IDOCK:   -3.57 KCAL/MOL
REMARK 924 INTRA-LIGAND FREE ENERGY PREDICTED BY IDOCK:    7.85 KCAL/MOL
REMARK 927      BINDING AFFINITY PREDICTED BY RF-SCORE:    0.00 PKD
ROOT
HETATM    1  C   UNL     1      -8.798  13.283  66.088  1.00  0.00     0.347 C  
HETATM    2  C   UNL     1      -8.914  12.067  67.022  1.00  0.00    -0.198 C  
HETATM    3  N   UNL     1      -7.875  12.095  68.071  1.00  0.00    -0.134 NA 
HETATM    4  C   UNL     1     -10.334  11.972  67.598  1.00  0.00    -0.213 C  
HETATM    5  C   UNL     1      -8.645  10.794  66.194  1.00  0.00    -0.171 C  
HETATM    6  H   UNL     1      -7.168  11.364  68.151  1.00  0.00     0.000 HD 
ENDROOT
BRANCH   3   7
HETATM    7  C   UNL     1      -7.918  13.243  68.997  1.00  0.00     0.259 C  
BRANCH   7   8
HETATM    8  C   UNL     1      -9.063  14.269  68.729  1.00  0.00    -0.103 C  
HETATM    9  H   UNL     1     -10.829  14.170  67.939  1.00  0.00     0.000 HD 
HETATM   10  O   UNL     1     -10.132  13.545  68.102  1.00  0.00    -0.235 OA 
BRANCH   8  11
HETATM   11  C   UNL     1      -8.675  15.491  67.902  1.00  0.00    -0.163 A  
HETATM   12  C   UNL     1      -9.671  16.262  67.276  1.00  0.00    -0.237 A  
HETATM   13  C   UNL     1      -9.371  17.419  66.533  1.00  0.00    -0.288 A  
HETATM   14  C   UNL     1      -8.024  17.728  66.322  1.00  0.00    -0.247 A  
HETATM   15  H   UNL     1      -6.718  19.000  65.411  1.00  0.00     0.000 HD 
HETATM   16  C   UNL     1      -7.016  16.963  66.892  1.00  0.00    -0.251 A  
HETATM   17  O   UNL     1      -7.633  18.789  65.554  1.00  0.00    -0.476 OA 
HETATM   18  C   UNL     1      -7.338  15.868  67.701  1.00  0.00    -0.180 A  
BRANCH  13  19
HETATM   19  C   UNL     1     -10.504  18.228  65.963  1.00  0.00    -0.361 C  
HETATM   20  O   UNL     1     -11.017  17.614  64.782  1.00  0.00    -0.917 OA 
HETATM   21  H   UNL     1     -11.732  18.125  64.422  1.00  0.00     0.000 HD 
ENDBRANCH  13  19
ENDBRANCH   8  11
ENDBRANCH   7   8
ENDBRANCH   3   7
TORSDOF 4
ENDMDL
MODEL      319
REMARK 921   NORMALIZED FREE ENERGY PREDICTED BY IDOCK:   11.17 KCAL/MOL
REMARK 922        TOTAL FREE ENERGY PREDICTED BY IDOCK:   13.07 KCAL/MOL
REMARK 923 INTER-LIGAND FREE ENERGY PREDICTED BY IDOCK:    0.58 KCAL/MOL
REMARK 924 INTRA-LIGAND FREE ENERGY PREDICTED BY IDOCK:   12.49 KCAL/MOL
REMARK 927      BINDING AFFINITY PREDICTED BY RF-SCORE:    0.00 PKD
ROOT
HETATM    1  C   UNL     1      -9.743  15.541  67.691  1.00  0.00    -0.212 C  
HETATM    2  C   UNL     1     -11.245  15.844  67.564  1.00  0.00    -0.171 C  
HETATM    3  N   UNL     1     -11.575  17.170  68.125  1.00  0.00     0.384 NA 
HETATM    4  C   UNL     1     -11.699  15.690  66.105  1.00  0.00     0.451 C  
HETATM    5  C   UNL     1     -12.019  14.819  68.418  1.00  0.00    -0.270 C  
HETATM    6  H   UNL     1     -12.207  17.279  68.918  1.00  0.00     0.000 HD 
ENDROOT
BRANCH   3   7
HETATM    7  C   UNL     1     -10.937  18.328  67.471  1.00  0.00    -0.108 C  
BRANCH   7   8
HETATM    8  C   UNL     1      -9.377  18.344  67.524  1.00  0.00    -0.265 C  
HETATM    9  H   UNL     1      -7.968  18.565  66.214  1.00  0.00     0.000 HD 
HETATM   10  O   UNL     1      -8.917  18.556  66.181  1.00  0.00    -0.462 OA 
BRANCH   8  11
HETATM   11  C   UNL     1      -8.724  17.107  68.135  1.00  0.00    -0.232 A  
HETATM   12  C   UNL     1      -8.112  16.152  67.303  1.00  0.00    -0.202 A  
HETATM   13  C   UNL     1      -7.464  15.013  67.816  1.00  0.00    -0.175 A  
HETATM   14  C   UNL     1      -7.545  14.780  69.192  1.00  0.00    -0.151 A  
HETATM   15  H   UNL     1      -7.065  13.505  70.708  1.00  0.00     0.000 HD 
HETATM   16  C   UNL     1      -8.178  15.682  70.034  1.00  0.00     0.466 A  
HETATM   17  O   UNL     1      -7.010  13.664  69.773  1.00  0.00     0.053 OA 
HETATM   18  C   UNL     1      -8.739  16.854  69.515  1.00  0.00     0.455 A  
BRANCH  13  19
HETATM   19  C   UNL     1      -6.767  14.083  66.860  1.00  0.00     1.273 C  
HETATM   20  O   UNL     1      -6.924  12.727  67.272  1.00  0.00    -0.253 OA 
HETATM   21  H   UNL     1      -6.484  12.140  66.669  1.00  0.00     0.000 HD 
ENDBRANCH  13  19
ENDBRANCH   8  11
ENDBRANCH   7   8
ENDBRANCH   3   7
TORSDOF 4
ENDMDL
MODEL      320
REMARK 921   NORMALIZED FREE ENERGY PREDICTED BY IDOCK:   18.64 KCAL/MOL
REMARK 922        TOTAL FREE ENERGY PREDICTED BY IDOCK:   22.29 KCAL/MOL
REMARK 923 INTER-LIGAND FREE ENERGY PREDICTED BY IDOCK:   21.98 KCAL/MOL
REMARK 924 INTRA-LIGAND FREE ENERGY PREDICTED BY IDOCK:    0.31 KCAL/MOL
REMARK 927      BINDING AFFINITY PREDICTED BY RF-SCORE:    0.00 PKD
ROOT
HETATM    1  C   UNL     1     -12.929  20.862  68.319  1.00  0.00     6.629 C  
HETATM    2  C   UNL     1     -11.586  20.305  68.820  1.00  0.00     2.962 C  
HETATM    3  N   UNL     1     -11.265  19.015  68.175  1.00  0.00    -0.009 NA 
HETATM    4  C   UNL     1     -10.475  21.349  68.639  1.00  0.00     1.444 C  
HETATM    5  C   UNL     1     -11.720  20.002  70.327  1.00  0.00     6.723 C  
HETATM    6  H   UNL     1     -11.167  18.153  68.711  1.00  0.00     0.000 HD 
ENDROOT
BRANCH   3   7
HETATM    7  C   UNL     1     -11.097  19.047  66.710  1.00  0.00     0.070 C  
BRANCH   7   8
HETATM    8  C   UNL     1     -11.254  17.669  65.994  1.00  0.00     0.809 C  
HETATM    9  H   UNL     1     -12.707  16.753  65.099  1.00  0.00     0.000 HD 
HETATM   10  O   UNL     1     -12.612  17.591  65.535  1.00  0.00     5.242 OA 
BRANCH   8  11
HETATM   11  C   UNL     1     -10.890  16.445  66.828  1.00  0.00    -0.098 A  
HETATM   12  C   UNL     1     -11.450  15.192  66.521  1.00  0.00    -0.171 A  
HETATM   13  C   UNL     1     -11.121  14.025  67.235  1.00  0.00    -0.314 A  
HETATM   14  C   UNL     1     -10.299  14.156  68.358  1.00  0.00    -0.249 A  
HETATM   15  H   UNL     1      -9.424  13.182  69.919  1.00  0.00     0.000 HD 
HETATM   16  C   UNL     1      -9.763  15.387  68.712  1.00  0.00    -0.210 A  
HETATM   17  O   UNL     1      -9.983  13.093  69.156  1.00  0.00     0.134 OA 
HETATM   18  C   UNL     1     -10.032  16.519  67.936  1.00  0.00    -0.245 A  
BRANCH  13  19
HETATM   19  C   UNL     1     -11.707  12.712  66.789  1.00  0.00    -0.392 C  
HETATM   20  O   UNL     1     -11.627  12.582  65.370  1.00  0.00    -0.341 OA 
HETATM   21  H   UNL     1     -11.997  11.754  65.088  1.00  0.00     0.000 HD 
ENDBRANCH  13  19
ENDBRANCH   8  11
ENDBRANCH   7   8
ENDBRANCH   3   7
TORSDOF 4
ENDMDL
MODEL      321
REMARK 921   NORMALIZED FREE ENERGY PREDICTED BY IDOCK:   19.12 KCAL/MOL
REMARK 922        TOTAL FREE ENERGY PREDICTED BY IDOCK:   22.88 KCAL/MOL
REMARK 923 INTER-LIGAND FREE ENERGY PREDICTED BY IDOCK:   22.87 KCAL/MOL
REMARK 924 INTRA-LIGAND FREE ENERGY PREDICTED BY IDOCK:    0.01 KCAL/MOL
REMARK 927      BINDING AFFINITY PREDICTED BY RF-SCORE:    0.00 PKD
ROOT
HETATM    1  C   UNL     1     -12.929  20.862  68.319  1.00  0.00     6.629 C  
HETATM    2  C   UNL     1     -11.586  20.313  68.830  1.00  0.00     2.962 C  
HETATM    3  N   UNL     1     -11.256  19.022  68.192  1.00  0.00    -0.009 NA 
HETATM    4  C   UNL     1     -10.479  21.361  68.650  1.00  0.00     1.444 C  
HETATM    5  C   UNL     1     -11.727  20.016  70.337  1.00  0.00     7.131 C  
HETATM    6  H   UNL     1     -11.156  18.163  68.732  1.00  0.00     0.000 HD 
ENDROOT
BRANCH   3   7
HETATM    7  C   UNL     1     -11.080  19.048  66.728  1.00  0.00     0.070 C  
BRANCH   7   8
HETATM    8  C   UNL     1     -11.227  17.667  66.016  1.00  0.00     0.809 C  
HETATM    9  H   UNL     1     -12.671  16.740  65.118  1.00  0.00     0.000 HD 
HETATM   10  O   UNL     1     -12.582  17.581  65.551  1.00  0.00     5.242 OA 
BRANCH   8  11
HETATM   11  C   UNL     1     -10.862  16.448  66.858  1.00  0.00    -0.118 A  
HETATM   12  C   UNL     1      -9.714  16.472  67.671  1.00  0.00    -0.239 A  
HETATM   13  C   UNL     1      -9.352  15.390  68.494  1.00  0.00    -0.198 A  
HETATM   14  C   UNL     1     -10.104  14.215  68.397  1.00  0.00    -0.238 A  
HETATM   15  H   UNL     1     -10.297  12.290  69.035  1.00  0.00     0.000 HD 
HETATM   16  C   UNL     1     -11.218  14.145  67.572  1.00  0.00    -0.323 A  
HETATM   17  O   UNL     1      -9.786  13.088  69.101  1.00  0.00     0.198 OA 
HETATM   18  C   UNL     1     -11.613  15.263  66.829  1.00  0.00    -0.051 A  
BRANCH  13  19
HETATM   19  C   UNL     1      -8.152  15.531  69.392  1.00  0.00    -0.241 C  
HETATM   20  O   UNL     1      -7.296  16.573  68.926  1.00  0.00    -0.193 OA 
HETATM   21  H   UNL     1      -6.538  16.663  69.492  1.00  0.00     0.000 HD 
ENDBRANCH  13  19
ENDBRANCH   8  11
ENDBRANCH   7   8
ENDBRANCH   3   7
TORSDOF 4
ENDMDL
MODEL      322
REMARK 921   NORMALIZED FREE ENERGY PREDICTED BY IDOCK:   24.37 KCAL/MOL
REMARK 922        TOTAL FREE ENERGY PREDICTED BY IDOCK:   29.36 KCAL/MOL
REMARK 923 INTER-LIGAND FREE ENERGY PREDICTED BY IDOCK:   14.63 KCAL/MOL
REMARK 924 INTRA-LIGAND FREE ENERGY PREDICTED BY IDOCK:   14.73 KCAL/MOL
REMARK 927      BINDING AFFINITY PREDICTED BY RF-SCORE:    0.00 PKD
ROOT
HETATM    1  C   UNL     1      -8.636  13.540  69.005  1.00  0.00     0.352 C  
HETATM    2  C   UNL     1      -7.784  14.814  68.882  1.00  0.00    -0.146 C  
HETATM    3  N   UNL     1      -6.353  14.488  68.710  1.00  0.00    -0.085 NA 
HETATM    4  C   UNL     1      -8.325  15.712  67.760  1.00  0.00    -0.157 C  
HETATM    5  C   UNL     1      -7.884  15.593  70.210  1.00  0.00     0.868 C  
HETATM    6  H   UNL     1      -5.649  14.775  69.390  1.00  0.00     0.000 HD 
ENDROOT
BRANCH   3   7
HETATM    7  C   UNL     1      -6.002  13.725  67.498  1.00  0.00     0.044 C  
BRANCH   7   8
HETATM    8  C   UNL     1      -7.151  12.846  66.912  1.00  0.00     0.420 C  
HETATM    9  H   UNL     1      -7.258  11.462  65.561  1.00  0.00     0.000 HD 
HETATM   10  O   UNL     1      -6.559  11.997  65.917  1.00  0.00     0.696 OA 
BRANCH   8  11
HETATM   11  C   UNL     1      -8.341  13.609  66.339  1.00  0.00     0.645 A  
HETATM   12  C   UNL     1      -8.669  13.481  64.977  1.00  0.00     2.879 A  
HETATM   13  C   UNL     1      -9.777  14.133  64.405  1.00  0.00     1.363 A  
HETATM   14  C   UNL     1     -10.493  15.028  65.206  1.00  0.00    -0.403 A  
HETATM   15  H   UNL     1     -12.025  16.371  65.265  1.00  0.00     0.000 HD 
HETATM   16  C   UNL     1     -10.168  15.209  66.543  1.00  0.00    -0.283 A  
HETATM   17  O   UNL     1     -11.538  15.763  64.721  1.00  0.00    -0.284 OA 
HETATM   18  C   UNL     1      -9.118  14.483  67.115  1.00  0.00    -0.237 A  
BRANCH  13  19
HETATM   19  C   UNL     1     -10.101  13.877  62.958  1.00  0.00     6.296 C  
HETATM   20  O   UNL     1      -9.260  12.855  62.427  1.00  0.00     2.662 OA 
HETATM   21  H   UNL     1      -9.465  12.693  61.514  1.00  0.00     0.000 HD 
ENDBRANCH  13  19
ENDBRANCH   8  11
ENDBRANCH   7   8
ENDBRANCH   3   7
TORSDOF 4
ENDMDL
MODEL      323
REMARK 921   NORMALIZED FREE ENERGY PREDICTED BY IDOCK:   31.91 KCAL/MOL
REMARK 922        TOTAL FREE ENERGY PREDICTED BY IDOCK:   38.66 KCAL/MOL
REMARK 923 INTER-LIGAND FREE ENERGY PREDICTED BY IDOCK:   38.94 KCAL/MOL
REMARK 924 INTRA-LIGAND FREE ENERGY PREDICTED BY IDOCK:   -0.28 KCAL/MOL
REMARK 927      BINDING AFFINITY PREDICTED BY RF-SCORE:    0.00 PKD
ROOT
HETATM    1  C   UNL     1     -13.202  20.812  68.486  1.00  0.00     6.669 C  
HETATM    2  C   UNL     1     -12.146  20.131  69.372  1.00  0.00     6.578 C  
HETATM    3  N   UNL     1     -11.956  18.716  68.989  1.00  0.00     3.895 NA 
HETATM    4  C   UNL     1     -10.835  20.930  69.351  1.00  0.00     1.014 C  
HETATM    5  C   UNL     1     -12.672  20.109  70.822  1.00  0.00    17.610 C  
HETATM    6  H   UNL     1     -12.155  17.951  69.634  1.00  0.00     0.000 HD 
ENDROOT
BRANCH   3   7
HETATM    7  C   UNL     1     -11.461  18.475  67.621  1.00  0.00     0.917 C  
BRANCH   7   8
HETATM    8  C   UNL     1     -11.503  16.987  67.153  1.00  0.00     0.734 C  
HETATM    9  H   UNL     1     -12.498  15.414  67.688  1.00  0.00     0.000 HD 
HETATM   10  O   UNL     1     -12.473  16.320  67.973  1.00  0.00     0.953 OA 
BRANCH   8  11
HETATM   11  C   UNL     1     -10.168  16.249  67.178  1.00  0.00    -0.276 A  
HETATM   12  C   UNL     1      -9.975  15.116  66.367  1.00  0.00    -0.288 A  
HETATM   13  C   UNL     1      -8.753  14.420  66.324  1.00  0.00     0.221 A  
HETATM   14  C   UNL     1      -7.748  14.811  67.214  1.00  0.00    -0.184 A  
HETATM   15  H   UNL     1      -5.871  14.416  67.903  1.00  0.00     0.000 HD 
HETATM   16  C   UNL     1      -7.922  15.899  68.058  1.00  0.00    -0.141 A  
HETATM   17  O   UNL     1      -6.554  14.151  67.298  1.00  0.00    -0.274 OA 
HETATM   18  C   UNL     1      -9.113  16.632  68.021  1.00  0.00    -0.218 A  
BRANCH  13  19
HETATM   19  C   UNL     1      -8.608  13.266  65.369  1.00  0.00     2.196 C  
HETATM   20  O   UNL     1      -9.888  12.767  64.987  1.00  0.00    -0.466 OA 
HETATM   21  H   UNL     1      -9.797  12.038  64.383  1.00  0.00     0.000 HD 
ENDBRANCH  13  19
ENDBRANCH   8  11
ENDBRANCH   7   8
ENDBRANCH   3   7
TORSDOF 4
ENDMDL
MODEL      324
REMARK 921   NORMALIZED FREE ENERGY PREDICTED BY IDOCK:   37.70 KCAL/MOL
REMARK 922        TOTAL FREE ENERGY PREDICTED BY IDOCK:   45.81 KCAL/MOL
REMARK 923 INTER-LIGAND FREE ENERGY PREDICTED BY IDOCK:   46.11 KCAL/MOL
REMARK 924 INTRA-LIGAND FREE ENERGY PREDICTED BY IDOCK:   -0.30 KCAL/MOL
REMARK 927      BINDING AFFINITY PREDICTED BY RF-SCORE:    0.00 PKD
ROOT
HETATM    1  C   UNL     1      -9.489  15.551  67.607  1.00  0.00    -0.208 C  
HETATM    2  C   UNL     1     -10.997  15.839  67.521  1.00  0.00    -0.293 C  
HETATM    3  N   UNL     1     -11.330  17.140  68.136  1.00  0.00     0.022 NA 
HETATM    4  C   UNL     1     -11.479  15.731  66.067  1.00  0.00     0.266 C  
HETATM    5  C   UNL     1     -11.741  14.775  68.355  1.00  0.00    -0.343 C  
HETATM    6  H   UNL     1     -11.947  17.213  68.945  1.00  0.00     0.000 HD 
ENDROOT
BRANCH   3   7
HETATM    7  C   UNL     1     -10.719  18.328  67.511  1.00  0.00    -0.355 C  
BRANCH   7   8
HETATM    8  C   UNL     1     -10.464  19.529  68.475  1.00  0.00    -0.200 C  
HETATM    9  H   UNL     1      -8.976  20.725  68.802  1.00  0.00     0.000 HD 
HETATM   10  O   UNL     1      -9.131  19.995  68.216  1.00  0.00    -0.279 OA 
BRANCH   8  11
HETATM   11  C   UNL     1     -10.659  19.237  69.960  1.00  0.00     1.336 A  
HETATM   12  C   UNL     1      -9.541  19.077  70.799  1.00  0.00     2.524 A  
HETATM   13  C   UNL     1      -9.665  18.843  72.181  1.00  0.00     5.764 A  
HETATM   14  C   UNL     1     -10.949  18.647  72.698  1.00  0.00     3.331 A  
HETATM   15  H   UNL     1     -12.038  18.210  74.364  1.00  0.00     0.000 HD 
HETATM   16  C   UNL     1     -12.070  18.757  71.887  1.00  0.00    10.690 A  
HETATM   17  O   UNL     1     -11.165  18.343  74.012  1.00  0.00     0.769 OA 
HETATM   18  C   UNL     1     -11.930  19.078  70.533  1.00  0.00    10.840 A  
BRANCH  13  19
HETATM   19  C   UNL     1      -8.416  18.764  73.017  1.00  0.00     9.328 C  
HETATM   20  O   UNL     1      -8.326  19.886  73.893  1.00  0.00     2.915 OA 
HETATM   21  H   UNL     1      -7.538  19.837  74.421  1.00  0.00     0.000 HD 
ENDBRANCH  13  19
ENDBRANCH   8  11
ENDBRANCH   7   8
ENDBRANCH   3   7
TORSDOF 4
ENDMDL
